MODEL 7
REMARK VINA RESULT: -7.904700012      3.392      7.367
REMARK  6 active torsions:
REMARK  status: ('A' for Active; 'I' for Inactive)
REMARK    1  A    between atoms: C4_4  and  S1_5 
REMARK    2  A    between atoms: S1_5  and  N1_8 
REMARK    3  A    between atoms: N1_8  and  C5_10 
REMARK    4  A    between atoms: C5_10  and  C6_11 
REMARK    5  A    between atoms: C5_10  and  C7_17 
REMARK       I    between atoms: C6_11  and  N2_13 
REMARK    6  A    between atoms: N2_13  and  O4_15 
ROOT
HETATM    1  N1  UNL     1      10.188  17.929  26.464  1.00  0.00    -0.301 N 
ATOM      2  H1  UNL     1       9.561  17.237  26.872  1.00  0.00     0.173 HD
ENDROOT
BRANCH   1   3
HETATM    3  S1  UNL     1      11.851  17.725  26.528  1.00  0.00     0.259 S 
HETATM    4  O1  UNL     1      12.484  18.963  25.903  1.00  0.00    -0.201 OA
HETATM    5  O2  UNL     1      12.422  17.640  27.910  1.00  0.00    -0.201 OA
BRANCH   3   6
HETATM    6  C4  UNL     1      12.483  16.366  25.632  1.00  0.00     0.080 A 
HETATM    7  C3  UNL     1      13.434  15.507  26.098  1.00  0.00     0.035 A 
HETATM    8  C2  UNL     1      13.900  14.439  25.351  1.00  0.00    -0.022 A 
HETATM    9  C1  UNL     1      14.932  13.514  25.862  1.00  0.00     0.051 C 
HETATM   10  C14 UNL     1      13.389  14.236  24.095  1.00  0.00     0.122 A 
HETATM   11  C13 UNL     1      12.424  15.081  23.585  1.00  0.00     0.044 A 
HETATM   12  F1  UNL     1      13.831  13.186  23.329  1.00  0.00    -0.206 F 
HETATM   13  C12 UNL     1      11.974  16.149  24.364  1.00  0.00     0.028 A 
ENDBRANCH   3   6
ENDBRANCH   1   3
BRANCH   1  14
HETATM   14  C5  UNL     1       9.672  19.094  25.826  1.00  0.00     0.191 C 
BRANCH  14  15
HETATM   15  C6  UNL     1       8.637  18.832  24.822  1.00  0.00     0.264 C 
HETATM   16  O3  UNL     1       8.240  19.740  24.077  1.00  0.00    -0.269 OA
HETATM   17  N2  UNL     1       8.093  17.541  24.706  1.00  0.00    -0.236 N 
ATOM     18  H2  UNL     1       8.422  16.797  25.322  1.00  0.00     0.197 HD
BRANCH  17  19
HETATM   19  O4  UNL     1       7.123  17.271  23.774  1.00  0.00    -0.287 OA
ATOM     20  H4  UNL     1       6.204  17.395  23.979  1.00  0.00     0.244 HD
ENDBRANCH  17  19
ENDBRANCH  14  15
BRANCH  14  21
HETATM   21  C7  UNL     1       9.055  19.997  26.865  1.00  0.00     0.022 C 
HETATM   22  C8  UNL     1       8.534  19.211  28.052  1.00  0.00     0.033 C 
HETATM   23  C9  UNL     1       8.984  19.848  29.336  1.00  0.00     0.168 C 
HETATM   24  O5  UNL     1       8.783  21.209  29.381  1.00  0.00    -0.391 OA
HETATM   25  C10 UNL     1       9.304  21.910  28.324  1.00  0.00     0.168 C 
HETATM   26  C11 UNL     1      10.049  20.985  27.369  1.00  0.00     0.033 C 
ENDBRANCH  14  21
ENDBRANCH   1  14
TORSDOF 6
ENDMDL
