MODEL 20
REMARK VINA RESULT: -4.906728919      2.789      5.482
REMARK  1 active torsions:
REMARK  status: ('A' for Active; 'I' for Inactive)
REMARK    1  A    between atoms: C5_7  and  C6_8 
ROOT
HETATM    1  C1  UNL     1      22.892  -9.981   2.836  1.00  0.00     0.002 A 
HETATM    2  C2  UNL     1      23.897 -10.663   2.168  1.00  0.00     0.002 A 
HETATM    3  C3  UNL     1      24.767 -11.482   2.861  1.00  0.00     0.032 A 
HETATM    4  C4  UNL     1      24.641 -11.624   4.213  1.00  0.00     0.060 A 
HETATM    5  N1  UNL     1      25.307 -12.326   5.158  1.00  0.00    -0.339 N 
ATOM      6  H1  UNL     1      26.107 -12.932   4.975  1.00  0.00     0.167 HD
HETATM    7  C5  UNL     1      24.769 -12.113   6.364  1.00  0.00     0.134 A 
HETATM    8  N3  UNL     1      23.751 -11.262   6.155  1.00  0.00    -0.339 N 
ATOM      9  H3  UNL     1      23.139 -10.906   6.889  1.00  0.00     0.167 HD
HETATM   10  C9  UNL     1      23.641 -10.945   4.870  1.00  0.00     0.060 A 
HETATM   11  C10 UNL     1      22.750 -10.111   4.186  1.00  0.00     0.032 A 
ENDROOT
BRANCH   7  12
HETATM   12  C6  UNL     1      25.219 -12.706   7.663  1.00  0.00     0.083 A 
HETATM   13  C7  UNL     1      25.276 -14.070   7.835  1.00  0.00     0.084 A 
HETATM   14  S1  UNL     1      25.833 -14.195   9.440  1.00  0.00    -0.094 SA
HETATM   15  C8  UNL     1      25.961 -12.531   9.799  1.00  0.00     0.138 A 
HETATM   16  N2  UNL     1      25.570 -11.966   8.669  1.00  0.00    -0.357 N 
ATOM     17  H2  UNL     1      25.544 -10.949   8.589  1.00  0.00     0.166 HD
ENDBRANCH   7  12
TORSDOF 1
ENDMDL
