MODEL 9
REMARK VINA RESULT: -5.706435930      0.848      1.877
REMARK  1 active torsions:
REMARK  status: ('A' for Active; 'I' for Inactive)
REMARK    1  A    between atoms: C5_7  and  C6_8 
ROOT
HETATM    1  C1  UNL     1      26.988 -14.978   8.661  1.00  0.00     0.002 A 
HETATM    2  C2  UNL     1      25.720 -15.395   9.034  1.00  0.00     0.002 A 
HETATM    3  C3  UNL     1      24.602 -14.720   8.586  1.00  0.00     0.032 A 
HETATM    4  C4  UNL     1      24.741 -13.633   7.771  1.00  0.00     0.060 A 
HETATM    5  N1  UNL     1      23.878 -12.779   7.177  1.00  0.00    -0.339 N 
ATOM      6  H1  UNL     1      22.862 -12.825   7.261  1.00  0.00     0.167 HD
HETATM    7  C5  UNL     1      24.543 -11.863   6.463  1.00  0.00     0.134 A 
HETATM    8  N3  UNL     1      25.843 -12.163   6.623  1.00  0.00    -0.339 N 
ATOM      9  H3  UNL     1      26.610 -11.642   6.197  1.00  0.00     0.167 HD
HETATM   10  C9  UNL     1      26.003 -13.224   7.405  1.00  0.00     0.060 A 
HETATM   11  C10 UNL     1      27.147 -13.895   7.848  1.00  0.00     0.032 A 
ENDROOT
BRANCH   7  12
HETATM   12  C6  UNL     1      23.950 -10.747   5.661  1.00  0.00     0.083 A 
HETATM   13  C7  UNL     1      22.593 -10.521   5.661  1.00  0.00     0.084 A 
HETATM   14  S1  UNL     1      22.463  -9.178   4.620  1.00  0.00    -0.094 SA
HETATM   15  C8  UNL     1      24.118  -8.981   4.248  1.00  0.00     0.138 A 
HETATM   16  N2  UNL     1      24.683  -9.955   4.941  1.00  0.00    -0.357 N 
ATOM     17  H2  UNL     1      25.695 -10.084   4.909  1.00  0.00     0.166 HD
ENDBRANCH   7  12
TORSDOF 1
ENDMDL
