MODEL 19
REMARK VINA RESULT: -4.947238774      6.008      8.154
REMARK  1 active torsions:
REMARK  status: ('A' for Active; 'I' for Inactive)
REMARK    1  A    between atoms: C5_7  and  C6_8 
ROOT
HETATM    1  C1  UNL     1      21.120  -9.853  -0.871  1.00  0.00     0.002 A 
HETATM    2  C2  UNL     1      19.744  -9.761  -1.021  1.00  0.00     0.002 A 
HETATM    3  C3  UNL     1      18.921  -9.723   0.087  1.00  0.00     0.032 A 
HETATM    4  C4  UNL     1      19.460  -9.778   1.341  1.00  0.00     0.060 A 
HETATM    5  N1  UNL     1      18.949  -9.763   2.592  1.00  0.00    -0.339 N 
ATOM      6  H1  UNL     1      17.955  -9.701   2.814  1.00  0.00     0.167 HD
HETATM    7  C5  UNL     1      19.929  -9.842   3.499  1.00  0.00     0.134 A 
HETATM    8  N3  UNL     1      21.067  -9.906   2.787  1.00  0.00    -0.339 N 
ATOM      9  H3  UNL     1      21.999  -9.973   3.198  1.00  0.00     0.167 HD
HETATM   10  C9  UNL     1      20.825  -9.870   1.482  1.00  0.00     0.060 A 
HETATM   11  C10 UNL     1      21.676  -9.908   0.372  1.00  0.00     0.032 A 
ENDROOT
BRANCH   7  12
HETATM   12  C6  UNL     1      19.775  -9.854   4.987  1.00  0.00     0.083 A 
HETATM   13  C7  UNL     1      19.891  -8.695   5.720  1.00  0.00     0.084 A 
HETATM   14  S1  UNL     1      19.636  -9.258   7.307  1.00  0.00    -0.094 SA
HETATM   15  C8  UNL     1      19.398 -10.913   6.958  1.00  0.00     0.138 A 
HETATM   16  N2  UNL     1      19.527 -10.947   5.642  1.00  0.00    -0.357 N 
ATOM     17  H2  UNL     1      19.432 -11.831   5.142  1.00  0.00     0.166 HD
ENDBRANCH   7  12
TORSDOF 1
ENDMDL
