MODEL 10
REMARK VINA RESULT: -5.575165581      1.360      1.979
REMARK  1 active torsions:
REMARK  status: ('A' for Active; 'I' for Inactive)
REMARK    1  A    between atoms: C5_7  and  C6_8 
ROOT
HETATM    1  C1  UNL     1      26.975 -14.011   8.664  1.00  0.00     0.002 A 
HETATM    2  C2  UNL     1      25.822 -13.833   9.414  1.00  0.00     0.002 A 
HETATM    3  C3  UNL     1      24.735 -13.172   8.878  1.00  0.00     0.032 A 
HETATM    4  C4  UNL     1      24.791 -12.688   7.602  1.00  0.00     0.060 A 
HETATM    5  N1  UNL     1      23.929 -12.016   6.806  1.00  0.00    -0.339 N 
ATOM      6  H1  UNL     1      22.986 -11.734   7.077  1.00  0.00     0.167 HD
HETATM    7  C5  UNL     1      24.485 -11.772   5.615  1.00  0.00     0.134 A 
HETATM    8  N3  UNL     1      25.716 -12.306   5.681  1.00  0.00    -0.339 N 
ATOM      9  H3  UNL     1      26.395 -12.283   4.920  1.00  0.00     0.167 HD
HETATM   10  C9  UNL     1      25.937 -12.868   6.864  1.00  0.00     0.060 A 
HETATM   11  C10 UNL     1      27.049 -13.535   7.389  1.00  0.00     0.032 A 
ENDROOT
BRANCH   7  12
HETATM   12  C6  UNL     1      23.856 -11.054   4.461  1.00  0.00     0.083 A 
HETATM   13  C7  UNL     1      24.286 -11.276   3.173  1.00  0.00     0.084 A 
HETATM   14  S1  UNL     1      23.266 -10.239   2.283  1.00  0.00    -0.094 SA
HETATM   15  C8  UNL     1      22.364  -9.592   3.580  1.00  0.00     0.138 A 
HETATM   16  N2  UNL     1      22.891 -10.204   4.627  1.00  0.00    -0.357 N 
ATOM     17  H2  UNL     1      22.539 -10.007   5.564  1.00  0.00     0.166 HD
ENDBRANCH   7  12
TORSDOF 1
ENDMDL
