MODEL 2
REMARK VINA RESULT: -5.886203703      0.100      1.518
REMARK  1 active torsions:
REMARK  status: ('A' for Active; 'I' for Inactive)
REMARK    1  A    between atoms: C5_7  and  C6_8 
ROOT
HETATM    1  C1  UNL     1      27.107 -14.898   8.381  1.00  0.00     0.002 A 
HETATM    2  C2  UNL     1      25.880 -15.370   8.821  1.00  0.00     0.002 A 
HETATM    3  C3  UNL     1      24.714 -14.715   8.476  1.00  0.00     0.032 A 
HETATM    4  C4  UNL     1      24.765 -13.595   7.697  1.00  0.00     0.060 A 
HETATM    5  N1  UNL     1      23.838 -12.747   7.196  1.00  0.00    -0.339 N 
ATOM      6  H1  UNL     1      22.832 -12.830   7.347  1.00  0.00     0.167 HD
HETATM    7  C5  UNL     1      24.424 -11.784   6.476  1.00  0.00     0.134 A 
HETATM    8  N3  UNL     1      25.741 -12.048   6.537  1.00  0.00    -0.339 N 
ATOM      9  H3  UNL     1      26.461 -11.486   6.081  1.00  0.00     0.167 HD
HETATM   10  C9  UNL     1      25.985 -13.132   7.263  1.00  0.00     0.060 A 
HETATM   11  C10 UNL     1      27.177 -13.781   7.602  1.00  0.00     0.032 A 
ENDROOT
BRANCH   7  12
HETATM   12  C6  UNL     1      23.745 -10.659   5.761  1.00  0.00     0.083 A 
HETATM   13  C7  UNL     1      24.474  -9.705   5.090  1.00  0.00     0.084 A 
HETATM   14  S1  UNL     1      23.247  -8.694   4.478  1.00  0.00    -0.094 SA
HETATM   15  C8  UNL     1      21.893  -9.529   5.098  1.00  0.00     0.138 A 
HETATM   16  N2  UNL     1      22.453 -10.539   5.743  1.00  0.00    -0.357 N 
ATOM     17  H2  UNL     1      21.870 -11.223   6.226  1.00  0.00     0.166 HD
ENDBRANCH   7  12
TORSDOF 1
ENDMDL
