MODEL 7
REMARK VINA RESULT: -5.772787776      0.846      1.105
REMARK  1 active torsions:
REMARK  status: ('A' for Active; 'I' for Inactive)
REMARK    1  A    between atoms: C5_7  and  C6_8 
ROOT
HETATM    1  C1  UNL     1      25.700 -15.328   8.935  1.00  0.00     0.002 A 
HETATM    2  C2  UNL     1      26.966 -14.952   8.511  1.00  0.00     0.002 A 
HETATM    3  C3  UNL     1      27.130 -13.865   7.676  1.00  0.00     0.032 A 
HETATM    4  C4  UNL     1      26.041 -13.152   7.261  1.00  0.00     0.060 A 
HETATM    5  N1  UNL     1      25.864 -12.071   6.469  1.00  0.00    -0.339 N 
ATOM      6  H1  UNL     1      26.615 -11.562   6.002  1.00  0.00     0.167 HD
HETATM    7  C5  UNL     1      24.565 -11.762   6.382  1.00  0.00     0.134 A 
HETATM    8  N3  UNL     1      23.932 -12.675   7.138  1.00  0.00    -0.339 N 
ATOM      9  H3  UNL     1      22.921 -12.707   7.275  1.00  0.00     0.167 HD
HETATM   10  C9  UNL     1      24.788 -13.529   7.685  1.00  0.00     0.060 A 
HETATM   11  C10 UNL     1      24.601 -14.627   8.532  1.00  0.00     0.032 A 
ENDROOT
BRANCH   7  12
HETATM   12  C6  UNL     1      23.961 -10.636   5.603  1.00  0.00     0.083 A 
HETATM   13  C7  UNL     1      22.606 -10.401   5.637  1.00  0.00     0.084 A 
HETATM   14  S1  UNL     1      22.461  -9.049   4.610  1.00  0.00    -0.094 SA
HETATM   15  C8  UNL     1      24.108  -8.861   4.200  1.00  0.00     0.138 A 
HETATM   16  N2  UNL     1      24.682  -9.844   4.872  1.00  0.00    -0.357 N 
ATOM     17  H2  UNL     1      25.692  -9.979   4.816  1.00  0.00     0.166 HD
ENDBRANCH   7  12
TORSDOF 1
ENDMDL
