MODEL 17
REMARK VINA RESULT: -5.079648503      5.842      7.933
REMARK  1 active torsions:
REMARK  status: ('A' for Active; 'I' for Inactive)
REMARK    1  A    between atoms: C5_7  and  C6_8 
ROOT
HETATM    1  C1  UNL     1      19.857  -9.889  -0.852  1.00  0.00     0.002 A 
HETATM    2  C2  UNL     1      21.223 -10.022  -0.650  1.00  0.00     0.002 A 
HETATM    3  C3  UNL     1      21.744 -10.026   0.629  1.00  0.00     0.032 A 
HETATM    4  C4  UNL     1      20.913  -9.898   1.705  1.00  0.00     0.060 A 
HETATM    5  N1  UNL     1      21.097  -9.865   3.044  1.00  0.00    -0.339 N 
ATOM      6  H1  UNL     1      22.002  -9.941   3.509  1.00  0.00     0.167 HD
HETATM    7  C5  UNL     1      19.926  -9.719   3.674  1.00  0.00     0.134 A 
HETATM    8  N3  UNL     1      19.003  -9.661   2.699  1.00  0.00    -0.339 N 
ATOM      9  H3  UNL     1      18.002  -9.551   2.861  1.00  0.00     0.167 HD
HETATM   10  C9  UNL     1      19.559  -9.766   1.498  1.00  0.00     0.060 A 
HETATM   11  C10 UNL     1      19.012  -9.760   0.211  1.00  0.00     0.032 A 
ENDROOT
BRANCH   7  12
HETATM   12  C6  UNL     1      19.707  -9.639   5.152  1.00  0.00     0.083 A 
HETATM   13  C7  UNL     1      20.152 -10.638   5.988  1.00  0.00     0.084 A 
HETATM   14  S1  UNL     1      19.657 -10.062   7.513  1.00  0.00    -0.094 SA
HETATM   15  C8  UNL     1      18.923  -8.604   7.012  1.00  0.00     0.138 A 
HETATM   16  N2  UNL     1      19.095  -8.635   5.701  1.00  0.00    -0.357 N 
ATOM     17  H2  UNL     1      18.748  -7.870   5.123  1.00  0.00     0.166 HD
ENDBRANCH   7  12
TORSDOF 1
ENDMDL
