MODEL 1
REMARK VINA RESULT: -5.889424897      0.000      0.000
REMARK  1 active torsions:
REMARK  status: ('A' for Active; 'I' for Inactive)
REMARK    1  A    between atoms: C5_7  and  C6_8 
ROOT
HETATM    1  C1  UNL     1      25.751 -15.355   8.881  1.00  0.00     0.002 A 
HETATM    2  C2  UNL     1      26.997 -14.924   8.451  1.00  0.00     0.002 A 
HETATM    3  C3  UNL     1      27.111 -13.811   7.643  1.00  0.00     0.032 A 
HETATM    4  C4  UNL     1      25.993 -13.126   7.260  1.00  0.00     0.060 A 
HETATM    5  N1  UNL     1      25.766 -12.033   6.499  1.00  0.00    -0.339 N 
ATOM      6  H1  UNL     1      26.493 -11.485   6.036  1.00  0.00     0.167 HD
HETATM    7  C5  UNL     1      24.456 -11.769   6.436  1.00  0.00     0.134 A 
HETATM    8  N3  UNL     1      23.866 -12.723   7.176  1.00  0.00    -0.339 N 
ATOM      9  H3  UNL     1      22.859 -12.794   7.325  1.00  0.00     0.167 HD
HETATM   10  C9  UNL     1      24.760 -13.560   7.690  1.00  0.00     0.060 A 
HETATM   11  C10 UNL     1      24.624 -14.685   8.510  1.00  0.00     0.032 A 
ENDROOT
BRANCH   7  12
HETATM   12  C6  UNL     1      23.802 -10.646   5.695  1.00  0.00     0.083 A 
HETATM   13  C7  UNL     1      24.552  -9.736   4.985  1.00  0.00     0.084 A 
HETATM   14  S1  UNL     1      23.348  -8.706   4.357  1.00  0.00    -0.094 SA
HETATM   15  C8  UNL     1      21.978  -9.479   5.021  1.00  0.00     0.138 A 
HETATM   16  N2  UNL     1      22.514 -10.485   5.690  1.00  0.00    -0.357 N 
ATOM     17  H2  UNL     1      21.917 -11.134   6.202  1.00  0.00     0.166 HD
ENDBRANCH   7  12
TORSDOF 1
ENDMDL
