MODEL 6
REMARK VINA RESULT: -6.492935733      2.890      5.197
REMARK  5 active torsions:
REMARK  status: ('A' for Active; 'I' for Inactive)
REMARK    1  A    between atoms: C2_2  and  N1_4 
REMARK       I    between atoms: N1_4  and  C4_5 
REMARK    2  A    between atoms: N1_4  and  C11_15 
REMARK    3  A    between atoms: C4_5  and  C5_7 
REMARK    4  A    between atoms: C13_17  and  C14_18 
REMARK    5  A    between atoms: C20_25  and  C21_26 
ROOT
HETATM    1  C11 UNL     1      27.219  59.910   4.976  1.00  0.00     0.063 A 
HETATM    2  C12 UNL     1      27.825  59.311   3.919  1.00  0.00     0.051 A 
HETATM    3  C13 UNL     1      27.381  59.617   2.670  1.00  0.00     0.018 A 
HETATM    4  S1  UNL     1      26.132  60.728   2.968  1.00  0.00    -0.080 SA
HETATM    5  C20 UNL     1      26.207  60.778   4.705  1.00  0.00     0.109 A 
ENDROOT
BRANCH   1   6
HETATM    6  N1  UNL     1      27.701  59.599   6.313  1.00  0.00    -0.308 N 
HETATM    7  C4  UNL     1      28.997  60.089   6.664  1.00  0.00     0.260 C 
HETATM    8  O1  UNL     1      29.417  59.843   7.832  1.00  0.00    -0.267 OA
BRANCH   6   9
HETATM    9  C2  UNL     1      26.977  58.775   7.222  1.00  0.00     0.085 C 
HETATM   10  C1  UNL     1      26.278  59.474   8.355  1.00  0.00     0.032 C 
HETATM   11  C3  UNL     1      25.995  57.849   6.496  1.00  0.00     0.032 C 
ENDBRANCH   6   9
BRANCH   7  12
HETATM   12  C5  UNL     1      29.850  60.831   5.777  1.00  0.00     0.054 A 
HETATM   13  C6  UNL     1      29.694  62.207   5.612  1.00  0.00     0.020 A 
HETATM   14  C7  UNL     1      30.495  62.973   4.816  1.00  0.00     0.025 A 
HETATM   15  C8  UNL     1      31.531  62.368   4.120  1.00  0.00     0.035 A 
HETATM   16 CL1  UNL     1      32.609  63.300   3.072  1.00  0.00    -0.084 Cl
HETATM   17  C9  UNL     1      31.703  61.011   4.268  1.00  0.00     0.048 A 
HETATM   18  C10 UNL     1      30.870  60.235   5.091  1.00  0.00     0.051 A 
HETATM   19 CL2  UNL     1      31.191  58.521   5.142  1.00  0.00    -0.083 Cl
ENDBRANCH   7  12
ENDBRANCH   1   6
BRANCH   5  20
HETATM   20  C21 UNL     1      25.348  61.608   5.546  1.00  0.00     0.218 C 
HETATM   21  O2  UNL     1      24.295  61.245   6.070  1.00  0.00    -0.643 OA
HETATM   22  O3  UNL     1      25.741  62.922   5.785  1.00  0.00    -0.643 OA
ENDBRANCH   5  20
BRANCH   3  23
HETATM   23  C14 UNL     1      27.898  59.102   1.382  1.00  0.00    -0.019 A 
HETATM   24  C15 UNL     1      27.238  59.413   0.223  1.00  0.00     0.013 A 
HETATM   25  C16 UNL     1      27.691  58.956  -1.012  1.00  0.00     0.001 A 
HETATM   26  C17 UNL     1      28.841  58.167  -1.048  1.00  0.00     0.000 A 
HETATM   27  C18 UNL     1      29.489  57.866   0.114  1.00  0.00     0.001 A 
HETATM   28  C19 UNL     1      29.026  58.328   1.344  1.00  0.00     0.013 A 
ENDBRANCH   3  23
TORSDOF 5
ENDMDL
