MODEL 2
REMARK VINA RESULT: -7.089171069      1.976      2.328
REMARK  5 active torsions:
REMARK  status: ('A' for Active; 'I' for Inactive)
REMARK    1  A    between atoms: C2_2  and  N1_4 
REMARK       I    between atoms: N1_4  and  C4_5 
REMARK    2  A    between atoms: N1_4  and  C11_15 
REMARK    3  A    between atoms: C4_5  and  C5_7 
REMARK    4  A    between atoms: C13_17  and  C14_18 
REMARK    5  A    between atoms: C20_25  and  C21_26 
ROOT
HETATM    1  C11 UNL     1      27.660  62.033   6.076  1.00  0.00     0.063 A 
HETATM    2  C12 UNL     1      26.963  62.190   4.922  1.00  0.00     0.051 A 
HETATM    3  C13 UNL     1      27.433  61.575   3.803  1.00  0.00     0.018 A 
HETATM    4  S1  UNL     1      28.832  60.789   4.355  1.00  0.00    -0.080 SA
HETATM    5  C20 UNL     1      28.784  61.268   6.027  1.00  0.00     0.109 A 
ENDROOT
BRANCH   1   6
HETATM    6  N1  UNL     1      27.152  62.674   7.279  1.00  0.00    -0.308 N 
HETATM    7  C4  UNL     1      26.452  61.845   8.209  1.00  0.00     0.260 C 
HETATM    8  O1  UNL     1      26.025  62.388   9.269  1.00  0.00    -0.267 OA
BRANCH   6   9
HETATM    9  C2  UNL     1      27.258  64.077   7.509  1.00  0.00     0.085 C 
HETATM   10  C1  UNL     1      28.551  64.730   7.109  1.00  0.00     0.032 C 
HETATM   11  C3  UNL     1      26.076  64.845   6.905  1.00  0.00     0.032 C 
ENDBRANCH   6   9
BRANCH   7  12
HETATM   12  C5  UNL     1      26.196  60.445   8.011  1.00  0.00     0.054 A 
HETATM   13  C6  UNL     1      26.891  59.478   8.736  1.00  0.00     0.020 A 
HETATM   14  C7  UNL     1      26.667  58.136   8.623  1.00  0.00     0.025 A 
HETATM   15  C8  UNL     1      25.696  57.686   7.741  1.00  0.00     0.035 A 
HETATM   16 CL1  UNL     1      25.351  55.962   7.545  1.00  0.00    -0.084 Cl
HETATM   17  C9  UNL     1      24.998  58.624   7.016  1.00  0.00     0.048 A 
HETATM   18  C10 UNL     1      25.240  60.002   7.142  1.00  0.00     0.051 A 
HETATM   19 CL2  UNL     1      24.300  61.062   6.124  1.00  0.00    -0.083 Cl
ENDBRANCH   7  12
ENDBRANCH   1   6
BRANCH   5  20
HETATM   20  C21 UNL     1      29.762  60.861   7.032  1.00  0.00     0.218 C 
HETATM   21  O2  UNL     1      30.340  61.617   7.814  1.00  0.00    -0.643 OA
HETATM   22  O3  UNL     1      30.077  59.509   7.128  1.00  0.00    -0.643 OA
ENDBRANCH   5  20
BRANCH   3  23
HETATM   23  C14 UNL     1      26.832  61.594   2.450  1.00  0.00    -0.019 A 
HETATM   24  C15 UNL     1      26.845  62.758   1.728  1.00  0.00     0.013 A 
HETATM   25  C16 UNL     1      26.298  62.822   0.449  1.00  0.00     0.001 A 
HETATM   26  C17 UNL     1      25.731  61.667  -0.090  1.00  0.00     0.000 A 
HETATM   27  C18 UNL     1      25.726  60.514   0.640  1.00  0.00     0.001 A 
HETATM   28  C19 UNL     1      26.276  60.463   1.919  1.00  0.00     0.013 A 
ENDBRANCH   3  23
TORSDOF 5
ENDMDL
