MODEL 4
REMARK VINA RESULT: -6.735012839      2.918      4.744
REMARK  5 active torsions:
REMARK  status: ('A' for Active; 'I' for Inactive)
REMARK    1  A    between atoms: C2_2  and  N1_4 
REMARK       I    between atoms: N1_4  and  C4_5 
REMARK    2  A    between atoms: N1_4  and  C11_15 
REMARK    3  A    between atoms: C4_5  and  C5_7 
REMARK    4  A    between atoms: C13_17  and  C14_18 
REMARK    5  A    between atoms: C20_25  and  C21_26 
ROOT
HETATM    1  C11 UNL     1      27.104  60.098   4.839  1.00  0.00     0.063 A 
HETATM    2  C12 UNL     1      27.529  59.336   3.799  1.00  0.00     0.051 A 
HETATM    3  C13 UNL     1      27.648  59.928   2.581  1.00  0.00     0.018 A 
HETATM    4  S1  UNL     1      27.172  61.529   2.882  1.00  0.00    -0.080 SA
HETATM    5  C20 UNL     1      26.827  61.405   4.582  1.00  0.00     0.109 A 
ENDROOT
BRANCH   1   6
HETATM    6  N1  UNL     1      26.991  59.474   6.149  1.00  0.00    -0.308 N 
HETATM    7  C4  UNL     1      28.204  59.272   6.877  1.00  0.00     0.260 C 
HETATM    8  O1  UNL     1      28.115  58.750   8.026  1.00  0.00    -0.267 OA
BRANCH   6   9
HETATM    9  C2  UNL     1      25.754  58.997   6.673  1.00  0.00     0.085 C 
HETATM   10  C1  UNL     1      25.679  57.532   6.998  1.00  0.00     0.032 C 
HETATM   11  C3  UNL     1      25.288  59.823   7.877  1.00  0.00     0.032 C 
ENDBRANCH   6   9
BRANCH   7  12
HETATM   12  C5  UNL     1      29.510  59.614   6.385  1.00  0.00     0.054 A 
HETATM   13  C6  UNL     1      30.239  58.722   5.599  1.00  0.00     0.020 A 
HETATM   14  C7  UNL     1      31.466  59.002   5.070  1.00  0.00     0.025 A 
HETATM   15  C8  UNL     1      32.039  60.241   5.316  1.00  0.00     0.035 A 
HETATM   16 CL1  UNL     1      33.625  60.672   4.660  1.00  0.00    -0.084 Cl
HETATM   17  C9  UNL     1      31.337  61.136   6.089  1.00  0.00     0.048 A 
HETATM   18  C10 UNL     1      30.075  60.834   6.628  1.00  0.00     0.051 A 
HETATM   19 CL2  UNL     1      29.330  62.059   7.621  1.00  0.00    -0.083 Cl
ENDBRANCH   7  12
ENDBRANCH   1   6
BRANCH   5  20
HETATM   20  C21 UNL     1      26.378  62.516   5.418  1.00  0.00     0.218 C 
HETATM   21  O2  UNL     1      25.276  62.601   5.962  1.00  0.00    -0.643 OA
HETATM   22  O3  UNL     1      27.258  63.573   5.628  1.00  0.00    -0.643 OA
ENDBRANCH   5  20
BRANCH   3  23
HETATM   23  C14 UNL     1      28.105  59.300   1.319  1.00  0.00    -0.019 A 
HETATM   24  C15 UNL     1      27.428  59.563   0.158  1.00  0.00     0.013 A 
HETATM   25  C16 UNL     1      27.825  59.001  -1.053  1.00  0.00     0.001 A 
HETATM   26  C17 UNL     1      28.935  58.156  -1.062  1.00  0.00     0.000 A 
HETATM   27  C18 UNL     1      29.600  57.905   0.102  1.00  0.00     0.001 A 
HETATM   28  C19 UNL     1      29.194  58.472   1.308  1.00  0.00     0.013 A 
ENDBRANCH   3  23
TORSDOF 5
ENDMDL
