MODEL 9
REMARK VINA RESULT: -6.368681951      3.144      6.324
REMARK  5 active torsions:
REMARK  status: ('A' for Active; 'I' for Inactive)
REMARK    1  A    between atoms: C2_2  and  N1_4 
REMARK       I    between atoms: N1_4  and  C4_5 
REMARK    2  A    between atoms: N1_4  and  C11_15 
REMARK    3  A    between atoms: C4_5  and  C5_7 
REMARK    4  A    between atoms: C13_17  and  C14_18 
REMARK    5  A    between atoms: C20_25  and  C21_26 
ROOT
HETATM    1  C11 UNL     1      28.100  62.374   7.492  1.00  0.00     0.063 A 
HETATM    2  C12 UNL     1      28.436  62.434   8.806  1.00  0.00     0.051 A 
HETATM    3  C13 UNL     1      27.479  62.816   9.694  1.00  0.00     0.018 A 
HETATM    4  S1  UNL     1      26.125  63.088   8.707  1.00  0.00    -0.080 SA
HETATM    5  C20 UNL     1      26.822  62.702   7.160  1.00  0.00     0.109 A 
ENDROOT
BRANCH   1   6
HETATM    6  N1  UNL     1      29.115  61.950   6.540  1.00  0.00    -0.308 N 
HETATM    7  C4  UNL     1      29.049  60.598   6.081  1.00  0.00     0.260 C 
HETATM    8  O1  UNL     1      29.914  60.226   5.237  1.00  0.00    -0.267 OA
BRANCH   6   9
HETATM    9  C2  UNL     1      30.189  62.793   6.131  1.00  0.00     0.085 C 
HETATM   10  C1  UNL     1      29.863  64.245   5.919  1.00  0.00     0.032 C 
HETATM   11  C3  UNL     1      31.404  62.661   7.056  1.00  0.00     0.032 C 
ENDBRANCH   6   9
BRANCH   7  12
HETATM   12  C5  UNL     1      28.073  59.640   6.523  1.00  0.00     0.054 A 
HETATM   13  C6  UNL     1      28.114  59.115   7.814  1.00  0.00     0.020 A 
HETATM   14  C7  UNL     1      27.196  58.233   8.306  1.00  0.00     0.025 A 
HETATM   15  C8  UNL     1      26.152  57.822   7.491  1.00  0.00     0.035 A 
HETATM   16 CL1  UNL     1      24.925  56.682   8.063  1.00  0.00    -0.084 Cl
HETATM   17  C9  UNL     1      26.092  58.328   6.213  1.00  0.00     0.048 A 
HETATM   18  C10 UNL     1      27.046  59.235   5.720  1.00  0.00     0.051 A 
HETATM   19 CL2  UNL     1      26.856  59.753   4.066  1.00  0.00    -0.083 Cl
ENDBRANCH   7  12
ENDBRANCH   1   6
BRANCH   5  20
HETATM   20  C21 UNL     1      26.096  62.740   5.893  1.00  0.00     0.218 C 
HETATM   21  O2  UNL     1      26.474  63.311   4.870  1.00  0.00    -0.643 OA
HETATM   22  O3  UNL     1      24.872  62.080   5.822  1.00  0.00    -0.643 OA
ENDBRANCH   5  20
BRANCH   3  23
HETATM   23  C14 UNL     1      27.615  62.935  11.164  1.00  0.00    -0.019 A 
HETATM   24  C15 UNL     1      27.059  61.975  11.968  1.00  0.00     0.013 A 
HETATM   25  C16 UNL     1      27.167  62.042  13.354  1.00  0.00     0.001 A 
HETATM   26  C17 UNL     1      27.858  63.116  13.917  1.00  0.00     0.000 A 
HETATM   27  C18 UNL     1      28.407  64.064  13.104  1.00  0.00     0.001 A 
HETATM   28  C19 UNL     1      28.293  63.987  11.717  1.00  0.00     0.013 A 
ENDBRANCH   3  23
TORSDOF 5
ENDMDL
