MODEL 5
REMARK VINA RESULT: -6.628429222      2.305      2.815
REMARK  5 active torsions:
REMARK  status: ('A' for Active; 'I' for Inactive)
REMARK    1  A    between atoms: C2_2  and  N1_4 
REMARK       I    between atoms: N1_4  and  C4_5 
REMARK    2  A    between atoms: N1_4  and  C11_15 
REMARK    3  A    between atoms: C4_5  and  C5_7 
REMARK    4  A    between atoms: C13_17  and  C14_18 
REMARK    5  A    between atoms: C20_25  and  C21_26 
ROOT
HETATM    1  C11 UNL     1      28.884  61.599   5.425  1.00  0.00     0.063 A 
HETATM    2  C12 UNL     1      27.934  61.902   4.503  1.00  0.00     0.051 A 
HETATM    3  C13 UNL     1      27.924  61.196   3.341  1.00  0.00     0.018 A 
HETATM    4  S1  UNL     1      29.225  60.122   3.532  1.00  0.00    -0.080 SA
HETATM    5  C20 UNL     1      29.759  60.604   5.115  1.00  0.00     0.109 A 
ENDROOT
BRANCH   1   6
HETATM    6  N1  UNL     1      28.889  62.340   6.677  1.00  0.00    -0.308 N 
HETATM    7  C4  UNL     1      28.126  61.794   7.756  1.00  0.00     0.260 C 
HETATM    8  O1  UNL     1      28.141  62.418   8.856  1.00  0.00    -0.267 OA
BRANCH   6   9
HETATM    9  C2  UNL     1      29.543  63.597   6.828  1.00  0.00     0.085 C 
HETATM   10  C1  UNL     1      30.850  63.767   6.105  1.00  0.00     0.032 C 
HETATM   11  C3  UNL     1      28.610  64.769   6.502  1.00  0.00     0.032 C 
ENDBRANCH   6   9
BRANCH   7  12
HETATM   12  C5  UNL     1      27.342  60.593   7.666  1.00  0.00     0.054 A 
HETATM   13  C6  UNL     1      27.875  59.357   8.030  1.00  0.00     0.020 A 
HETATM   14  C7  UNL     1      27.171  58.188   8.005  1.00  0.00     0.025 A 
HETATM   15  C8  UNL     1      25.846  58.208   7.596  1.00  0.00     0.035 A 
HETATM   16 CL1  UNL     1      24.873  56.731   7.541  1.00  0.00    -0.084 Cl
HETATM   17  C9  UNL     1      25.299  59.417   7.232  1.00  0.00     0.048 A 
HETATM   18  C10 UNL     1      26.037  60.612   7.263  1.00  0.00     0.051 A 
HETATM   19 CL2  UNL     1      25.215  62.057   6.732  1.00  0.00    -0.083 Cl
ENDBRANCH   7  12
ENDBRANCH   1   6
BRANCH   5  20
HETATM   20  C21 UNL     1      30.876  59.995   5.833  1.00  0.00     0.218 C 
HETATM   21  O2  UNL     1      30.803  59.002   6.557  1.00  0.00    -0.643 OA
HETATM   22  O3  UNL     1      32.134  60.574   5.696  1.00  0.00    -0.643 OA
ENDBRANCH   5  20
BRANCH   3  23
HETATM   23  C14 UNL     1      26.979  61.343   2.210  1.00  0.00    -0.019 A 
HETATM   24  C15 UNL     1      26.717  62.593   1.715  1.00  0.00     0.013 A 
HETATM   25  C16 UNL     1      25.841  62.779   0.649  1.00  0.00     0.001 A 
HETATM   26  C17 UNL     1      25.228  61.659   0.088  1.00  0.00     0.000 A 
HETATM   27  C18 UNL     1      25.500  60.420   0.591  1.00  0.00     0.001 A 
HETATM   28  C19 UNL     1      26.378  60.245   1.658  1.00  0.00     0.013 A 
ENDBRANCH   3  23
TORSDOF 5
ENDMDL
