MODEL 1
REMARK VINA RESULT: -7.215311122      0.000      0.000
REMARK  5 active torsions:
REMARK  status: ('A' for Active; 'I' for Inactive)
REMARK    1  A    between atoms: C2_2  and  N1_4 
REMARK       I    between atoms: N1_4  and  C4_5 
REMARK    2  A    between atoms: N1_4  and  C11_15 
REMARK    3  A    between atoms: C4_5  and  C5_7 
REMARK    4  A    between atoms: C13_17  and  C14_18 
REMARK    5  A    between atoms: C20_25  and  C21_26 
ROOT
HETATM    1  C11 UNL     1      28.169  61.865   5.982  1.00  0.00     0.063 A 
HETATM    2  C12 UNL     1      27.982  61.247   4.788  1.00  0.00     0.051 A 
HETATM    3  C13 UNL     1      28.991  60.476   4.302  1.00  0.00     0.018 A 
HETATM    4  S1  UNL     1      30.188  60.610   5.498  1.00  0.00    -0.080 SA
HETATM    5  C20 UNL     1      29.361  61.663   6.608  1.00  0.00     0.109 A 
ENDROOT
BRANCH   1   6
HETATM    6  N1  UNL     1      27.086  62.678   6.514  1.00  0.00    -0.308 N 
HETATM    7  C4  UNL     1      26.028  61.989   7.184  1.00  0.00     0.260 C 
HETATM    8  O1  UNL     1      25.092  62.688   7.670  1.00  0.00    -0.267 OA
BRANCH   6   9
HETATM    9  C2  UNL     1      27.012  64.088   6.319  1.00  0.00     0.085 C 
HETATM   10  C1  UNL     1      27.662  64.948   7.366  1.00  0.00     0.032 C 
HETATM   11  C3  UNL     1      27.505  64.498   4.927  1.00  0.00     0.032 C 
ENDBRANCH   6   9
BRANCH   7  12
HETATM   12  C5  UNL     1      25.957  60.561   7.331  1.00  0.00     0.054 A 
HETATM   13  C6  UNL     1      26.532  59.922   8.429  1.00  0.00     0.020 A 
HETATM   14  C7  UNL     1      26.465  58.576   8.646  1.00  0.00     0.025 A 
HETATM   15  C8  UNL     1      25.792  57.779   7.734  1.00  0.00     0.035 A 
HETATM   16 CL1  UNL     1      25.664  56.027   7.953  1.00  0.00    -0.084 Cl
HETATM   17  C9  UNL     1      25.217  58.389   6.642  1.00  0.00     0.048 A 
HETATM   18  C10 UNL     1      25.295  59.776   6.432  1.00  0.00     0.051 A 
HETATM   19 CL2  UNL     1      24.551  60.393   4.980  1.00  0.00    -0.083 Cl
ENDBRANCH   7  12
ENDBRANCH   1   6
BRANCH   5  20
HETATM   20  C21 UNL     1      29.914  62.126   7.878  1.00  0.00     0.218 C 
HETATM   21  O2  UNL     1      29.257  62.489   8.854  1.00  0.00    -0.643 OA
HETATM   22  O3  UNL     1      31.299  62.166   8.010  1.00  0.00    -0.643 OA
ENDBRANCH   5  20
BRANCH   3  23
HETATM   23  C14 UNL     1      29.001  59.703   3.039  1.00  0.00    -0.019 A 
HETATM   24  C15 UNL     1      27.897  58.969   2.694  1.00  0.00     0.013 A 
HETATM   25  C16 UNL     1      27.858  58.232   1.514  1.00  0.00     0.001 A 
HETATM   26  C17 UNL     1      28.976  58.254   0.679  1.00  0.00     0.000 A 
HETATM   27  C18 UNL     1      30.068  58.990   1.035  1.00  0.00     0.001 A 
HETATM   28  C19 UNL     1      30.096  59.723   2.219  1.00  0.00     0.013 A 
ENDBRANCH   3  23
TORSDOF 5
ENDMDL
