MODEL 11
REMARK VINA RESULT: -8.986125882      2.855      6.960
REMARK  6 active torsions:
REMARK  status: ('A' for Active; 'I' for Inactive)
REMARK    1  A    between atoms: C2_2  and  N1_3 
REMARK    2  A    between atoms: C2_2  and  C22_34 
REMARK    3  A    between atoms: N1_3  and  C3_5 
REMARK    4  A    between atoms: C6_10  and  C7_11 
REMARK    5  A    between atoms: C8_12  and  C9_13 
REMARK    6  A    between atoms: N3_22  and  C16_23 
ROOT
HETATM    1  C7  UNL     1       2.278  -1.297  20.839  1.00  0.00     0.094 A 
HETATM    2  C8  UNL     1       2.921  -2.046  19.872  1.00  0.00     0.074 A 
HETATM    3  C15 UNL     1       2.474  -3.347  20.031  1.00  0.00     0.276 A 
HETATM    4  O1  UNL     1       2.846  -4.315  19.319  1.00  0.00    -0.266 OA
HETATM    5  N3  UNL     1       1.606  -3.355  21.052  1.00  0.00    -0.250 N 
HETATM    6  N5  UNL     1       1.494  -2.123  21.532  1.00  0.00    -0.288 N 
HETATM    7  C21 UNL     1       0.643  -1.700  22.656  1.00  0.00     0.178 C 
ENDROOT
BRANCH   1   8
HETATM    8  C6  UNL     1       2.475   0.135  21.009  1.00  0.00     0.080 A 
HETATM    9  C5  UNL     1       2.208   0.958  19.937  1.00  0.00     0.050 A 
HETATM   10  C4  UNL     1       2.394   2.311  20.106  1.00  0.00     0.108 A 
HETATM   11  N2  UNL     1       2.821   2.788  21.281  1.00  0.00    -0.202 N 
HETATM   12  C3  UNL     1       3.090   1.990  22.353  1.00  0.00     0.679 A 
ATOM     13  H2  UNL     1       2.950   3.795  21.379  1.00  0.00     0.183 HD
HETATM   14  N6  UNL     1       2.902   0.677  22.165  1.00  0.00    -0.190 N 
ATOM     15  H6  UNL     1       3.094   0.049  22.946  1.00  0.00     0.184 HD
BRANCH  12  16
HETATM   16  N1  UNL     1       3.530   2.577  23.569  1.00  0.00    -0.218 N 
ATOM     17  H1  UNL     1       3.895   3.529  23.581  1.00  0.00     0.178 HD
BRANCH  16  18
HETATM   18  C2  UNL     1       3.453   1.810  24.786  1.00  0.00     0.128 C 
HETATM   19  C1  UNL     1       3.863   2.698  25.939  1.00  0.00     0.038 C 
BRANCH  18  20
HETATM   20  C22 UNL     1       2.098   1.291  25.043  1.00  0.00    -0.035 A 
HETATM   21  C23 UNL     1       0.981   1.913  24.540  1.00  0.00     0.009 A 
HETATM   22  C24 UNL     1      -0.289   1.399  24.792  1.00  0.00     0.001 A 
HETATM   23  C25 UNL     1      -0.425   0.257  25.554  1.00  0.00     0.000 A 
HETATM   24  C26 UNL     1       0.689  -0.373  26.062  1.00  0.00     0.001 A 
HETATM   25  C27 UNL     1       1.947   0.155  25.798  1.00  0.00     0.009 A 
ENDBRANCH  18  20
ENDBRANCH  16  18
ENDBRANCH  12  16
ENDBRANCH   1   8
BRANCH   2  26
HETATM   26  C9  UNL     1       3.872  -1.523  18.898  1.00  0.00    -0.018 A 
HETATM   27  C10 UNL     1       3.573  -1.519  17.560  1.00  0.00     0.015 A 
HETATM   28  C11 UNL     1       4.474  -1.028  16.670  1.00  0.00     0.043 A 
HETATM   29  C12 UNL     1       5.710  -0.520  17.054  1.00  0.00     0.116 A 
HETATM   30  F1  UNL     1       6.573  -0.042  16.122  1.00  0.00    -0.206 F 
HETATM   31  C13 UNL     1       5.996  -0.532  18.404  1.00  0.00     0.043 A 
HETATM   32  C14 UNL     1       5.092  -1.027  19.320  1.00  0.00     0.015 A 
ENDBRANCH   2  26
BRANCH   5  33
HETATM   33  C16 UNL     1       0.891  -4.462  21.584  1.00  0.00     0.115 C 
HETATM   34  C17 UNL     1      -0.332  -4.846  20.795  1.00  0.00     0.046 C 
HETATM   35  C18 UNL     1      -1.112  -5.829  21.616  1.00  0.00     0.115 C 
HETATM   36  N4  UNL     1      -0.357  -6.928  22.114  1.00  0.00    -0.421 N 
HETATM   37  C19 UNL     1       0.901  -6.603  22.701  1.00  0.00     0.115 C 
ATOM     38  H4  UNL     1      -0.696  -7.887  22.054  1.00  0.00     0.153 HD
HETATM   39  C20 UNL     1       1.719  -5.718  21.753  1.00  0.00     0.046 C 
ENDBRANCH   5  33
TORSDOF 6
ENDMDL
