MODEL 3
REMARK VINA RESULT: -9.322477902      2.215      3.817
REMARK  6 active torsions:
REMARK  status: ('A' for Active; 'I' for Inactive)
REMARK    1  A    between atoms: C2_2  and  N1_3 
REMARK    2  A    between atoms: C2_2  and  C22_34 
REMARK    3  A    between atoms: N1_3  and  C3_5 
REMARK    4  A    between atoms: C6_10  and  C7_11 
REMARK    5  A    between atoms: C8_12  and  C9_13 
REMARK    6  A    between atoms: N3_22  and  C16_23 
ROOT
HETATM    1  C7  UNL     1       1.004  -1.559  23.978  1.00  0.00     0.094 A 
HETATM    2  C8  UNL     1       1.358  -0.225  24.062  1.00  0.00     0.074 A 
HETATM    3  C15 UNL     1       1.233   0.124  25.397  1.00  0.00     0.276 A 
HETATM    4  O1  UNL     1       1.475   1.270  25.854  1.00  0.00    -0.266 OA
HETATM    5  N3  UNL     1       0.821  -0.964  26.063  1.00  0.00    -0.250 N 
HETATM    6  N5  UNL     1       0.685  -1.968  25.205  1.00  0.00    -0.288 N 
HETATM    7  C21 UNL     1       0.252  -3.337  25.529  1.00  0.00     0.178 C 
ENDROOT
BRANCH   1   8
HETATM    8  C6  UNL     1       1.002  -2.312  22.733  1.00  0.00     0.080 A 
HETATM    9  C5  UNL     1      -0.087  -3.110  22.459  1.00  0.00     0.050 A 
HETATM   10  C4  UNL     1      -0.083  -3.817  21.278  1.00  0.00     0.108 A 
HETATM   11  N2  UNL     1       0.955  -3.717  20.440  1.00  0.00    -0.202 N 
HETATM   12  C3  UNL     1       2.041  -2.932  20.692  1.00  0.00     0.679 A 
ATOM     13  H2  UNL     1       0.932  -4.251  19.572  1.00  0.00     0.183 HD
HETATM   14  N6  UNL     1       2.014  -2.254  21.848  1.00  0.00    -0.190 N 
ATOM     15  H6  UNL     1       2.811  -1.657  22.071  1.00  0.00     0.184 HD
BRANCH  12  16
HETATM   16  N1  UNL     1       3.097  -2.874  19.746  1.00  0.00    -0.218 N 
ATOM     17  H1  UNL     1       3.956  -3.403  19.896  1.00  0.00     0.178 HD
BRANCH  16  18
HETATM   18  C2  UNL     1       2.939  -2.058  18.568  1.00  0.00     0.128 C 
HETATM   19  C1  UNL     1       1.923  -0.979  18.865  1.00  0.00     0.038 C 
BRANCH  18  20
HETATM   20  C22 UNL     1       4.200  -1.423  18.147  1.00  0.00    -0.035 A 
HETATM   21  C23 UNL     1       4.549  -1.325  16.822  1.00  0.00     0.009 A 
HETATM   22  C24 UNL     1       5.746  -0.714  16.449  1.00  0.00     0.001 A 
HETATM   23  C25 UNL     1       6.583  -0.205  17.419  1.00  0.00     0.000 A 
HETATM   24  C26 UNL     1       6.240  -0.298  18.750  1.00  0.00     0.001 A 
HETATM   25  C27 UNL     1       5.044  -0.910  19.100  1.00  0.00     0.009 A 
ENDBRANCH  18  20
ENDBRANCH  16  18
ENDBRANCH  12  16
ENDBRANCH   1   8
BRANCH   2  26
HETATM   26  C9  UNL     1       1.775   0.607  22.940  1.00  0.00    -0.018 A 
HETATM   27  C10 UNL     1       0.849   1.285  22.190  1.00  0.00     0.015 A 
HETATM   28  C11 UNL     1       1.259   2.054  21.149  1.00  0.00     0.043 A 
HETATM   29  C12 UNL     1       2.597   2.192  20.796  1.00  0.00     0.116 A 
HETATM   30  F1  UNL     1       2.952   2.974  19.745  1.00  0.00    -0.206 F 
HETATM   31  C13 UNL     1       3.516   1.502  21.560  1.00  0.00     0.043 A 
HETATM   32  C14 UNL     1       3.116   0.717  22.621  1.00  0.00     0.015 A 
ENDBRANCH   2  26
BRANCH   5  33
HETATM   33  C16 UNL     1       0.555  -1.091  27.453  1.00  0.00     0.115 C 
HETATM   34  C17 UNL     1       1.766  -0.931  28.333  1.00  0.00     0.046 C 
HETATM   35  C18 UNL     1       1.380  -1.356  29.718  1.00  0.00     0.115 C 
HETATM   36  N4  UNL     1       0.195  -0.751  30.223  1.00  0.00    -0.421 N 
HETATM   37  C19 UNL     1      -0.917  -0.722  29.332  1.00  0.00     0.115 C 
ATOM     38  H4  UNL     1       0.145  -0.362  31.164  1.00  0.00     0.153 HD
HETATM   39  C20 UNL     1      -0.500  -0.139  27.976  1.00  0.00     0.046 C 
ENDBRANCH   5  33
TORSDOF 6
ENDMDL
