MODEL 2
REMARK VINA RESULT: -9.347490206      2.897      4.029
REMARK  6 active torsions:
REMARK  status: ('A' for Active; 'I' for Inactive)
REMARK    1  A    between atoms: C2_2  and  N1_3 
REMARK    2  A    between atoms: C2_2  and  C22_34 
REMARK    3  A    between atoms: N1_3  and  C3_5 
REMARK    4  A    between atoms: C6_10  and  C7_11 
REMARK    5  A    between atoms: C8_12  and  C9_13 
REMARK    6  A    between atoms: N3_22  and  C16_23 
ROOT
HETATM    1  C7  UNL     1       0.773  -2.791  24.232  1.00  0.00     0.094 A 
HETATM    2  C8  UNL     1       1.022  -3.828  23.352  1.00  0.00     0.074 A 
HETATM    3  C15 UNL     1       1.109  -4.976  24.122  1.00  0.00     0.276 A 
HETATM    4  O1  UNL     1       1.328  -6.124  23.657  1.00  0.00    -0.266 OA
HETATM    5  N3  UNL     1       0.919  -4.621  25.400  1.00  0.00    -0.250 N 
HETATM    6  N5  UNL     1       0.719  -3.310  25.459  1.00  0.00    -0.288 N 
HETATM    7  C21 UNL     1       0.473  -2.521  26.676  1.00  0.00     0.178 C 
ENDROOT
BRANCH   1   8
HETATM    8  C6  UNL     1       0.612  -1.406  23.817  1.00  0.00     0.080 A 
HETATM    9  C5  UNL     1      -0.492  -0.717  24.271  1.00  0.00     0.050 A 
HETATM   10  C4  UNL     1      -0.636   0.593  23.876  1.00  0.00     0.108 A 
HETATM   11  N2  UNL     1       0.278   1.159  23.080  1.00  0.00    -0.202 N 
HETATM   12  C3  UNL     1       1.377   0.494  22.622  1.00  0.00     0.679 A 
ATOM     13  H2  UNL     1       0.147   2.132  22.803  1.00  0.00     0.183 HD
HETATM   14  N6  UNL     1       1.496  -0.781  23.018  1.00  0.00    -0.190 N 
ATOM     15  H6  UNL     1       2.306  -1.309  22.694  1.00  0.00     0.184 HD
BRANCH  12  16
HETATM   16  N1  UNL     1       2.305   1.170  21.787  1.00  0.00    -0.218 N 
ATOM     17  H1  UNL     1       3.147   1.590  22.183  1.00  0.00     0.178 HD
BRANCH  16  18
HETATM   18  C2  UNL     1       2.044   1.255  20.373  1.00  0.00     0.128 C 
HETATM   19  C1  UNL     1       2.197   2.696  19.942  1.00  0.00     0.038 C 
BRANCH  18  20
HETATM   20  C22 UNL     1       2.962   0.420  19.577  1.00  0.00    -0.035 A 
HETATM   21  C23 UNL     1       2.675   0.072  18.279  1.00  0.00     0.009 A 
HETATM   22  C24 UNL     1       3.563  -0.714  17.545  1.00  0.00     0.001 A 
HETATM   23  C25 UNL     1       4.736  -1.144  18.128  1.00  0.00     0.000 A 
HETATM   24  C26 UNL     1       5.031  -0.799  19.429  1.00  0.00     0.001 A 
HETATM   25  C27 UNL     1       4.134  -0.015  20.143  1.00  0.00     0.009 A 
ENDBRANCH  18  20
ENDBRANCH  16  18
ENDBRANCH  12  16
ENDBRANCH   1   8
BRANCH   2  26
HETATM   26  C9  UNL     1       1.156  -3.689  21.907  1.00  0.00    -0.018 A 
HETATM   27  C10 UNL     1       0.050  -3.680  21.098  1.00  0.00     0.015 A 
HETATM   28  C11 UNL     1       0.198  -3.551  19.755  1.00  0.00     0.043 A 
HETATM   29  C12 UNL     1       1.441  -3.425  19.144  1.00  0.00     0.116 A 
HETATM   30  F1  UNL     1       1.532  -3.298  17.796  1.00  0.00    -0.206 F 
HETATM   31  C13 UNL     1       2.545  -3.436  19.971  1.00  0.00     0.043 A 
HETATM   32  C14 UNL     1       2.411  -3.567  21.338  1.00  0.00     0.015 A 
ENDBRANCH   2  26
BRANCH   5  33
HETATM   33  C16 UNL     1       0.920  -5.457  26.550  1.00  0.00     0.115 C 
HETATM   34  C17 UNL     1      -0.252  -6.398  26.632  1.00  0.00     0.046 C 
HETATM   35  C18 UNL     1      -0.254  -7.003  28.004  1.00  0.00     0.115 C 
HETATM   36  N4  UNL     1       0.988  -7.564  28.414  1.00  0.00    -0.421 N 
HETATM   37  C19 UNL     1       2.143  -6.763  28.172  1.00  0.00     0.115 C 
ATOM     38  H4  UNL     1       1.048  -8.482  28.854  1.00  0.00     0.153 HD
HETATM   39  C20 UNL     1       2.171  -6.294  26.712  1.00  0.00     0.046 C 
ENDBRANCH   5  33
TORSDOF 6
ENDMDL
