MODEL 1
REMARK VINA RESULT: -9.551355788      0.000      0.000
REMARK  6 active torsions:
REMARK  status: ('A' for Active; 'I' for Inactive)
REMARK    1  A    between atoms: C2_2  and  N1_3 
REMARK    2  A    between atoms: C2_2  and  C22_34 
REMARK    3  A    between atoms: N1_3  and  C3_5 
REMARK    4  A    between atoms: C6_10  and  C7_11 
REMARK    5  A    between atoms: C8_12  and  C9_13 
REMARK    6  A    between atoms: N3_22  and  C16_23 
ROOT
HETATM    1  C7  UNL     1       1.866  -0.498  23.533  1.00  0.00     0.094 A 
HETATM    2  C8  UNL     1       1.447  -1.803  23.710  1.00  0.00     0.074 A 
HETATM    3  C15 UNL     1       1.085  -1.915  25.042  1.00  0.00     0.276 A 
HETATM    4  O1  UNL     1       0.650  -2.970  25.570  1.00  0.00    -0.266 OA
HETATM    5  N3  UNL     1       1.287  -0.722  25.618  1.00  0.00    -0.250 N 
HETATM    6  N5  UNL     1       1.755   0.122  24.707  1.00  0.00    -0.288 N 
HETATM    7  C21 UNL     1       2.108   1.534  24.929  1.00  0.00     0.178 C 
ENDROOT
BRANCH   1   8
HETATM    8  C6  UNL     1       2.332   0.030  22.260  1.00  0.00     0.080 A 
HETATM    9  C5  UNL     1       1.584   1.016  21.654  1.00  0.00     0.050 A 
HETATM   10  C4  UNL     1       2.034   1.513  20.451  1.00  0.00     0.108 A 
HETATM   11  N2  UNL     1       3.161   1.040  19.909  1.00  0.00    -0.202 N 
HETATM   12  C3  UNL     1       3.914   0.065  20.493  1.00  0.00     0.679 A 
ATOM     13  H2  UNL     1       3.471   1.426  19.017  1.00  0.00     0.183 HD
HETATM   14  N6  UNL     1       3.457  -0.403  21.662  1.00  0.00    -0.190 N 
ATOM     15  H6  UNL     1       3.995  -1.134  22.128  1.00  0.00     0.184 HD
BRANCH  12  16
HETATM   16  N1  UNL     1       5.104  -0.376  19.855  1.00  0.00    -0.218 N 
ATOM     17  H1  UNL     1       6.000   0.059  20.075  1.00  0.00     0.178 HD
BRANCH  16  18
HETATM   18  C2  UNL     1       5.028  -1.445  18.893  1.00  0.00     0.128 C 
HETATM   19  C1  UNL     1       3.736  -2.198  19.113  1.00  0.00     0.038 C 
BRANCH  18  20
HETATM   20  C22 UNL     1       5.066  -0.960  17.502  1.00  0.00    -0.035 A 
HETATM   21  C23 UNL     1       6.203  -0.411  16.962  1.00  0.00     0.009 A 
HETATM   22  C24 UNL     1       6.215   0.036  15.642  1.00  0.00     0.001 A 
HETATM   23  C25 UNL     1       5.075  -0.074  14.874  1.00  0.00     0.000 A 
HETATM   24  C26 UNL     1       3.930  -0.623  15.407  1.00  0.00     0.001 A 
HETATM   25  C27 UNL     1       3.940  -1.063  16.725  1.00  0.00     0.009 A 
ENDBRANCH  18  20
ENDBRANCH  16  18
ENDBRANCH  12  16
ENDBRANCH   1   8
BRANCH   2  26
HETATM   26  C9  UNL     1       1.410  -2.823  22.668  1.00  0.00    -0.018 A 
HETATM   27  C10 UNL     1       0.334  -2.926  21.827  1.00  0.00     0.015 A 
HETATM   28  C11 UNL     1       0.320  -3.884  20.864  1.00  0.00     0.043 A 
HETATM   29  C12 UNL     1       1.364  -4.785  20.685  1.00  0.00     0.116 A 
HETATM   30  F1  UNL     1       1.300  -5.723  19.706  1.00  0.00    -0.206 F 
HETATM   31  C13 UNL     1       2.441  -4.668  21.540  1.00  0.00     0.043 A 
HETATM   32  C14 UNL     1       2.470  -3.701  22.522  1.00  0.00     0.015 A 
ENDBRANCH   2  26
BRANCH   5  33
HETATM   33  C16 UNL     1       1.058  -0.354  26.971  1.00  0.00     0.115 C 
HETATM   34  C17 UNL     1      -0.395  -0.283  27.358  1.00  0.00     0.046 C 
HETATM   35  C18 UNL     1      -0.476   0.370  28.705  1.00  0.00     0.115 C 
HETATM   36  N4  UNL     1       0.376  -0.193  29.697  1.00  0.00    -0.421 N 
HETATM   37  C19 UNL     1       1.719  -0.445  29.293  1.00  0.00     0.115 C 
ATOM     38  H4  UNL     1       0.045  -0.402  30.638  1.00  0.00     0.153 HD
HETATM   39  C20 UNL     1       1.742  -1.247  27.985  1.00  0.00     0.046 C 
ENDBRANCH   5  33
TORSDOF 6
ENDMDL
