MODEL 1
REMARK VINA RESULT: -10.498854331      0.000      0.000
REMARK  3 active torsions:
REMARK  status: ('A' for Active; 'I' for Inactive)
REMARK    1  A    between atoms: C4_5  and  C5_6 
REMARK    2  A    between atoms: C8_9  and  O1_10 
REMARK    3  A    between atoms: C15_19  and  O2_20 
ROOT
HETATM    1  N1  UNL     1      31.006  38.840  35.381  1.00  0.00    -0.191 NA
HETATM    2  C1  UNL     1      30.930  38.173  36.325  1.00  0.00     0.100 C 
HETATM    3  C2  UNL     1      30.849  37.329  37.507  1.00  0.00     0.056 A 
HETATM    4  C3  UNL     1      29.665  37.248  38.235  1.00  0.00     0.036 A 
HETATM    5  C4  UNL     1      29.534  36.470  39.351  1.00  0.00    -0.024 A 
HETATM    6  C11 UNL     1      30.652  35.737  39.754  1.00  0.00     0.024 A 
HETATM    7  C12 UNL     1      31.851  35.780  39.071  1.00  0.00    -0.023 A 
HETATM    8  C13 UNL     1      32.949  35.050  39.486  1.00  0.00     0.015 A 
HETATM    9  C14 UNL     1      34.144  35.103  38.798  1.00  0.00     0.037 A 
HETATM   10  C15 UNL     1      34.192  35.913  37.683  1.00  0.00     0.066 A 
HETATM   11  C16 UNL     1      33.098  36.653  37.251  1.00  0.00     0.050 A 
HETATM   12  C17 UNL     1      31.922  36.586  37.950  1.00  0.00    -0.003 A 
ENDROOT
BRANCH   5  13
HETATM   13  C5  UNL     1      28.303  36.385  40.126  1.00  0.00    -0.023 A 
HETATM   14  C6  UNL     1      28.248  35.787  41.360  1.00  0.00     0.015 A 
HETATM   15  C7  UNL     1      27.079  35.706  42.086  1.00  0.00     0.040 A 
HETATM   16  C8  UNL     1      25.924  36.251  41.546  1.00  0.00     0.104 A 
HETATM   17  C9  UNL     1      25.933  36.866  40.302  1.00  0.00     0.150 A 
HETATM   18  F1  UNL     1      24.787  37.374  39.833  1.00  0.00    -0.203 F 
HETATM   19  C10 UNL     1      27.143  36.922  39.607  1.00  0.00     0.057 A 
BRANCH  16  20
HETATM   20  O1  UNL     1      24.772  36.160  42.287  1.00  0.00    -0.358 OA
ATOM     21  H1  UNL     1      23.953  36.063  41.816  1.00  0.00     0.217 HD
ENDBRANCH  16  20
ENDBRANCH   5  13
BRANCH  10  22
HETATM   22  O2  UNL     1      35.361  36.028  36.924  1.00  0.00    -0.361 OA
ATOM     23  H2  UNL     1      35.338  35.975  35.976  1.00  0.00     0.217 HD
ENDBRANCH  10  22
TORSDOF 3
ENDMDL
