MODEL 5
REMARK VINA RESULT: -8.909080144      2.570      6.802
REMARK  3 active torsions:
REMARK  status: ('A' for Active; 'I' for Inactive)
REMARK    1  A    between atoms: C4_5  and  C5_6 
REMARK    2  A    between atoms: C8_9  and  O1_10 
REMARK    3  A    between atoms: C15_19  and  O2_20 
ROOT
HETATM    1  N1  UNL     1      26.718  38.939  37.428  1.00  0.00    -0.191 NA
HETATM    2  C1  UNL     1      27.386  38.241  38.068  1.00  0.00     0.100 C 
HETATM    3  C2  UNL     1      28.213  37.364  38.881  1.00  0.00     0.056 A 
HETATM    4  C3  UNL     1      29.541  37.131  38.538  1.00  0.00     0.036 A 
HETATM    5  C4  UNL     1      30.363  36.318  39.268  1.00  0.00    -0.024 A 
HETATM    6  C11 UNL     1      29.818  35.710  40.401  1.00  0.00     0.024 A 
HETATM    7  C12 UNL     1      28.507  35.905  40.788  1.00  0.00    -0.023 A 
HETATM    8  C13 UNL     1      27.982  35.293  41.911  1.00  0.00     0.015 A 
HETATM    9  C14 UNL     1      26.670  35.492  42.286  1.00  0.00     0.037 A 
HETATM   10  C15 UNL     1      25.909  36.327  41.494  1.00  0.00     0.066 A 
HETATM   11  C16 UNL     1      26.420  36.951  40.363  1.00  0.00     0.050 A 
HETATM   12  C17 UNL     1      27.726  36.738  40.009  1.00  0.00    -0.003 A 
ENDROOT
BRANCH   5  13
HETATM   13  C5  UNL     1      31.752  36.058  38.914  1.00  0.00    -0.023 A 
HETATM   14  C6  UNL     1      32.628  35.437  39.768  1.00  0.00     0.015 A 
HETATM   15  C7  UNL     1      33.942  35.197  39.428  1.00  0.00     0.040 A 
HETATM   16  C8  UNL     1      34.386  35.601  38.177  1.00  0.00     0.104 A 
HETATM   17  C9  UNL     1      33.536  36.232  37.281  1.00  0.00     0.150 A 
HETATM   18  F1  UNL     1      34.023  36.598  36.089  1.00  0.00    -0.203 F 
HETATM   19  C10 UNL     1      32.214  36.451  37.674  1.00  0.00     0.057 A 
BRANCH  16  20
HETATM   20  O1  UNL     1      35.699  35.351  37.859  1.00  0.00    -0.358 OA
ATOM     21  H1  UNL     1      36.335  36.029  38.055  1.00  0.00     0.217 HD
ENDBRANCH  16  20
ENDBRANCH   5  13
BRANCH  10  22
HETATM   22  O2  UNL     1      24.569  36.587  41.798  1.00  0.00    -0.361 OA
ATOM     23  H2  UNL     1      23.927  36.720  41.111  1.00  0.00     0.217 HD
ENDBRANCH  10  22
TORSDOF 3
ENDMDL
