MODEL 16
REMARK VINA RESULT: -6.225700438      1.321      1.744
REMARK  3 active torsions:
REMARK  status: ('A' for Active; 'I' for Inactive)
REMARK    1  A    between atoms: C4_5  and  C5_6 
REMARK    2  A    between atoms: C8_9  and  O1_10 
REMARK    3  A    between atoms: C15_19  and  O2_20 
ROOT
HETATM    1  N1  UNL     1      32.989  39.125  36.367  1.00  0.00    -0.191 NA
HETATM    2  C1  UNL     1      32.510  38.341  37.073  1.00  0.00     0.100 C 
HETATM    3  C2  UNL     1      31.923  37.348  37.959  1.00  0.00     0.056 A 
HETATM    4  C3  UNL     1      30.582  37.431  38.320  1.00  0.00     0.036 A 
HETATM    5  C4  UNL     1      29.980  36.524  39.147  1.00  0.00    -0.024 A 
HETATM    6  C11 UNL     1      30.769  35.481  39.633  1.00  0.00     0.024 A 
HETATM    7  C12 UNL     1      32.105  35.349  39.309  1.00  0.00    -0.023 A 
HETATM    8  C13 UNL     1      32.873  34.311  39.803  1.00  0.00     0.015 A 
HETATM    9  C14 UNL     1      34.208  34.191  39.475  1.00  0.00     0.037 A 
HETATM   10  C15 UNL     1      34.738  35.149  38.635  1.00  0.00     0.066 A 
HETATM   11  C16 UNL     1      33.980  36.198  38.129  1.00  0.00     0.050 A 
HETATM   12  C17 UNL     1      32.657  36.298  38.469  1.00  0.00    -0.003 A 
ENDROOT
BRANCH   5  13
HETATM   13  C5  UNL     1      28.579  36.607  39.540  1.00  0.00    -0.023 A 
HETATM   14  C6  UNL     1      27.665  37.372  38.859  1.00  0.00     0.015 A 
HETATM   15  C7  UNL     1      26.343  37.450  39.238  1.00  0.00     0.040 A 
HETATM   16  C8  UNL     1      25.928  36.727  40.347  1.00  0.00     0.104 A 
HETATM   17  C9  UNL     1      26.817  35.940  41.066  1.00  0.00     0.150 A 
HETATM   18  F1  UNL     1      26.358  35.266  42.126  1.00  0.00    -0.203 F 
HETATM   19  C10 UNL     1      28.146  35.896  40.640  1.00  0.00     0.057 A 
BRANCH  16  20
HETATM   20  O1  UNL     1      24.606  36.818  40.706  1.00  0.00    -0.358 OA
ATOM     21  H1  UNL     1      24.287  36.213  41.366  1.00  0.00     0.217 HD
ENDBRANCH  16  20
ENDBRANCH   5  13
BRANCH  10  22
HETATM   22  O2  UNL     1      36.081  35.107  38.249  1.00  0.00    -0.361 OA
ATOM     23  H2  UNL     1      36.747  35.574  38.739  1.00  0.00     0.217 HD
ENDBRANCH  10  22
TORSDOF 3
ENDMDL
