MODEL 6
REMARK VINA RESULT: -8.517635564      2.657      6.920
REMARK  3 active torsions:
REMARK  status: ('A' for Active; 'I' for Inactive)
REMARK    1  A    between atoms: C4_5  and  C5_6 
REMARK    2  A    between atoms: C8_9  and  O1_10 
REMARK    3  A    between atoms: C15_19  and  O2_20 
ROOT
HETATM    1  N1  UNL     1      26.291  39.058  37.650  1.00  0.00    -0.191 NA
HETATM    2  C1  UNL     1      27.079  38.362  38.138  1.00  0.00     0.100 C 
HETATM    3  C2  UNL     1      28.057  37.486  38.763  1.00  0.00     0.056 A 
HETATM    4  C3  UNL     1      29.341  37.375  38.237  1.00  0.00     0.036 A 
HETATM    5  C4  UNL     1      30.299  36.569  38.785  1.00  0.00    -0.024 A 
HETATM    6  C11 UNL     1      29.944  35.838  39.921  1.00  0.00     0.024 A 
HETATM    7  C12 UNL     1      28.686  35.908  40.485  1.00  0.00    -0.023 A 
HETATM    8  C13 UNL     1      28.352  35.174  41.608  1.00  0.00     0.015 A 
HETATM    9  C14 UNL     1      27.090  35.250  42.161  1.00  0.00     0.037 A 
HETATM   10  C15 UNL     1      26.183  36.088  41.546  1.00  0.00     0.066 A 
HETATM   11  C16 UNL     1      26.503  36.832  40.417  1.00  0.00     0.050 A 
HETATM   12  C17 UNL     1      27.761  36.741  39.885  1.00  0.00    -0.003 A 
ENDROOT
BRANCH   5  13
HETATM   13  C5  UNL     1      31.642  36.436  38.237  1.00  0.00    -0.023 A 
HETATM   14  C6  UNL     1      31.991  36.939  37.008  1.00  0.00     0.015 A 
HETATM   15  C7  UNL     1      33.262  36.807  36.494  1.00  0.00     0.040 A 
HETATM   16  C8  UNL     1      34.217  36.143  37.250  1.00  0.00     0.104 A 
HETATM   17  C9  UNL     1      33.910  35.620  38.498  1.00  0.00     0.150 A 
HETATM   18  F1  UNL     1      34.873  34.990  39.180  1.00  0.00    -0.203 F 
HETATM   19  C10 UNL     1      32.607  35.780  38.973  1.00  0.00     0.057 A 
BRANCH  16  20
HETATM   20  O1  UNL     1      35.478  36.025  36.719  1.00  0.00    -0.358 OA
ATOM     21  H1  UNL     1      35.714  36.614  36.013  1.00  0.00     0.217 HD
ENDBRANCH  16  20
ENDBRANCH   5  13
BRANCH  10  22
HETATM   22  O2  UNL     1      24.881  36.228  42.037  1.00  0.00    -0.361 OA
ATOM     23  H2  UNL     1      24.340  35.468  42.217  1.00  0.00     0.217 HD
ENDBRANCH  10  22
TORSDOF 3
ENDMDL
