MODEL 3
REMARK VINA RESULT: -9.859888933      1.032      1.461
REMARK  3 active torsions:
REMARK  status: ('A' for Active; 'I' for Inactive)
REMARK    1  A    between atoms: C4_5  and  C5_6 
REMARK    2  A    between atoms: C8_9  and  O1_10 
REMARK    3  A    between atoms: C15_19  and  O2_20 
ROOT
HETATM    1  N1  UNL     1      31.003  38.787  35.190  1.00  0.00    -0.191 NA
HETATM    2  C1  UNL     1      30.924  38.133  36.143  1.00  0.00     0.100 C 
HETATM    3  C2  UNL     1      30.838  37.306  37.336  1.00  0.00     0.056 A 
HETATM    4  C3  UNL     1      29.645  37.215  38.046  1.00  0.00     0.036 A 
HETATM    5  C4  UNL     1      29.509  36.451  39.172  1.00  0.00    -0.024 A 
HETATM    6  C11 UNL     1      30.633  35.744  39.603  1.00  0.00     0.024 A 
HETATM    7  C12 UNL     1      31.842  35.797  38.939  1.00  0.00    -0.023 A 
HETATM    8  C13 UNL     1      32.946  35.093  39.381  1.00  0.00     0.015 A 
HETATM    9  C14 UNL     1      34.150  35.156  38.711  1.00  0.00     0.037 A 
HETATM   10  C15 UNL     1      34.202  35.950  37.584  1.00  0.00     0.066 A 
HETATM   11  C16 UNL     1      33.102  36.665  37.125  1.00  0.00     0.050 A 
HETATM   12  C17 UNL     1      31.917  36.587  37.806  1.00  0.00    -0.003 A 
ENDROOT
BRANCH   5  13
HETATM   13  C5  UNL     1      28.268  36.356  39.929  1.00  0.00    -0.023 A 
HETATM   14  C6  UNL     1      27.135  37.048  39.579  1.00  0.00     0.015 A 
HETATM   15  C7  UNL     1      25.966  36.958  40.302  1.00  0.00     0.040 A 
HETATM   16  C8  UNL     1      25.940  36.136  41.420  1.00  0.00     0.104 A 
HETATM   17  C9  UNL     1      27.061  35.418  41.811  1.00  0.00     0.150 A 
HETATM   18  F1  UNL     1      26.975  34.643  42.898  1.00  0.00    -0.203 F 
HETATM   19  C10 UNL     1      28.221  35.545  41.044  1.00  0.00     0.057 A 
BRANCH  16  20
HETATM   20  O1  UNL     1      24.764  36.060  42.125  1.00  0.00    -0.358 OA
ATOM     21  H1  UNL     1      24.513  35.212  42.471  1.00  0.00     0.217 HD
ENDBRANCH  16  20
ENDBRANCH   5  13
BRANCH  10  22
HETATM   22  O2  UNL     1      35.380  36.075  36.842  1.00  0.00    -0.361 OA
ATOM     23  H2  UNL     1      35.407  36.595  36.048  1.00  0.00     0.217 HD
ENDBRANCH  10  22
TORSDOF 3
ENDMDL
