MODEL 15
REMARK VINA RESULT: -6.741153872      1.141      1.280
REMARK  3 active torsions:
REMARK  status: ('A' for Active; 'I' for Inactive)
REMARK    1  A    between atoms: C4_5  and  C5_6 
REMARK    2  A    between atoms: C8_9  and  O1_10 
REMARK    3  A    between atoms: C15_19  and  O2_20 
ROOT
HETATM    1  N1  UNL     1      28.981  37.974  34.689  1.00  0.00    -0.191 NA
HETATM    2  C1  UNL     1      29.178  37.595  35.766  1.00  0.00     0.100 C 
HETATM    3  C2  UNL     1      29.439  37.114  37.113  1.00  0.00     0.056 A 
HETATM    4  C3  UNL     1      28.425  37.102  38.066  1.00  0.00     0.036 A 
HETATM    5  C4  UNL     1      28.615  36.658  39.345  1.00  0.00    -0.024 A 
HETATM    6  C11 UNL     1      29.892  36.204  39.680  1.00  0.00     0.024 A 
HETATM    7  C12 UNL     1      30.936  36.194  38.776  1.00  0.00    -0.023 A 
HETATM    8  C13 UNL     1      32.195  35.744  39.126  1.00  0.00     0.015 A 
HETATM    9  C14 UNL     1      33.232  35.741  38.215  1.00  0.00     0.037 A 
HETATM   10  C15 UNL     1      32.955  36.205  36.945  1.00  0.00     0.066 A 
HETATM   11  C16 UNL     1      31.695  36.661  36.577  1.00  0.00     0.050 A 
HETATM   12  C17 UNL     1      30.681  36.655  37.498  1.00  0.00    -0.003 A 
ENDROOT
BRANCH   5  13
HETATM   13  C5  UNL     1      27.564  36.651  40.354  1.00  0.00    -0.023 A 
HETATM   14  C6  UNL     1      27.772  36.202  41.634  1.00  0.00     0.015 A 
HETATM   15  C7  UNL     1      26.773  36.193  42.582  1.00  0.00     0.040 A 
HETATM   16  C8  UNL     1      25.515  36.657  42.223  1.00  0.00     0.104 A 
HETATM   17  C9  UNL     1      25.259  37.120  40.941  1.00  0.00     0.150 A 
HETATM   18  F1  UNL     1      24.026  37.554  40.654  1.00  0.00    -0.203 F 
HETATM   19  C10 UNL     1      26.306  37.107  40.017  1.00  0.00     0.057 A 
BRANCH  16  20
HETATM   20  O1  UNL     1      24.535  36.640  43.185  1.00  0.00    -0.358 OA
ATOM     21  H1  UNL     1      24.216  37.477  43.501  1.00  0.00     0.217 HD
ENDBRANCH  16  20
ENDBRANCH   5  13
BRANCH  10  22
HETATM   22  O2  UNL     1      33.943  36.239  35.958  1.00  0.00    -0.361 OA
ATOM     23  H2  UNL     1      33.804  36.701  35.139  1.00  0.00     0.217 HD
ENDBRANCH  10  22
TORSDOF 3
ENDMDL
