MODEL 10
REMARK VINA RESULT: -7.639417050      2.725      6.780
REMARK  3 active torsions:
REMARK  status: ('A' for Active; 'I' for Inactive)
REMARK    1  A    between atoms: C4_5  and  C5_6 
REMARK    2  A    between atoms: C8_9  and  O1_10 
REMARK    3  A    between atoms: C15_19  and  O2_20 
ROOT
HETATM    1  N1  UNL     1      28.112  39.748  36.932  1.00  0.00    -0.191 NA
HETATM    2  C1  UNL     1      28.566  38.879  37.550  1.00  0.00     0.100 C 
HETATM    3  C2  UNL     1      29.123  37.788  38.333  1.00  0.00     0.056 A 
HETATM    4  C3  UNL     1      30.469  37.454  38.219  1.00  0.00     0.036 A 
HETATM    5  C4  UNL     1      31.044  36.439  38.932  1.00  0.00    -0.024 A 
HETATM    6  C11 UNL     1      30.220  35.726  39.805  1.00  0.00     0.024 A 
HETATM    7  C12 UNL     1      28.878  36.013  39.959  1.00  0.00    -0.023 A 
HETATM    8  C13 UNL     1      28.076  35.294  40.825  1.00  0.00     0.015 A 
HETATM    9  C14 UNL     1      26.736  35.587  40.968  1.00  0.00     0.037 A 
HETATM   10  C15 UNL     1      26.235  36.626  40.211  1.00  0.00     0.066 A 
HETATM   11  C16 UNL     1      27.027  37.359  39.335  1.00  0.00     0.050 A 
HETATM   12  C17 UNL     1      28.355  37.050  39.209  1.00  0.00    -0.003 A 
ENDROOT
BRANCH   5  13
HETATM   13  C5  UNL     1      32.449  36.074  38.813  1.00  0.00    -0.023 A 
HETATM   14  C6  UNL     1      33.134  35.437  39.817  1.00  0.00     0.015 A 
HETATM   15  C7  UNL     1      34.465  35.098  39.700  1.00  0.00     0.040 A 
HETATM   16  C8  UNL     1      35.127  35.414  38.523  1.00  0.00     0.104 A 
HETATM   17  C9  UNL     1      34.475  36.057  37.481  1.00  0.00     0.150 A 
HETATM   18  F1  UNL     1      35.167  36.335  36.370  1.00  0.00    -0.203 F 
HETATM   19  C10 UNL     1      33.127  36.379  37.651  1.00  0.00     0.057 A 
BRANCH  16  20
HETATM   20  O1  UNL     1      36.452  35.065  38.428  1.00  0.00    -0.358 OA
ATOM     21  H1  UNL     1      36.722  34.250  38.834  1.00  0.00     0.217 HD
ENDBRANCH  16  20
ENDBRANCH   5  13
BRANCH  10  22
HETATM   22  O2  UNL     1      24.889  36.994  40.290  1.00  0.00    -0.361 OA
ATOM     23  H2  UNL     1      24.517  37.326  41.099  1.00  0.00     0.217 HD
ENDBRANCH  10  22
TORSDOF 3
ENDMDL
