MODEL 7
REMARK VINA RESULT: -8.515974343      1.249      1.582
REMARK  3 active torsions:
REMARK  status: ('A' for Active; 'I' for Inactive)
REMARK    1  A    between atoms: C4_5  and  C5_6 
REMARK    2  A    between atoms: C8_9  and  O1_10 
REMARK    3  A    between atoms: C15_19  and  O2_20 
ROOT
HETATM    1  N1  UNL     1      31.579  39.648  36.721  1.00  0.00    -0.191 NA
HETATM    2  C1  UNL     1      31.282  38.784  37.434  1.00  0.00     0.100 C 
HETATM    3  C2  UNL     1      30.921  37.692  38.324  1.00  0.00     0.056 A 
HETATM    4  C3  UNL     1      29.660  37.648  38.910  1.00  0.00     0.036 A 
HETATM    5  C4  UNL     1      29.269  36.645  39.752  1.00  0.00    -0.024 A 
HETATM    6  C11 UNL     1      30.197  35.635  40.016  1.00  0.00     0.024 A 
HETATM    7  C12 UNL     1      31.462  35.628  39.464  1.00  0.00    -0.023 A 
HETATM    8  C13 UNL     1      32.370  34.623  39.740  1.00  0.00     0.015 A 
HETATM    9  C14 UNL     1      33.632  34.628  39.185  1.00  0.00     0.037 A 
HETATM   10  C15 UNL     1      33.947  35.677  38.346  1.00  0.00     0.066 A 
HETATM   11  C16 UNL     1      33.047  36.696  38.058  1.00  0.00     0.050 A 
HETATM   12  C17 UNL     1      31.798  36.671  38.620  1.00  0.00    -0.003 A 
ENDROOT
BRANCH   5  13
HETATM   13  C5  UNL     1      27.955  36.593  40.379  1.00  0.00    -0.023 A 
HETATM   14  C6  UNL     1      26.791  36.551  39.652  1.00  0.00     0.015 A 
HETATM   15  C7  UNL     1      25.551  36.507  40.251  1.00  0.00     0.040 A 
HETATM   16  C8  UNL     1      25.485  36.504  41.637  1.00  0.00     0.104 A 
HETATM   17  C9  UNL     1      26.635  36.545  42.412  1.00  0.00     0.150 A 
HETATM   18  F1  UNL     1      26.507  36.540  43.744  1.00  0.00    -0.203 F 
HETATM   19  C10 UNL     1      27.866  36.589  41.756  1.00  0.00     0.057 A 
BRANCH  16  20
HETATM   20  O1  UNL     1      24.238  36.458  42.212  1.00  0.00    -0.358 OA
ATOM     21  H1  UNL     1      24.145  35.964  43.018  1.00  0.00     0.217 HD
ENDBRANCH  16  20
ENDBRANCH   5  13
BRANCH  10  22
HETATM   22  O2  UNL     1      35.203  35.765  37.739  1.00  0.00    -0.361 OA
ATOM     23  H2  UNL     1      35.670  34.985  37.462  1.00  0.00     0.217 HD
ENDBRANCH  10  22
TORSDOF 3
ENDMDL
