MODEL 1
REMARK VINA RESULT: -9.931493836      0.000      0.000
REMARK  11 active torsions:
REMARK  status: ('A' for Active; 'I' for Inactive)
REMARK    1  A    between atoms: C2_2  and  C4_4 
REMARK    2  A    between atoms: C4_4  and  C5_5 
REMARK    3  A    between atoms: C5_5  and  N1_6 
REMARK    4  A    between atoms: N1_6  and  C6_7 
REMARK    5  A    between atoms: N1_6  and  S1_36 
REMARK    6  A    between atoms: C6_7  and  C7_8 
REMARK    7  A    between atoms: C7_8  and  O1_9 
REMARK    8  A    between atoms: C7_8  and  C8_11 
REMARK    9  A    between atoms: C20_27  and  C21_28 
REMARK   10  A    between atoms: C24_31  and  O4_32 
REMARK   11  A    between atoms: S1_36  and  C25_39 
ROOT
HETATM    1  C8  UNL     1       6.765  -2.187  15.531  1.00  0.00     0.121 C 
HETATM    2  C9  UNL     1       8.212  -2.442  15.049  1.00  0.00     0.066 C 
HETATM    3  C10 UNL     1       8.684  -3.809  15.523  1.00  0.00    -0.056 A 
HETATM    4  C11 UNL     1       8.611  -4.926  14.726  1.00  0.00     0.010 A 
HETATM    5  C12 UNL     1       9.026  -6.193  15.220  1.00  0.00     0.037 A 
HETATM    6  C13 UNL     1       9.502  -6.355  16.483  1.00  0.00     0.068 A 
HETATM    7  C14 UNL     1       9.572  -5.243  17.261  1.00  0.00     0.037 A 
HETATM    8  C15 UNL     1       9.166  -3.959  16.799  1.00  0.00     0.010 A 
HETATM    9  O2  UNL     1       9.903  -7.610  16.966  1.00  0.00    -0.351 OA
HETATM   10  C16 UNL     1       9.053  -8.559  17.584  1.00  0.00     0.176 C 
HETATM   11  C17 UNL     1       8.122  -7.838  18.525  1.00  0.00     0.036 C 
HETATM   12  C18 UNL     1       6.862  -7.421  17.793  1.00  0.00     0.105 C 
HETATM   13  C19 UNL     1       6.348  -6.104  18.229  1.00  0.00     0.218 C 
HETATM   14  O3  UNL     1       6.370  -5.926  19.502  1.00  0.00    -0.274 OA
HETATM   15  N2  UNL     1       5.855  -5.068  17.418  1.00  0.00    -0.349 N 
ATOM     16  H2  UNL     1       6.123  -4.119  17.677  1.00  0.00     0.163 HD
HETATM   17  C20 UNL     1       5.013  -5.207  16.262  1.00  0.00     0.162 C 
HETATM   18  C24 UNL     1       4.885  -3.954  15.493  1.00  0.00     0.135 C 
HETATM   19  N3  UNL     1       5.872  -3.147  14.916  1.00  0.00    -0.365 N 
ATOM     20  H3  UNL     1       5.980  -3.252  13.907  1.00  0.00     0.161 HD
ENDROOT
BRANCH   1  21
HETATM   21  C7  UNL     1       6.419  -0.810  14.952  1.00  0.00     0.180 C 
BRANCH  21  22
HETATM   22  C6  UNL     1       5.979  -0.855  13.528  1.00  0.00     0.115 C 
BRANCH  22  23
HETATM   23  N1  UNL     1       4.845  -0.120  13.196  1.00  0.00    -0.263 N 
BRANCH  23  24
HETATM   24  C5  UNL     1       4.914   1.080  12.487  1.00  0.00     0.082 C 
BRANCH  24  25
HETATM   25  C4  UNL     1       6.170   1.272  11.668  1.00  0.00     0.049 C 
BRANCH  25  26
HETATM   26  C2  UNL     1       6.850   2.534  12.158  1.00  0.00    -0.018 C 
HETATM   27  C1  UNL     1       7.901   2.169  13.216  1.00  0.00     0.010 C 
HETATM   28  C3  UNL     1       7.457   3.351  11.066  1.00  0.00     0.010 C 
ENDBRANCH  25  26
ENDBRANCH  24  25
ENDBRANCH  23  24
BRANCH  23  29
HETATM   29  S1  UNL     1       3.330  -0.839  13.239  1.00  0.00     0.267 S 
HETATM   30  O5  UNL     1       2.847  -0.969  14.668  1.00  0.00    -0.200 OA
HETATM   31  O6  UNL     1       3.303  -2.206  12.626  1.00  0.00    -0.200 OA
BRANCH  29  32
HETATM   32  C25 UNL     1       2.122   0.124  12.374  1.00  0.00     0.080 A 
HETATM   33  C26 UNL     1       2.114   0.202  11.006  1.00  0.00     0.025 A 
HETATM   34  C27 UNL     1       1.162   0.966  10.325  1.00  0.00     0.002 A 
HETATM   35  C28 UNL     1       0.206   1.661  11.035  1.00  0.00     0.000 A 
HETATM   36  C29 UNL     1       0.203   1.591  12.413  1.00  0.00     0.002 A 
HETATM   37  C30 UNL     1       1.165   0.820  13.071  1.00  0.00     0.025 A 
ENDBRANCH  29  32
ENDBRANCH  23  29
ENDBRANCH  22  23
ENDBRANCH  21  22
BRANCH  21  38
HETATM   38  O1  UNL     1       5.585  -0.110  15.806  1.00  0.00    -0.388 OA
ATOM     39  H1  UNL     1       5.651  -0.348  16.723  1.00  0.00     0.210 HD
ENDBRANCH  21  38
ENDBRANCH   1  21
BRANCH  18  40
HETATM   40  O4  UNL     1       3.648  -3.555  15.339  1.00  0.00    -0.348 OA
ATOM     41  H4  UNL     1       3.571  -2.650  15.060  1.00  0.00     0.219 HD
ENDBRANCH  18  40
BRANCH  17  42
HETATM   42  C21 UNL     1       3.592  -5.640  16.677  1.00  0.00     0.008 C 
HETATM   43  C22 UNL     1       3.360  -7.110  16.462  1.00  0.00     0.012 C 
HETATM   44  C23 UNL     1       3.335  -5.238  18.118  1.00  0.00     0.012 C 
ENDBRANCH  17  42
TORSDOF 11
ENDMDL
