MODEL 2
REMARK VINA RESULT: -9.778791002      2.281      9.088
REMARK  11 active torsions:
REMARK  status: ('A' for Active; 'I' for Inactive)
REMARK    1  A    between atoms: C2_2  and  C4_4 
REMARK    2  A    between atoms: C4_4  and  C5_5 
REMARK    3  A    between atoms: C5_5  and  N1_6 
REMARK    4  A    between atoms: N1_6  and  C6_7 
REMARK    5  A    between atoms: N1_6  and  S1_36 
REMARK    6  A    between atoms: C6_7  and  C7_8 
REMARK    7  A    between atoms: C7_8  and  O1_9 
REMARK    8  A    between atoms: C7_8  and  C8_11 
REMARK    9  A    between atoms: C20_27  and  C21_28 
REMARK   10  A    between atoms: C24_31  and  O4_32 
REMARK   11  A    between atoms: S1_36  and  C25_39 
ROOT
HETATM    1  C8  UNL     1       4.866  -0.289  14.629  1.00  0.00     0.121 C 
HETATM    2  C9  UNL     1       3.532  -1.023  14.356  1.00  0.00     0.066 C 
HETATM    3  C10 UNL     1       2.784  -0.335  13.223  1.00  0.00    -0.056 A 
HETATM    4  C11 UNL     1       2.866  -0.768  11.921  1.00  0.00     0.010 A 
HETATM    5  C12 UNL     1       2.183  -0.073  10.886  1.00  0.00     0.037 A 
HETATM    6  C13 UNL     1       1.433   1.033  11.131  1.00  0.00     0.068 A 
HETATM    7  C14 UNL     1       1.356   1.450  12.422  1.00  0.00     0.037 A 
HETATM    8  C15 UNL     1       2.027   0.779  13.484  1.00  0.00     0.010 A 
HETATM    9  O2  UNL     1       0.768   1.717  10.103  1.00  0.00    -0.351 OA
HETATM   10  C16 UNL     1       1.326   2.749   9.311  1.00  0.00     0.176 C 
HETATM   11  C17 UNL     1       2.128   3.664  10.200  1.00  0.00     0.036 C 
HETATM   12  C18 UNL     1       3.560   3.176  10.292  1.00  0.00     0.105 C 
HETATM   13  C19 UNL     1       4.150   3.361  11.636  1.00  0.00     0.218 C 
HETATM   14  O3  UNL     1       3.884   4.498  12.175  1.00  0.00    -0.274 OA
HETATM   15  N2  UNL     1       4.943   2.451  12.354  1.00  0.00    -0.349 N 
ATOM     16  H2  UNL     1       4.762   2.378  13.356  1.00  0.00     0.163 HD
HETATM   17  C20 UNL     1       5.983   1.611  11.825  1.00  0.00     0.162 C 
HETATM   18  C24 UNL     1       6.445   0.596  12.790  1.00  0.00     0.135 C 
HETATM   19  N3  UNL     1       5.725  -0.395  13.468  1.00  0.00    -0.365 N 
ATOM     20  H3  UNL     1       5.819  -1.336  13.085  1.00  0.00     0.161 HD
ENDROOT
BRANCH   1  21
HETATM   21  C7  UNL     1       5.515  -1.109  15.751  1.00  0.00     0.180 C 
BRANCH  21  22
HETATM   22  C6  UNL     1       6.913  -1.530  15.449  1.00  0.00     0.115 C 
BRANCH  22  23
HETATM   23  N1  UNL     1       7.182  -2.895  15.488  1.00  0.00    -0.263 N 
BRANCH  23  24
HETATM   24  C5  UNL     1       7.714  -3.520  16.615  1.00  0.00     0.082 C 
BRANCH  24  25
HETATM   25  C4  UNL     1       9.190  -3.837  16.538  1.00  0.00     0.049 C 
BRANCH  25  26
HETATM   26  C2  UNL     1       9.485  -4.908  17.567  1.00  0.00    -0.018 C 
HETATM   27  C1  UNL     1       8.195  -5.678  17.887  1.00  0.00     0.010 C 
HETATM   28  C3  UNL     1      10.575  -5.844  17.164  1.00  0.00     0.010 C 
ENDBRANCH  25  26
ENDBRANCH  24  25
ENDBRANCH  23  24
BRANCH  23  29
HETATM   29  S1  UNL     1       6.484  -3.924  14.362  1.00  0.00     0.267 S 
HETATM   30  O5  UNL     1       7.403  -5.090  14.068  1.00  0.00    -0.200 OA
HETATM   31  O6  UNL     1       6.170  -3.256  13.059  1.00  0.00    -0.200 OA
BRANCH  29  32
HETATM   32  C25 UNL     1       4.962  -4.609  14.954  1.00  0.00     0.080 A 
HETATM   33  C26 UNL     1       4.935  -5.503  15.993  1.00  0.00     0.025 A 
HETATM   34  C27 UNL     1       3.734  -6.046  16.457  1.00  0.00     0.002 A 
HETATM   35  C28 UNL     1       2.543  -5.682  15.863  1.00  0.00     0.000 A 
HETATM   36  C29 UNL     1       2.556  -4.784  14.817  1.00  0.00     0.002 A 
HETATM   37  C30 UNL     1       3.771  -4.254  14.371  1.00  0.00     0.025 A 
ENDBRANCH  29  32
ENDBRANCH  23  29
ENDBRANCH  22  23
ENDBRANCH  21  22
BRANCH  21  38
HETATM   38  O1  UNL     1       5.336  -0.495  16.979  1.00  0.00    -0.388 OA
ATOM     39  H1  UNL     1       4.432  -0.397  17.254  1.00  0.00     0.210 HD
ENDBRANCH  21  38
ENDBRANCH   1  21
BRANCH  18  40
HETATM   40  O4  UNL     1       7.730   0.645  13.034  1.00  0.00    -0.348 OA
ATOM     41  H4  UNL     1       8.163  -0.198  12.976  1.00  0.00     0.219 HD
ENDBRANCH  18  40
BRANCH  17  42
HETATM   42  C21 UNL     1       7.209   2.457  11.425  1.00  0.00     0.008 C 
HETATM   43  C22 UNL     1       7.284   2.681   9.940  1.00  0.00     0.012 C 
HETATM   44  C23 UNL     1       7.198   3.769  12.188  1.00  0.00     0.012 C 
ENDBRANCH  17  42
TORSDOF 11
ENDMDL
