MODEL 4
REMARK VINA RESULT: -9.559157149      1.201      3.243
REMARK  11 active torsions:
REMARK  status: ('A' for Active; 'I' for Inactive)
REMARK    1  A    between atoms: C2_2  and  C4_4 
REMARK    2  A    between atoms: C4_4  and  C5_5 
REMARK    3  A    between atoms: C5_5  and  N1_6 
REMARK    4  A    between atoms: N1_6  and  C6_7 
REMARK    5  A    between atoms: N1_6  and  S1_36 
REMARK    6  A    between atoms: C6_7  and  C7_8 
REMARK    7  A    between atoms: C7_8  and  O1_9 
REMARK    8  A    between atoms: C7_8  and  C8_11 
REMARK    9  A    between atoms: C20_27  and  C21_28 
REMARK   10  A    between atoms: C24_31  and  O4_32 
REMARK   11  A    between atoms: S1_36  and  C25_39 
ROOT
HETATM    1  C8  UNL     1       5.674  -1.978  15.756  1.00  0.00     0.121 C 
HETATM    2  C9  UNL     1       7.045  -1.965  15.039  1.00  0.00     0.066 C 
HETATM    3  C10 UNL     1       7.818  -3.232  15.375  1.00  0.00    -0.056 A 
HETATM    4  C11 UNL     1       7.811  -4.334  14.553  1.00  0.00     0.010 A 
HETATM    5  C12 UNL     1       8.515  -5.513  14.921  1.00  0.00     0.037 A 
HETATM    6  C13 UNL     1       9.213  -5.605  16.083  1.00  0.00     0.068 A 
HETATM    7  C14 UNL     1       9.215  -4.508  16.886  1.00  0.00     0.037 A 
HETATM    8  C15 UNL     1       8.521  -3.311  16.550  1.00  0.00     0.010 A 
HETATM    9  O2  UNL     1       9.899  -6.774  16.443  1.00  0.00    -0.351 OA
HETATM   10  C16 UNL     1       9.340  -7.867  17.149  1.00  0.00     0.176 C 
HETATM   11  C17 UNL     1       8.466  -7.337  18.255  1.00  0.00     0.036 C 
HETATM   12  C18 UNL     1       7.050  -7.141  17.751  1.00  0.00     0.105 C 
HETATM   13  C19 UNL     1       6.392  -5.943  18.318  1.00  0.00     0.218 C 
HETATM   14  O3  UNL     1       6.593  -5.781  19.578  1.00  0.00    -0.274 OA
HETATM   15  N2  UNL     1       5.601  -5.001  17.641  1.00  0.00    -0.349 N 
ATOM     16  H2  UNL     1       5.739  -4.022  17.894  1.00  0.00     0.163 HD
HETATM   17  C20 UNL     1       4.618  -5.272  16.629  1.00  0.00     0.162 C 
HETATM   18  C24 UNL     1       4.149  -4.052  15.944  1.00  0.00     0.135 C 
HETATM   19  N3  UNL     1       4.874  -3.074  15.251  1.00  0.00    -0.365 N 
ATOM     20  H3  UNL     1       4.831  -3.145  14.234  1.00  0.00     0.161 HD
ENDROOT
BRANCH   1  21
HETATM   21  C7  UNL     1       5.004  -0.678  15.298  1.00  0.00     0.180 C 
BRANCH  21  22
HETATM   22  C6  UNL     1       3.610  -0.866  14.804  1.00  0.00     0.115 C 
BRANCH  22  23
HETATM   23  N1  UNL     1       3.314  -0.354  13.545  1.00  0.00    -0.263 N 
BRANCH  23  24
HETATM   24  C5  UNL     1       2.709   0.889  13.368  1.00  0.00     0.082 C 
BRANCH  24  25
HETATM   25  C4  UNL     1       1.288   0.846  12.853  1.00  0.00     0.049 C 
BRANCH  25  26
HETATM   26  C2  UNL     1       0.981   2.193  12.233  1.00  0.00    -0.018 C 
HETATM   27  C1  UNL     1       2.242   2.737  11.545  1.00  0.00     0.010 C 
HETATM   28  C3  UNL     1      -0.172   2.170  11.286  1.00  0.00     0.010 C 
ENDBRANCH  25  26
ENDBRANCH  24  25
ENDBRANCH  23  24
BRANCH  23  29
HETATM   29  S1  UNL     1       4.052  -0.992  12.180  1.00  0.00     0.267 S 
HETATM   30  O5  UNL     1       3.145  -0.858  10.975  1.00  0.00    -0.200 OA
HETATM   31  O6  UNL     1       4.409  -2.440  12.318  1.00  0.00    -0.200 OA
BRANCH  29  32
HETATM   32  C25 UNL     1       5.554  -0.139  11.788  1.00  0.00     0.080 A 
HETATM   33  C26 UNL     1       5.543   1.111  11.227  1.00  0.00     0.025 A 
HETATM   34  C27 UNL     1       6.728   1.781  10.915  1.00  0.00     0.002 A 
HETATM   35  C28 UNL     1       7.943   1.180  11.171  1.00  0.00     0.000 A 
HETATM   36  C29 UNL     1       7.969  -0.078  11.735  1.00  0.00     0.002 A 
HETATM   37  C30 UNL     1       6.769  -0.728  12.038  1.00  0.00     0.025 A 
ENDBRANCH  29  32
ENDBRANCH  23  29
ENDBRANCH  22  23
ENDBRANCH  21  22
BRANCH  21  38
HETATM   38  O1  UNL     1       5.166   0.321  16.243  1.00  0.00    -0.388 OA
ATOM     39  H1  UNL     1       5.360   0.020  17.122  1.00  0.00     0.210 HD
ENDBRANCH  21  38
ENDBRANCH   1  21
BRANCH  18  40
HETATM   40  O4  UNL     1       2.854  -3.877  16.005  1.00  0.00    -0.348 OA
ATOM     41  H4  UNL     1       2.469  -3.579  15.190  1.00  0.00     0.219 HD
ENDBRANCH  18  40
BRANCH  17  42
HETATM   42  C21 UNL     1       3.381  -5.956  17.247  1.00  0.00     0.008 C 
HETATM   43  C22 UNL     1       3.342  -7.431  16.952  1.00  0.00     0.012 C 
HETATM   44  C23 UNL     1       3.337  -5.683  18.738  1.00  0.00     0.012 C 
ENDBRANCH  17  42
TORSDOF 11
ENDMDL
