MODEL 20
REMARK VINA RESULT: -6.631066264      1.398      1.881
REMARK  4 active torsions:
REMARK  status: ('A' for Active; 'I' for Inactive)
REMARK    1  A    between atoms: N5_14  and  C6_15 
REMARK    2  A    between atoms: C8_17  and  O1_18 
REMARK    3  A    between atoms: C9_20  and  C10_21 
REMARK    4  A    between atoms: C10_21  and  O2_22 
ROOT
HETATM    1  N1  UNL     1     -18.969 -43.142 -12.680  1.00  0.00    -0.080 NA
HETATM    2  C1  UNL     1     -18.328 -42.561 -11.529  1.00  0.00     0.150 A 
HETATM    3  N2  UNL     1     -18.226 -41.227 -11.390  1.00  0.00    -0.305 N 
ATOM      4  H2  UNL     1     -18.610 -40.617 -12.112  1.00  0.00     0.171 HD
HETATM    5  C2  UNL     1     -17.628 -40.681 -10.315  1.00  0.00     0.268 A 
HETATM    6  F1  UNL     1     -17.549 -39.318 -10.218  1.00  0.00    -0.165 F 
HETATM    7  N3  UNL     1     -17.115 -41.469  -9.353  1.00  0.00    -0.302 N 
ATOM      8  H3  UNL     1     -16.666 -41.035  -8.547  1.00  0.00     0.171 HD
HETATM    9  C3  UNL     1     -17.177 -42.819  -9.422  1.00  0.00     0.144 A 
HETATM   10  C4  UNL     1     -17.796 -43.349 -10.534  1.00  0.00     0.119 A 
HETATM   11  N4  UNL     1     -17.737 -44.670 -10.380  1.00  0.00    -0.346 N 
ATOM     12  H4  UNL     1     -18.109 -45.356 -11.035  1.00  0.00     0.167 HD
HETATM   13  C5  UNL     1     -17.110 -44.960  -9.227  1.00  0.00     0.188 A 
HETATM   14  N5  UNL     1     -16.759 -43.818  -8.626  1.00  0.00    -0.300 N 
ENDROOT
BRANCH  14  15
HETATM   15  C6  UNL     1     -16.077 -43.658  -7.384  1.00  0.00     0.233 C 
HETATM   16  C7  UNL     1     -14.884 -42.700  -7.507  1.00  0.00     0.088 C 
HETATM   17  C8  UNL     1     -14.569 -42.552  -6.012  1.00  0.00     0.153 C 
HETATM   18  C9  UNL     1     -15.951 -42.647  -5.419  1.00  0.00     0.176 C 
HETATM   19  O3  UNL     1     -16.820 -43.014  -6.414  1.00  0.00    -0.356 OA
BRANCH  17  20
HETATM   20  O1  UNL     1     -13.859 -43.674  -5.598  1.00  0.00    -0.393 OA
ATOM     21  H1  UNL     1     -13.421 -43.467  -4.781  1.00  0.00     0.210 HD
ENDBRANCH  17  20
BRANCH  18  22
HETATM   22  C10 UNL     1     -16.277 -41.276  -4.840  1.00  0.00     0.198 C 
BRANCH  22  23
HETATM   23  O2  UNL     1     -15.162 -40.667  -4.284  1.00  0.00    -0.398 OA
ATOM     24  H2  UNL     1     -15.150 -39.731  -4.445  1.00  0.00     0.209 HD
ENDBRANCH  22  23
ENDBRANCH  18  22
ENDBRANCH  14  15
TORSDOF 4
ENDMDL
