MODEL 7
REMARK VINA RESULT: -6.952681444      4.676      7.077
REMARK  4 active torsions:
REMARK  status: ('A' for Active; 'I' for Inactive)
REMARK    1  A    between atoms: N5_14  and  C6_15 
REMARK    2  A    between atoms: C8_17  and  O1_18 
REMARK    3  A    between atoms: C9_20  and  C10_21 
REMARK    4  A    between atoms: C10_21  and  O2_22 
ROOT
HETATM    1  N1  UNL     1     -16.005 -44.403  -8.346  1.00  0.00    -0.080 NA
HETATM    2  C1  UNL     1     -16.978 -44.431  -9.409  1.00  0.00     0.150 A 
HETATM    3  N2  UNL     1     -17.596 -45.575  -9.755  1.00  0.00    -0.305 N 
ATOM      4  H2  UNL     1     -17.372 -46.436  -9.256  1.00  0.00     0.171 HD
HETATM    5  C2  UNL     1     -18.505 -45.604 -10.746  1.00  0.00     0.268 A 
HETATM    6  F1  UNL     1     -19.108 -46.792 -11.062  1.00  0.00    -0.165 F 
HETATM    7  N3  UNL     1     -18.812 -44.479 -11.416  1.00  0.00    -0.302 N 
ATOM      8  H3  UNL     1     -19.503 -44.523 -12.164  1.00  0.00     0.171 HD
HETATM    9  C3  UNL     1     -18.232 -43.290 -11.127  1.00  0.00     0.144 A 
HETATM   10  C4  UNL     1     -17.306 -43.291 -10.107  1.00  0.00     0.119 A 
HETATM   11  N4  UNL     1     -16.881 -42.033 -10.008  1.00  0.00    -0.346 N 
ATOM     12  H4  UNL     1     -16.187 -41.697  -9.342  1.00  0.00     0.167 HD
HETATM   13  C5  UNL     1     -17.509 -41.276 -10.923  1.00  0.00     0.188 A 
HETATM   14  N5  UNL     1     -18.349 -42.046 -11.622  1.00  0.00    -0.300 N 
ENDROOT
BRANCH  14  15
HETATM   15  C6  UNL     1     -19.212 -41.655 -12.687  1.00  0.00     0.233 C 
HETATM   16  C7  UNL     1     -20.525 -41.053 -12.168  1.00  0.00     0.088 C 
HETATM   17  C8  UNL     1     -21.062 -40.518 -13.503  1.00  0.00     0.153 C 
HETATM   18  C9  UNL     1     -19.779 -40.135 -14.193  1.00  0.00     0.176 C 
HETATM   19  O3  UNL     1     -18.731 -40.602 -13.442  1.00  0.00    -0.356 OA
BRANCH  17  20
HETATM   20  O1  UNL     1     -21.616 -41.579 -14.211  1.00  0.00    -0.393 OA
ATOM     21  H1  UNL     1     -22.430 -41.286 -14.603  1.00  0.00     0.210 HD
ENDBRANCH  17  20
BRANCH  18  22
HETATM   22  C10 UNL     1     -19.777 -38.616 -14.309  1.00  0.00     0.198 C 
BRANCH  22  23
HETATM   23  O2  UNL     1     -20.890 -38.047 -13.708  1.00  0.00    -0.398 OA
ATOM     24  H2  UNL     1     -20.768 -37.120 -13.536  1.00  0.00     0.209 HD
ENDBRANCH  22  23
ENDBRANCH  18  22
ENDBRANCH  14  15
TORSDOF 4
ENDMDL
