MODEL 6
REMARK VINA RESULT: -6.995241543      5.956      8.257
REMARK  4 active torsions:
REMARK  status: ('A' for Active; 'I' for Inactive)
REMARK    1  A    between atoms: N5_14  and  C6_15 
REMARK    2  A    between atoms: C8_17  and  O1_18 
REMARK    3  A    between atoms: C9_20  and  C10_21 
REMARK    4  A    between atoms: C10_21  and  O2_22 
ROOT
HETATM    1  N1  UNL     1     -21.136 -36.652 -18.029  1.00  0.00    -0.080 NA
HETATM    2  C1  UNL     1     -21.280 -37.862 -17.260  1.00  0.00     0.150 A 
HETATM    3  N2  UNL     1     -22.072 -38.864 -17.683  1.00  0.00    -0.305 N 
ATOM      4  H2  UNL     1     -22.578 -38.765 -18.562  1.00  0.00     0.171 HD
HETATM    5  C2  UNL     1     -22.207 -39.995 -16.967  1.00  0.00     0.268 A 
HETATM    6  F1  UNL     1     -23.024 -40.987 -17.439  1.00  0.00    -0.165 F 
HETATM    7  N3  UNL     1     -21.549 -40.143 -15.804  1.00  0.00    -0.302 N 
ATOM      8  H3  UNL     1     -21.665 -41.008 -15.277  1.00  0.00     0.171 HD
HETATM    9  C3  UNL     1     -20.735 -39.180 -15.312  1.00  0.00     0.144 A 
HETATM   10  C4  UNL     1     -20.615 -38.033 -16.067  1.00  0.00     0.119 A 
HETATM   11  N4  UNL     1     -19.778 -37.248 -15.393  1.00  0.00    -0.346 N 
ATOM     12  H4  UNL     1     -19.478 -36.318 -15.686  1.00  0.00     0.167 HD
HETATM   13  C5  UNL     1     -19.389 -37.869 -14.267  1.00  0.00     0.188 A 
HETATM   14  N5  UNL     1     -19.977 -39.068 -14.208  1.00  0.00    -0.300 N 
ENDROOT
BRANCH  14  15
HETATM   15  C6  UNL     1     -19.846 -40.056 -13.188  1.00  0.00     0.233 C 
HETATM   16  C7  UNL     1     -18.798 -41.117 -13.552  1.00  0.00     0.088 C 
HETATM   17  C8  UNL     1     -18.722 -41.822 -12.190  1.00  0.00     0.153 C 
HETATM   18  C9  UNL     1     -18.954 -40.663 -11.256  1.00  0.00     0.176 C 
HETATM   19  O3  UNL     1     -19.320 -39.575 -12.005  1.00  0.00    -0.356 OA
BRANCH  17  20
HETATM   20  O1  UNL     1     -19.813 -42.676 -12.075  1.00  0.00    -0.393 OA
ATOM     21  H1  UNL     1     -19.841 -43.010 -11.186  1.00  0.00     0.210 HD
ENDBRANCH  17  20
BRANCH  18  22
HETATM   22  C10 UNL     1     -17.649 -40.437 -10.502  1.00  0.00     0.198 C 
BRANCH  22  23
HETATM   23  O2  UNL     1     -16.860 -41.577 -10.474  1.00  0.00    -0.398 OA
ATOM     24  H2  UNL     1     -15.958 -41.380 -10.251  1.00  0.00     0.209 HD
ENDBRANCH  22  23
ENDBRANCH  18  22
ENDBRANCH  14  15
TORSDOF 4
ENDMDL
