MODEL 8
REMARK VINA RESULT: -6.902533978      4.253      6.678
REMARK  4 active torsions:
REMARK  status: ('A' for Active; 'I' for Inactive)
REMARK    1  A    between atoms: N5_14  and  C6_15 
REMARK    2  A    between atoms: C8_17  and  O1_18 
REMARK    3  A    between atoms: C9_20  and  C10_21 
REMARK    4  A    between atoms: C10_21  and  O2_22 
ROOT
HETATM    1  N1  UNL     1     -16.550 -45.542  -8.608  1.00  0.00    -0.080 NA
HETATM    2  C1  UNL     1     -16.946 -44.313  -9.246  1.00  0.00     0.150 A 
HETATM    3  N2  UNL     1     -16.500 -43.124  -8.801  1.00  0.00    -0.305 N 
ATOM      4  H2  UNL     1     -15.872 -43.094  -7.999  1.00  0.00     0.171 HD
HETATM    5  C2  UNL     1     -16.869 -41.974  -9.395  1.00  0.00     0.268 A 
HETATM    6  F1  UNL     1     -16.388 -40.789  -8.906  1.00  0.00    -0.165 F 
HETATM    7  N3  UNL     1     -17.698 -41.994 -10.453  1.00  0.00    -0.302 N 
ATOM      8  H3  UNL     1     -17.964 -41.112 -10.889  1.00  0.00     0.171 HD
HETATM    9  C3  UNL     1     -18.189 -43.150 -10.958  1.00  0.00     0.144 A 
HETATM   10  C4  UNL     1     -17.795 -44.311 -10.330  1.00  0.00     0.119 A 
HETATM   11  N4  UNL     1     -18.394 -45.298 -10.993  1.00  0.00    -0.346 N 
ATOM     12  H4  UNL     1     -18.307 -46.291 -10.776  1.00  0.00     0.167 HD
HETATM   13  C5  UNL     1     -19.133 -44.784 -11.991  1.00  0.00     0.188 A 
HETATM   14  N5  UNL     1     -19.012 -43.452 -11.978  1.00  0.00    -0.300 N 
ENDROOT
BRANCH  14  15
HETATM   15  C6  UNL     1     -19.621 -42.511 -12.858  1.00  0.00     0.233 C 
HETATM   16  C7  UNL     1     -20.971 -42.015 -12.319  1.00  0.00     0.088 C 
HETATM   17  C8  UNL     1     -21.198 -40.874 -13.321  1.00  0.00     0.153 C 
HETATM   18  C9  UNL     1     -19.783 -40.418 -13.560  1.00  0.00     0.176 C 
HETATM   19  O3  UNL     1     -18.936 -41.316 -12.963  1.00  0.00    -0.356 OA
BRANCH  17  20
HETATM   20  O1  UNL     1     -21.667 -41.420 -14.511  1.00  0.00    -0.393 OA
ATOM     21  H1  UNL     1     -21.017 -42.030 -14.838  1.00  0.00     0.210 HD
ENDBRANCH  17  20
BRANCH  18  22
HETATM   22  C10 UNL     1     -19.663 -39.022 -12.962  1.00  0.00     0.198 C 
BRANCH  22  23
HETATM   23  O2  UNL     1     -20.607 -38.150 -13.483  1.00  0.00    -0.398 OA
ATOM     24  H2  UNL     1     -20.564 -37.293 -13.075  1.00  0.00     0.209 HD
ENDBRANCH  22  23
ENDBRANCH  18  22
ENDBRANCH  14  15
TORSDOF 4
ENDMDL
