MODEL 15
REMARK VINA RESULT: -7.000245170      1.767      3.784
REMARK  12 active torsions:
REMARK  status: ('A' for Active; 'I' for Inactive)
REMARK    1  A    between atoms: O1_1  and  C1_3 
REMARK    2  A    between atoms: C1_3  and  C2_4 
REMARK    3  A    between atoms: C3_6  and  O3_7 
REMARK    4  A    between atoms: O3_7  and  C4_8 
REMARK    5  A    between atoms: C5_9  and  C6_10 
REMARK    6  A    between atoms: C6_10  and  O4_11 
REMARK    7  A    between atoms: C7_14  and  O6_15 
REMARK    8  A    between atoms: C8_17  and  O7_18 
REMARK    9  A    between atoms: C9_20  and  O8_21 
REMARK   10  A    between atoms: C10_23  and  O9_24 
REMARK   11  A    between atoms: C11_26  and  O10_27 
REMARK   12  A    between atoms: C12_29  and  O11_30 
ROOT
HETATM    1  O3  UNL     1       3.091  11.117  22.236  1.00  0.00    -0.348 OA
ENDROOT
BRANCH   1   2
HETATM    2  C3  UNL     1       3.092  10.436  23.451  1.00  0.00     0.292 C 
HETATM    3  O2  UNL     1       3.252  11.273  24.532  1.00  0.00    -0.348 OA
HETATM    4  C2  UNL     1       2.643  10.667  25.628  1.00  0.00     0.179 C 
HETATM    5  C12 UNL     1       3.103   9.238  25.811  1.00  0.00     0.180 C 
HETATM    6  C11 UNL     1       4.297   8.919  24.937  1.00  0.00     0.183 C 
HETATM    7  C10 UNL     1       4.106   9.344  23.507  1.00  0.00     0.204 C 
BRANCH   4   8
HETATM    8  C1  UNL     1       2.813  11.482  26.889  1.00  0.00     0.198 C 
BRANCH   8   9
HETATM    9  O1  UNL     1       1.648  11.561  27.638  1.00  0.00    -0.398 OA
ATOM     10  H1  UNL     1       1.611  12.340  28.180  1.00  0.00     0.209 HD
ENDBRANCH   8   9
ENDBRANCH   4   8
BRANCH   5  11
HETATM   11  O11 UNL     1       3.538   9.115  27.137  1.00  0.00    -0.390 OA
ATOM     12  H11 UNL     1       3.612   9.996  27.488  1.00  0.00     0.210 HD
ENDBRANCH   5  11
BRANCH   6  13
HETATM   13  O10 UNL     1       4.440   7.514  24.967  1.00  0.00    -0.390 OA
ATOM     14  H10 UNL     1       3.860   7.169  25.636  1.00  0.00     0.210 HD
ENDBRANCH   6  13
BRANCH   7  15
HETATM   15  O9  UNL     1       5.361   9.760  23.025  1.00  0.00    -0.388 OA
ATOM     16  H9  UNL     1       5.657   9.230  22.294  1.00  0.00     0.210 HD
ENDBRANCH   7  15
ENDBRANCH   1   2
BRANCH   1  17
HETATM   17  C4  UNL     1       2.499  12.361  22.307  1.00  0.00     0.187 C 
HETATM   18  C5  UNL     1       1.024  12.220  22.020  1.00  0.00     0.180 C 
HETATM   19  O5  UNL     1       0.376  13.438  21.894  1.00  0.00    -0.349 OA
HETATM   20  C7  UNL     1       0.938  14.263  20.936  1.00  0.00     0.288 C 
HETATM   21  C8  UNL     1       2.407  14.521  21.186  1.00  0.00     0.204 C 
HETATM   22  C9  UNL     1       3.195  13.259  21.310  1.00  0.00     0.183 C 
BRANCH  18  23
HETATM   23  C6  UNL     1       0.781  11.317  20.823  1.00  0.00     0.198 C 
BRANCH  23  24
HETATM   24  O4  UNL     1       0.366  10.073  21.297  1.00  0.00    -0.398 OA
ATOM     25  H4  UNL     1       0.106  10.176  22.205  1.00  0.00     0.209 HD
ENDBRANCH  23  24
ENDBRANCH  18  23
BRANCH  20  26
HETATM   26  O6  UNL     1       0.286  15.494  20.999  1.00  0.00    -0.369 OA
ATOM     27  H6  UNL     1       0.548  15.999  20.239  1.00  0.00     0.212 HD
ENDBRANCH  20  26
BRANCH  21  28
HETATM   28  O7  UNL     1       2.880  15.296  20.131  1.00  0.00    -0.388 OA
ATOM     29  H7  UNL     1       2.643  16.198  20.310  1.00  0.00     0.210 HD
ENDBRANCH  21  28
BRANCH  22  30
HETATM   30  O8  UNL     1       3.446  12.632  20.109  1.00  0.00    -0.390 OA
ATOM     31  H8  UNL     1       2.652  12.354  19.666  1.00  0.00     0.210 HD
ENDBRANCH  22  30
ENDBRANCH   1  17
TORSDOF 12
ENDMDL
