MODEL 17
REMARK VINA RESULT: -6.933491107      1.580      3.529
REMARK  12 active torsions:
REMARK  status: ('A' for Active; 'I' for Inactive)
REMARK    1  A    between atoms: O1_1  and  C1_3 
REMARK    2  A    between atoms: C1_3  and  C2_4 
REMARK    3  A    between atoms: C3_6  and  O3_7 
REMARK    4  A    between atoms: O3_7  and  C4_8 
REMARK    5  A    between atoms: C5_9  and  C6_10 
REMARK    6  A    between atoms: C6_10  and  O4_11 
REMARK    7  A    between atoms: C7_14  and  O6_15 
REMARK    8  A    between atoms: C8_17  and  O7_18 
REMARK    9  A    between atoms: C9_20  and  O8_21 
REMARK   10  A    between atoms: C10_23  and  O9_24 
REMARK   11  A    between atoms: C11_26  and  O10_27 
REMARK   12  A    between atoms: C12_29  and  O11_30 
ROOT
HETATM    1  O3  UNL     1       3.128  10.548  22.477  1.00  0.00    -0.348 OA
ENDROOT
BRANCH   1   2
HETATM    2  C3  UNL     1       3.393   9.580  23.442  1.00  0.00     0.292 C 
HETATM    3  O2  UNL     1       3.898  10.112  24.607  1.00  0.00    -0.348 OA
HETATM    4  C2  UNL     1       3.550   9.254  25.647  1.00  0.00     0.179 C 
HETATM    5  C12 UNL     1       3.926   7.820  25.345  1.00  0.00     0.180 C 
HETATM    6  C11 UNL     1       4.820   7.721  24.128  1.00  0.00     0.183 C 
HETATM    7  C10 UNL     1       4.295   8.498  22.952  1.00  0.00     0.204 C 
BRANCH   4   8
HETATM    8  C1  UNL     1       4.110   9.718  26.972  1.00  0.00     0.198 C 
BRANCH   8   9
HETATM    9  O1  UNL     1       5.484   9.910  26.936  1.00  0.00    -0.398 OA
ATOM     10  H1  UNL     1       5.847   9.800  26.066  1.00  0.00     0.209 HD
ENDBRANCH   8   9
ENDBRANCH   4   8
BRANCH   5  11
HETATM   11  O11 UNL     1       4.683   7.358  26.431  1.00  0.00    -0.390 OA
ATOM     12  H11 UNL     1       4.511   6.427  26.513  1.00  0.00     0.210 HD
ENDBRANCH   5  11
BRANCH   6  13
HETATM   13  O10 UNL     1       4.853   6.353  23.776  1.00  0.00    -0.390 OA
ATOM     14  H10 UNL     1       4.332   6.234  22.990  1.00  0.00     0.210 HD
ENDBRANCH   6  13
BRANCH   7  15
HETATM   15  O9  UNL     1       5.409   9.010  22.260  1.00  0.00    -0.388 OA
ATOM     16  H9  UNL     1       5.995   8.322  21.968  1.00  0.00     0.210 HD
ENDBRANCH   7  15
ENDBRANCH   1   2
BRANCH   1  17
HETATM   17  C4  UNL     1       2.053  11.354  22.790  1.00  0.00     0.187 C 
HETATM   18  C5  UNL     1       1.518  11.974  21.524  1.00  0.00     0.180 C 
HETATM   19  O5  UNL     1       0.549  12.936  21.757  1.00  0.00    -0.349 OA
HETATM   20  C7  UNL     1       0.971  13.946  22.603  1.00  0.00     0.288 C 
HETATM   21  C8  UNL     1       1.458  13.420  23.934  1.00  0.00     0.204 C 
HETATM   22  C9  UNL     1       2.529  12.390  23.783  1.00  0.00     0.183 C 
BRANCH  18  23
HETATM   23  C6  UNL     1       2.645  12.499  20.650  1.00  0.00     0.198 C 
BRANCH  23  24
HETATM   24  O4  UNL     1       3.025  11.479  19.777  1.00  0.00    -0.398 OA
ATOM     25  H4  UNL     1       2.239  11.034  19.485  1.00  0.00     0.209 HD
ENDBRANCH  23  24
ENDBRANCH  18  23
BRANCH  20  26
HETATM   26  O6  UNL     1      -0.124  14.770  22.861  1.00  0.00    -0.369 OA
ATOM     27  H6  UNL     1      -0.408  14.604  23.752  1.00  0.00     0.212 HD
ENDBRANCH  20  26
BRANCH  21  28
HETATM   28  O7  UNL     1       1.920  14.507  24.671  1.00  0.00    -0.388 OA
ATOM     29  H7  UNL     1       1.958  14.240  25.581  1.00  0.00     0.210 HD
ENDBRANCH  21  28
BRANCH  22  30
HETATM   30  O8  UNL     1       3.766  12.907  23.464  1.00  0.00    -0.390 OA
ATOM     31  H8  UNL     1       4.062  13.563  24.084  1.00  0.00     0.210 HD
ENDBRANCH  22  30
ENDBRANCH   1  17
TORSDOF 12
ENDMDL
