MODEL 4
REMARK VINA RESULT: -7.559424848      1.593      6.265
REMARK  12 active torsions:
REMARK  status: ('A' for Active; 'I' for Inactive)
REMARK    1  A    between atoms: O1_1  and  C1_3 
REMARK    2  A    between atoms: C1_3  and  C2_4 
REMARK    3  A    between atoms: C3_6  and  O3_7 
REMARK    4  A    between atoms: O3_7  and  C4_8 
REMARK    5  A    between atoms: C5_9  and  C6_10 
REMARK    6  A    between atoms: C6_10  and  O4_11 
REMARK    7  A    between atoms: C7_14  and  O6_15 
REMARK    8  A    between atoms: C8_17  and  O7_18 
REMARK    9  A    between atoms: C9_20  and  O8_21 
REMARK   10  A    between atoms: C10_23  and  O9_24 
REMARK   11  A    between atoms: C11_26  and  O10_27 
REMARK   12  A    between atoms: C12_29  and  O11_30 
ROOT
HETATM    1  O3  UNL     1       3.467  10.941  24.768  1.00  0.00    -0.348 OA
ENDROOT
BRANCH   1   2
HETATM    2  C3  UNL     1       2.543  11.265  23.777  1.00  0.00     0.292 C 
HETATM    3  O2  UNL     1       3.027  11.053  22.506  1.00  0.00    -0.348 OA
HETATM    4  C2  UNL     1       1.938  10.794  21.678  1.00  0.00     0.179 C 
HETATM    5  C12 UNL     1       0.859  11.844  21.820  1.00  0.00     0.180 C 
HETATM    6  C11 UNL     1       1.345  13.043  22.607  1.00  0.00     0.183 C 
HETATM    7  C10 UNL     1       2.028  12.659  23.892  1.00  0.00     0.204 C 
BRANCH   4   8
HETATM    8  C1  UNL     1       2.356  10.603  20.239  1.00  0.00     0.198 C 
BRANCH   8   9
HETATM    9  O1  UNL     1       3.095  11.672  19.749  1.00  0.00    -0.398 OA
ATOM     10  H1  UNL     1       2.666  12.113  19.026  1.00  0.00     0.209 HD
ENDBRANCH   8   9
ENDBRANCH   4   8
BRANCH   5  11
HETATM   11  O11 UNL     1       0.570  12.310  20.530  1.00  0.00    -0.390 OA
ATOM     12  H11 UNL     1       0.377  11.547  19.996  1.00  0.00     0.210 HD
ENDBRANCH   5  11
BRANCH   6  13
HETATM   13  O10 UNL     1       0.193  13.796  22.925  1.00  0.00    -0.390 OA
ATOM     14  H10 UNL     1       0.361  14.705  22.704  1.00  0.00     0.210 HD
ENDBRANCH   6  13
BRANCH   7  15
HETATM   15  O9  UNL     1       3.061  13.590  24.108  1.00  0.00    -0.388 OA
ATOM     16  H9  UNL     1       3.004  14.331  23.517  1.00  0.00     0.210 HD
ENDBRANCH   7  15
ENDBRANCH   1   2
BRANCH   1  17
HETATM   17  C4  UNL     1       3.429   9.613  25.139  1.00  0.00     0.187 C 
HETATM   18  C5  UNL     1       3.146   9.525  26.618  1.00  0.00     0.180 C 
HETATM   19  O5  UNL     1       3.264   8.238  27.117  1.00  0.00    -0.349 OA
HETATM   20  C7  UNL     1       4.496   7.662  26.865  1.00  0.00     0.288 C 
HETATM   21  C8  UNL     1       4.834   7.640  25.392  1.00  0.00     0.204 C 
HETATM   22  C9  UNL     1       4.759   8.995  24.769  1.00  0.00     0.183 C 
BRANCH  18  23
HETATM   23  C6  UNL     1       3.987  10.520  27.399  1.00  0.00     0.198 C 
BRANCH  23  24
HETATM   24  O4  UNL     1       3.346  11.758  27.352  1.00  0.00    -0.398 OA
ATOM     25  H4  UNL     1       3.714  12.252  26.629  1.00  0.00     0.209 HD
ENDBRANCH  23  24
ENDBRANCH  18  23
BRANCH  20  26
HETATM   26  O6  UNL     1       4.442   6.337  27.296  1.00  0.00    -0.369 OA
ATOM     27  H6  UNL     1       5.325   6.069  27.522  1.00  0.00     0.212 HD
ENDBRANCH  20  26
BRANCH  21  28
HETATM   28  O7  UNL     1       6.114   7.109  25.263  1.00  0.00    -0.388 OA
ATOM     29  H7  UNL     1       6.271   6.962  24.338  1.00  0.00     0.210 HD
ENDBRANCH  21  28
BRANCH  22  30
HETATM   30  O8  UNL     1       5.829   9.811  25.065  1.00  0.00    -0.390 OA
ATOM     31  H8  UNL     1       6.468   9.389  25.627  1.00  0.00     0.210 HD
ENDBRANCH  22  30
ENDBRANCH   1  17
TORSDOF 12
ENDMDL
