MODEL 14
REMARK VINA RESULT: -7.109370066      2.020      4.164
REMARK  12 active torsions:
REMARK  status: ('A' for Active; 'I' for Inactive)
REMARK    1  A    between atoms: O1_1  and  C1_3 
REMARK    2  A    between atoms: C1_3  and  C2_4 
REMARK    3  A    between atoms: C3_6  and  O3_7 
REMARK    4  A    between atoms: O3_7  and  C4_8 
REMARK    5  A    between atoms: C5_9  and  C6_10 
REMARK    6  A    between atoms: C6_10  and  O4_11 
REMARK    7  A    between atoms: C7_14  and  O6_15 
REMARK    8  A    between atoms: C8_17  and  O7_18 
REMARK    9  A    between atoms: C9_20  and  O8_21 
REMARK   10  A    between atoms: C10_23  and  O9_24 
REMARK   11  A    between atoms: C11_26  and  O10_27 
REMARK   12  A    between atoms: C12_29  and  O11_30 
ROOT
HETATM    1  O3  UNL     1       2.731  11.985  22.502  1.00  0.00    -0.348 OA
ENDROOT
BRANCH   1   2
HETATM    2  C3  UNL     1       2.713  11.222  23.666  1.00  0.00     0.292 C 
HETATM    3  O2  UNL     1       3.035  11.952  24.788  1.00  0.00    -0.348 OA
HETATM    4  C2  UNL     1       2.415  11.346  25.878  1.00  0.00     0.179 C 
HETATM    5  C12 UNL     1       2.701   9.862  25.937  1.00  0.00     0.180 C 
HETATM    6  C11 UNL     1       3.796   9.464  24.970  1.00  0.00     0.183 C 
HETATM    7  C10 UNL     1       3.582  10.013  23.586  1.00  0.00     0.204 C 
BRANCH   4   8
HETATM    8  C1  UNL     1       2.755  12.039  27.177  1.00  0.00     0.198 C 
BRANCH   8   9
HETATM    9  O1  UNL     1       1.785  11.857  28.152  1.00  0.00    -0.398 OA
ATOM     10  H1  UNL     1       2.013  12.267  28.978  1.00  0.00     0.209 HD
ENDBRANCH   8   9
ENDBRANCH   4   8
BRANCH   5  11
HETATM   11  O11 UNL     1       3.189   9.590  27.222  1.00  0.00    -0.390 OA
ATOM     12  H11 UNL     1       2.462   9.245  27.728  1.00  0.00     0.210 HD
ENDBRANCH   5  11
BRANCH   6  13
HETATM   13  O10 UNL     1       3.762   8.054  24.899  1.00  0.00    -0.390 OA
ATOM     14  H10 UNL     1       3.279   7.729  25.649  1.00  0.00     0.210 HD
ENDBRANCH   6  13
BRANCH   7  15
HETATM   15  O9  UNL     1       4.851  10.308  23.054  1.00  0.00    -0.388 OA
ATOM     16  H9  UNL     1       5.554  10.024  23.627  1.00  0.00     0.210 HD
ENDBRANCH   7  15
ENDBRANCH   1   2
BRANCH   1  17
HETATM   17  C4  UNL     1       1.616  12.784  22.353  1.00  0.00     0.187 C 
HETATM   18  C5  UNL     1       1.493  13.190  20.906  1.00  0.00     0.180 C 
HETATM   19  O5  UNL     1       0.504  14.136  20.690  1.00  0.00    -0.349 OA
HETATM   20  C7  UNL     1       0.656  15.276  21.460  1.00  0.00     0.288 C 
HETATM   21  C8  UNL     1       0.715  14.970  22.939  1.00  0.00     0.204 C 
HETATM   22  C9  UNL     1       1.776  13.973  23.273  1.00  0.00     0.183 C 
BRANCH  18  23
HETATM   23  C6  UNL     1       2.834  13.626  20.341  1.00  0.00     0.198 C 
BRANCH  23  24
HETATM   24  O4  UNL     1       3.264  12.647  19.445  1.00  0.00    -0.398 OA
ATOM     25  H4  UNL     1       3.840  12.054  19.913  1.00  0.00     0.209 HD
ENDBRANCH  23  24
ENDBRANCH  18  23
BRANCH  20  26
HETATM   26  O6  UNL     1      -0.461  16.083  21.250  1.00  0.00    -0.369 OA
ATOM     27  H6  UNL     1      -0.186  16.987  21.339  1.00  0.00     0.212 HD
ENDBRANCH  20  26
BRANCH  21  28
HETATM   28  O7  UNL     1       0.940  16.171  23.606  1.00  0.00    -0.388 OA
ATOM     29  H7  UNL     1       0.417  16.160  24.398  1.00  0.00     0.210 HD
ENDBRANCH  21  28
BRANCH  22  30
HETATM   30  O8  UNL     1       3.054  14.487  23.265  1.00  0.00    -0.390 OA
ATOM     31  H8  UNL     1       3.076  15.417  23.073  1.00  0.00     0.210 HD
ENDBRANCH  22  30
ENDBRANCH   1  17
TORSDOF 12
ENDMDL
