MODEL 5
REMARK VINA RESULT: -7.533029423      2.016      6.326
REMARK  12 active torsions:
REMARK  status: ('A' for Active; 'I' for Inactive)
REMARK    1  A    between atoms: O1_1  and  C1_3 
REMARK    2  A    between atoms: C1_3  and  C2_4 
REMARK    3  A    between atoms: C3_6  and  O3_7 
REMARK    4  A    between atoms: O3_7  and  C4_8 
REMARK    5  A    between atoms: C5_9  and  C6_10 
REMARK    6  A    between atoms: C6_10  and  O4_11 
REMARK    7  A    between atoms: C7_14  and  O6_15 
REMARK    8  A    between atoms: C8_17  and  O7_18 
REMARK    9  A    between atoms: C9_20  and  O8_21 
REMARK   10  A    between atoms: C10_23  and  O9_24 
REMARK   11  A    between atoms: C11_26  and  O10_27 
REMARK   12  A    between atoms: C12_29  and  O11_30 
ROOT
HETATM    1  O3  UNL     1       3.430  10.861  25.183  1.00  0.00    -0.348 OA
ENDROOT
BRANCH   1   2
HETATM    2  C3  UNL     1       2.585  11.013  24.087  1.00  0.00     0.292 C 
HETATM    3  O2  UNL     1       3.151  10.577  22.911  1.00  0.00    -0.348 OA
HETATM    4  C2  UNL     1       2.116  10.186  22.065  1.00  0.00     0.179 C 
HETATM    5  C12 UNL     1       1.053  11.255  21.942  1.00  0.00     0.180 C 
HETATM    6  C11 UNL     1       1.509  12.568  22.542  1.00  0.00     0.183 C 
HETATM    7  C10 UNL     1       2.092  12.411  23.919  1.00  0.00     0.204 C 
BRANCH   4   8
HETATM    8  C1  UNL     1       2.630   9.742  20.715  1.00  0.00     0.198 C 
BRANCH   8   9
HETATM    9  O1  UNL     1       1.960   8.630  20.225  1.00  0.00    -0.398 OA
ATOM     10  H1  UNL     1       2.465   8.153  19.578  1.00  0.00     0.209 HD
ENDBRANCH   8   9
ENDBRANCH   4   8
BRANCH   5  11
HETATM   11  O11 UNL     1       0.864  11.489  20.574  1.00  0.00    -0.390 OA
ATOM     12  H11 UNL     1       1.259  12.332  20.379  1.00  0.00     0.210 HD
ENDBRANCH   5  11
BRANCH   6  13
HETATM   13  O10 UNL     1       0.353  13.376  22.639  1.00  0.00    -0.390 OA
ATOM     14  H10 UNL     1       0.601  14.274  22.450  1.00  0.00     0.210 HD
ENDBRANCH   6  13
BRANCH   7  15
HETATM   15  O9  UNL     1       3.128  13.356  24.043  1.00  0.00    -0.388 OA
ATOM     16  H9  UNL     1       2.848  14.228  23.792  1.00  0.00     0.210 HD
ENDBRANCH   7  15
ENDBRANCH   1   2
BRANCH   1  17
HETATM   17  C4  UNL     1       3.089   9.799  25.994  1.00  0.00     0.187 C 
HETATM   18  C5  UNL     1       2.544  10.331  27.296  1.00  0.00     0.180 C 
HETATM   19  O5  UNL     1       2.339   9.342  28.244  1.00  0.00    -0.349 OA
HETATM   20  C7  UNL     1       3.471   8.592  28.509  1.00  0.00     0.288 C 
HETATM   21  C8  UNL     1       4.047   7.955  27.265  1.00  0.00     0.204 C 
HETATM   22  C9  UNL     1       4.328   8.954  26.191  1.00  0.00     0.183 C 
BRANCH  18  23
HETATM   23  C6  UNL     1       3.405  11.464  27.830  1.00  0.00     0.198 C 
BRANCH  23  24
HETATM   24  O4  UNL     1       3.018  12.640  27.188  1.00  0.00    -0.398 OA
ATOM     25  H4  UNL     1       3.770  12.979  26.717  1.00  0.00     0.209 HD
ENDBRANCH  23  24
ENDBRANCH  18  23
BRANCH  20  26
HETATM   26  O6  UNL     1       3.103   7.558  29.370  1.00  0.00    -0.369 OA
ATOM     27  H6  UNL     1       3.643   6.804  29.164  1.00  0.00     0.212 HD
ENDBRANCH  20  26
BRANCH  21  28
HETATM   28  O7  UNL     1       5.212   7.291  27.636  1.00  0.00    -0.388 OA
ATOM     29  H7  UNL     1       5.559   7.728  28.405  1.00  0.00     0.210 HD
ENDBRANCH  21  28
BRANCH  22  30
HETATM   30  O8  UNL     1       5.460   9.708  26.406  1.00  0.00    -0.390 OA
ATOM     31  H8  UNL     1       5.643  10.309  25.693  1.00  0.00     0.210 HD
ENDBRANCH  22  30
ENDBRANCH   1  17
TORSDOF 12
ENDMDL
