MODEL 2
REMARK VINA RESULT: -7.599673636      3.830      7.839
REMARK  12 active torsions:
REMARK  status: ('A' for Active; 'I' for Inactive)
REMARK    1  A    between atoms: O1_1  and  C1_3 
REMARK    2  A    between atoms: C1_3  and  C2_4 
REMARK    3  A    between atoms: C3_6  and  O3_7 
REMARK    4  A    between atoms: O3_7  and  C4_8 
REMARK    5  A    between atoms: C5_9  and  C6_10 
REMARK    6  A    between atoms: C6_10  and  O4_11 
REMARK    7  A    between atoms: C7_14  and  O6_15 
REMARK    8  A    between atoms: C8_17  and  O7_18 
REMARK    9  A    between atoms: C9_20  and  O8_21 
REMARK   10  A    between atoms: C10_23  and  O9_24 
REMARK   11  A    between atoms: C11_26  and  O10_27 
REMARK   12  A    between atoms: C12_29  and  O11_30 
ROOT
HETATM    1  O3  UNL     1       5.084   8.346  27.461  1.00  0.00    -0.348 OA
ENDROOT
BRANCH   1   2
HETATM    2  C3  UNL     1       5.072   7.803  26.179  1.00  0.00     0.292 C 
HETATM    3  O2  UNL     1       6.169   7.013  25.923  1.00  0.00    -0.348 OA
HETATM    4  C2  UNL     1       5.798   6.072  24.966  1.00  0.00     0.179 C 
HETATM    5  C12 UNL     1       5.140   6.717  23.766  1.00  0.00     0.180 C 
HETATM    6  C11 UNL     1       5.299   8.223  23.784  1.00  0.00     0.183 C 
HETATM    7  C10 UNL     1       4.934   8.833  25.109  1.00  0.00     0.204 C 
BRANCH   4   8
HETATM    8  C1  UNL     1       6.955   5.186  24.568  1.00  0.00     0.198 C 
BRANCH   8   9
HETATM    9  O1  UNL     1       8.052   5.906  24.118  1.00  0.00    -0.398 OA
ATOM     10  H1  UNL     1       7.812   6.613  23.532  1.00  0.00     0.209 HD
ENDBRANCH   8   9
ENDBRANCH   4   8
BRANCH   5  11
HETATM   11  O11 UNL     1       5.823   6.261  22.631  1.00  0.00    -0.390 OA
ATOM     12  H11 UNL     1       6.654   5.908  22.930  1.00  0.00     0.210 HD
ENDBRANCH   5  11
BRANCH   6  13
HETATM   13  O10 UNL     1       4.409   8.722  22.806  1.00  0.00    -0.390 OA
ATOM     14  H10 UNL     1       3.799   9.313  23.232  1.00  0.00     0.210 HD
ENDBRANCH   6  13
BRANCH   7  15
HETATM   15  O9  UNL     1       5.795   9.927  25.314  1.00  0.00    -0.388 OA
ATOM     16  H9  UNL     1       5.380  10.754  25.100  1.00  0.00     0.210 HD
ENDBRANCH   7  15
ENDBRANCH   1   2
BRANCH   1  17
HETATM   17  C4  UNL     1       5.435   7.437  28.437  1.00  0.00     0.187 C 
HETATM   18  C5  UNL     1       4.241   7.185  29.325  1.00  0.00     0.180 C 
HETATM   19  O5  UNL     1       4.545   6.421  30.440  1.00  0.00    -0.349 OA
HETATM   20  C7  UNL     1       5.567   6.951  31.208  1.00  0.00     0.288 C 
HETATM   21  C8  UNL     1       6.834   7.169  30.412  1.00  0.00     0.204 C 
HETATM   22  C9  UNL     1       6.608   8.010  29.199  1.00  0.00     0.183 C 
BRANCH  18  23
HETATM   23  C6  UNL     1       3.548   8.485  29.696  1.00  0.00     0.198 C 
BRANCH  23  24
HETATM   24  O4  UNL     1       2.345   8.549  28.993  1.00  0.00    -0.398 OA
ATOM     25  H4  UNL     1       2.514   8.975  28.160  1.00  0.00     0.209 HD
ENDBRANCH  23  24
ENDBRANCH  18  23
BRANCH  20  26
HETATM   26  O6  UNL     1       5.863   6.031  32.213  1.00  0.00    -0.369 OA
ATOM     27  H6  UNL     1       5.760   6.472  33.048  1.00  0.00     0.212 HD
ENDBRANCH  20  26
BRANCH  21  28
HETATM   28  O7  UNL     1       7.762   7.767  31.260  1.00  0.00    -0.388 OA
ATOM     29  H7  UNL     1       8.620   7.658  30.867  1.00  0.00     0.210 HD
ENDBRANCH  21  28
BRANCH  22  30
HETATM   30  O8  UNL     1       6.469   9.354  29.464  1.00  0.00    -0.390 OA
ATOM     31  H8  UNL     1       6.677   9.576  30.364  1.00  0.00     0.210 HD
ENDBRANCH  22  30
ENDBRANCH   1  17
TORSDOF 12
ENDMDL
