MODEL 2
REMARK VINA RESULT: -7.790683012      1.115      1.169
REMARK  7 active torsions:
REMARK  status: ('A' for Active; 'I' for Inactive)
REMARK    1  A    between atoms: O1_1  and  C1_3 
REMARK    2  A    between atoms: C1_3  and  C2_4 
REMARK    3  A    between atoms: C3_6  and  O3_7 
REMARK    4  A    between atoms: O3_7  and  P1_8 
REMARK    5  A    between atoms: C4_12  and  O7_13 
REMARK    6  A    between atoms: C5_15  and  O8_16 
REMARK    7  A    between atoms: C6_18  and  O9_19 
ROOT
HETATM    1  C2  UNL     1       6.340  -1.494  11.975  1.00  0.00     0.179 C 
HETATM    2  O2  UNL     1       6.153  -2.578  12.756  1.00  0.00    -0.348 OA
HETATM    3  C3  UNL     1       4.892  -3.097  12.843  1.00  0.00     0.305 C 
HETATM    4  C4  UNL     1       3.787  -2.084  12.870  1.00  0.00     0.205 C 
HETATM    5  C5  UNL     1       3.983  -0.979  11.856  1.00  0.00     0.183 C 
HETATM    6  C6  UNL     1       5.342  -0.378  12.178  1.00  0.00     0.180 C 
ENDROOT
BRANCH   3   7
HETATM    7  O3  UNL     1       4.622  -4.031  11.879  1.00  0.00    -0.249 OA
BRANCH   7   8
HETATM    8  P1  UNL     1       4.605  -5.583  12.212  1.00  0.00     0.424 P 
HETATM    9  O4  UNL     1       3.089  -5.791  12.034  1.00  0.00    -0.617 OA
HETATM   10  O5  UNL     1       4.801  -6.744  10.967  1.00  0.00    -0.617 OA
HETATM   11  O6  UNL     1       4.532  -6.177  13.762  1.00  0.00    -0.617 OA
ENDBRANCH   7   8
ENDBRANCH   3   7
BRANCH   4  12
HETATM   12  O7  UNL     1       2.569  -2.708  12.682  1.00  0.00    -0.388 OA
ATOM     13  H7  UNL     1       1.879  -2.059  12.608  1.00  0.00     0.210 HD
ENDBRANCH   4  12
BRANCH   1  14
HETATM   14  C1  UNL     1       7.715  -0.901  12.314  1.00  0.00     0.198 C 
BRANCH  14  15
HETATM   15  O1  UNL     1       7.924   0.297  11.628  1.00  0.00    -0.398 OA
ATOM     16  H1  UNL     1       8.697   0.743  11.953  1.00  0.00     0.209 HD
ENDBRANCH  14  15
ENDBRANCH   1  14
BRANCH   5  17
HETATM   17  O8  UNL     1       2.971  -0.052  12.053  1.00  0.00    -0.390 OA
ATOM     18  H8  UNL     1       3.380   0.761  12.324  1.00  0.00     0.210 HD
ENDBRANCH   5  17
BRANCH   6  19
HETATM   19  O9  UNL     1       5.361   0.031  13.502  1.00  0.00    -0.390 OA
ATOM     20  H9  UNL     1       4.594   0.560  13.685  1.00  0.00     0.210 HD
ENDBRANCH   6  19
TORSDOF 7
ENDMDL
