MODEL 7
REMARK VINA RESULT: -6.589994163      2.062      4.676
REMARK  7 active torsions:
REMARK  status: ('A' for Active; 'I' for Inactive)
REMARK    1  A    between atoms: O1_1  and  C1_3 
REMARK    2  A    between atoms: C1_3  and  C2_4 
REMARK    3  A    between atoms: C3_6  and  O3_7 
REMARK    4  A    between atoms: O3_7  and  P1_8 
REMARK    5  A    between atoms: C4_12  and  O7_13 
REMARK    6  A    between atoms: C5_15  and  O8_16 
REMARK    7  A    between atoms: C6_18  and  O9_19 
ROOT
HETATM    1  C2  UNL     1       4.765  -4.805  12.582  1.00  0.00     0.179 C 
HETATM    2  O2  UNL     1       5.676  -4.221  11.777  1.00  0.00    -0.348 OA
HETATM    3  C3  UNL     1       5.944  -2.895  11.967  1.00  0.00     0.305 C 
HETATM    4  C4  UNL     1       4.756  -2.050  12.318  1.00  0.00     0.205 C 
HETATM    5  C5  UNL     1       3.859  -2.701  13.346  1.00  0.00     0.183 C 
HETATM    6  C6  UNL     1       3.471  -4.043  12.745  1.00  0.00     0.180 C 
ENDROOT
BRANCH   3   7
HETATM    7  O3  UNL     1       6.942  -2.668  12.877  1.00  0.00    -0.249 OA
BRANCH   7   8
HETATM    8  P1  UNL     1       8.267  -1.892  12.475  1.00  0.00     0.424 P 
HETATM    9  O4  UNL     1       8.748  -1.597  13.909  1.00  0.00    -0.617 OA
HETATM   10  O5  UNL     1       9.744  -2.738  12.270  1.00  0.00    -0.617 OA
HETATM   11  O6  UNL     1       8.294  -0.273  12.104  1.00  0.00    -0.617 OA
ENDBRANCH   7   8
ENDBRANCH   3   7
BRANCH   4  12
HETATM   12  O7  UNL     1       5.173  -0.806  12.752  1.00  0.00    -0.388 OA
ATOM     13  H7  UNL     1       4.536  -0.145  12.505  1.00  0.00     0.210 HD
ENDBRANCH   4  12
BRANCH   1  14
HETATM   14  C1  UNL     1       4.385  -6.157  11.960  1.00  0.00     0.198 C 
BRANCH  14  15
HETATM   15  O1  UNL     1       4.728  -6.196  10.607  1.00  0.00    -0.398 OA
ATOM     16  H1  UNL     1       5.366  -6.881  10.438  1.00  0.00     0.209 HD
ENDBRANCH  14  15
ENDBRANCH   1  14
BRANCH   5  17
HETATM   17  O8  UNL     1       2.748  -1.887  13.502  1.00  0.00    -0.390 OA
ATOM     18  H8  UNL     1       2.157  -2.325  14.103  1.00  0.00     0.210 HD
ENDBRANCH   5  17
BRANCH   6  19
HETATM   19  O9  UNL     1       2.889  -3.839  11.504  1.00  0.00    -0.390 OA
ATOM     20  H9  UNL     1       3.549  -3.914  10.825  1.00  0.00     0.210 HD
ENDBRANCH   6  19
TORSDOF 7
ENDMDL
