MODEL 3
REMARK VINA RESULT: -7.776060633      0.400      1.077
REMARK  7 active torsions:
REMARK  status: ('A' for Active; 'I' for Inactive)
REMARK    1  A    between atoms: O1_1  and  C1_3 
REMARK    2  A    between atoms: C1_3  and  C2_4 
REMARK    3  A    between atoms: C3_6  and  O3_7 
REMARK    4  A    between atoms: O3_7  and  P1_8 
REMARK    5  A    between atoms: C4_12  and  O7_13 
REMARK    6  A    between atoms: C5_15  and  O8_16 
REMARK    7  A    between atoms: C6_18  and  O9_19 
ROOT
HETATM    1  C2  UNL     1       7.198  -2.370  12.335  1.00  0.00     0.179 C 
HETATM    2  O2  UNL     1       6.640  -3.396  13.008  1.00  0.00    -0.348 OA
HETATM    3  C3  UNL     1       5.316  -3.660  12.793  1.00  0.00     0.305 C 
HETATM    4  C4  UNL     1       4.446  -2.451  12.621  1.00  0.00     0.205 C 
HETATM    5  C5  UNL     1       5.069  -1.405  11.725  1.00  0.00     0.183 C 
HETATM    6  C6  UNL     1       6.411  -1.080  12.363  1.00  0.00     0.180 C 
ENDROOT
BRANCH   3   7
HETATM    7  O3  UNL     1       5.096  -4.523  11.753  1.00  0.00    -0.249 OA
BRANCH   7   8
HETATM    8  P1  UNL     1       4.141  -5.781  11.910  1.00  0.00     0.424 P 
HETATM    9  O4  UNL     1       4.824  -6.663  10.847  1.00  0.00    -0.617 OA
HETATM   10  O5  UNL     1       4.515  -7.025  13.027  1.00  0.00    -0.617 OA
HETATM   11  O6  UNL     1       2.683  -5.916  11.124  1.00  0.00    -0.617 OA
ENDBRANCH   7   8
ENDBRANCH   3   7
BRANCH   4  12
HETATM   12  O7  UNL     1       3.205  -2.825  12.144  1.00  0.00    -0.388 OA
ATOM     13  H7  UNL     1       2.602  -2.093  12.197  1.00  0.00     0.210 HD
ENDBRANCH   4  12
BRANCH   1  14
HETATM   14  C1  UNL     1       8.550  -2.056  12.993  1.00  0.00     0.198 C 
BRANCH  14  15
HETATM   15  O1  UNL     1       9.591  -2.703  12.326  1.00  0.00    -0.398 OA
ATOM     16  H1  UNL     1       9.776  -3.546  12.723  1.00  0.00     0.209 HD
ENDBRANCH  14  15
ENDBRANCH   1  14
BRANCH   5  17
HETATM   17  O8  UNL     1       4.235  -0.299  11.736  1.00  0.00    -0.390 OA
ATOM     18  H8  UNL     1       4.405   0.193  10.941  1.00  0.00     0.210 HD
ENDBRANCH   5  17
BRANCH   6  19
HETATM   19  O9  UNL     1       6.211  -0.684  13.676  1.00  0.00    -0.390 OA
ATOM     20  H9  UNL     1       6.460   0.227  13.777  1.00  0.00     0.210 HD
ENDBRANCH   6  19
TORSDOF 7
ENDMDL
