MODEL 4
REMARK VINA RESULT: -7.128715752      2.318      4.918
REMARK  7 active torsions:
REMARK  status: ('A' for Active; 'I' for Inactive)
REMARK    1  A    between atoms: O1_1  and  C1_3 
REMARK    2  A    between atoms: C1_3  and  C2_4 
REMARK    3  A    between atoms: C3_6  and  O3_7 
REMARK    4  A    between atoms: O3_7  and  P1_8 
REMARK    5  A    between atoms: C4_12  and  O7_13 
REMARK    6  A    between atoms: C5_15  and  O8_16 
REMARK    7  A    between atoms: C6_18  and  O9_19 
ROOT
HETATM    1  C2  UNL     1       5.775  -0.702  11.822  1.00  0.00     0.179 C 
HETATM    2  O2  UNL     1       6.570  -0.645  12.909  1.00  0.00    -0.348 OA
HETATM    3  C3  UNL     1       6.970  -1.822  13.475  1.00  0.00     0.305 C 
HETATM    4  C4  UNL     1       5.933  -2.905  13.490  1.00  0.00     0.205 C 
HETATM    5  C5  UNL     1       5.185  -3.017  12.181  1.00  0.00     0.183 C 
HETATM    6  C6  UNL     1       4.594  -1.636  11.940  1.00  0.00     0.180 C 
ENDROOT
BRANCH   3   7
HETATM    7  O3  UNL     1       8.128  -2.317  12.939  1.00  0.00    -0.249 OA
BRANCH   7   8
HETATM    8  P1  UNL     1       9.472  -1.472  12.949  1.00  0.00     0.424 P 
HETATM    9  O4  UNL     1      10.276  -2.396  12.015  1.00  0.00    -0.617 OA
HETATM   10  O5  UNL     1       9.737  -0.243  11.785  1.00  0.00    -0.617 OA
HETATM   11  O6  UNL     1      10.627  -1.620  14.134  1.00  0.00    -0.617 OA
ENDBRANCH   7   8
ENDBRANCH   3   7
BRANCH   4  12
HETATM   12  O7  UNL     1       6.515  -4.113  13.824  1.00  0.00    -0.388 OA
ATOM     13  H7  UNL     1       7.259  -3.968  14.396  1.00  0.00     0.210 HD
ENDBRANCH   4  12
BRANCH   1  14
HETATM   14  C1  UNL     1       5.187   0.698  11.595  1.00  0.00     0.198 C 
BRANCH  14  15
HETATM   15  O1  UNL     1       4.854   1.302  12.809  1.00  0.00    -0.398 OA
ATOM     16  H1  UNL     1       3.962   1.090  13.060  1.00  0.00     0.209 HD
ENDBRANCH  14  15
ENDBRANCH   1  14
BRANCH   5  17
HETATM   17  O8  UNL     1       4.186  -3.961  12.353  1.00  0.00    -0.390 OA
ATOM     18  H8  UNL     1       4.509  -4.783  12.002  1.00  0.00     0.210 HD
ENDBRANCH   5  17
BRANCH   6  19
HETATM   19  O9  UNL     1       3.817  -1.273  13.029  1.00  0.00    -0.390 OA
ATOM     20  H9  UNL     1       4.109  -0.434  13.364  1.00  0.00     0.210 HD
ENDBRANCH   6  19
TORSDOF 7
ENDMDL
