MODEL 5
REMARK VINA RESULT: -7.081388417      1.146      1.490
REMARK  7 active torsions:
REMARK  status: ('A' for Active; 'I' for Inactive)
REMARK    1  A    between atoms: O1_1  and  C1_3 
REMARK    2  A    between atoms: C1_3  and  C2_4 
REMARK    3  A    between atoms: C3_6  and  O3_7 
REMARK    4  A    between atoms: O3_7  and  P1_8 
REMARK    5  A    between atoms: C4_12  and  O7_13 
REMARK    6  A    between atoms: C5_15  and  O8_16 
REMARK    7  A    between atoms: C6_18  and  O9_19 
ROOT
HETATM    1  C2  UNL     1       6.418  -1.502  11.944  1.00  0.00     0.179 C 
HETATM    2  O2  UNL     1       6.211  -2.635  12.646  1.00  0.00    -0.348 OA
HETATM    3  C3  UNL     1       4.948  -3.154  12.670  1.00  0.00     0.305 C 
HETATM    4  C4  UNL     1       3.845  -2.140  12.740  1.00  0.00     0.205 C 
HETATM    5  C5  UNL     1       4.066  -0.970  11.808  1.00  0.00     0.183 C 
HETATM    6  C6  UNL     1       5.420  -0.398  12.200  1.00  0.00     0.180 C 
ENDROOT
BRANCH   3   7
HETATM    7  O3  UNL     1       4.696  -4.019  11.639  1.00  0.00    -0.249 OA
BRANCH   7   8
HETATM    8  P1  UNL     1       3.871  -5.356  11.864  1.00  0.00     0.424 P 
HETATM    9  O4  UNL     1       4.399  -6.108  10.627  1.00  0.00    -0.617 OA
HETATM   10  O5  UNL     1       4.526  -6.640  12.791  1.00  0.00    -0.617 OA
HETATM   11  O6  UNL     1       2.304  -5.552  11.347  1.00  0.00    -0.617 OA
ENDBRANCH   7   8
ENDBRANCH   3   7
BRANCH   4  12
HETATM   12  O7  UNL     1       2.629  -2.744  12.484  1.00  0.00    -0.388 OA
ATOM     13  H7  UNL     1       2.755  -3.506  11.931  1.00  0.00     0.210 HD
ENDBRANCH   4  12
BRANCH   1  14
HETATM   14  C1  UNL     1       7.787  -0.939  12.352  1.00  0.00     0.198 C 
BRANCH  14  15
HETATM   15  O1  UNL     1       8.057   0.254  11.678  1.00  0.00    -0.398 OA
ATOM     16  H1  UNL     1       7.475   0.362  10.935  1.00  0.00     0.209 HD
ENDBRANCH  14  15
ENDBRANCH   1  14
BRANCH   5  17
HETATM   17  O8  UNL     1       3.053  -0.054  12.045  1.00  0.00    -0.390 OA
ATOM     18  H8  UNL     1       3.058   0.140  12.975  1.00  0.00     0.210 HD
ENDBRANCH   5  17
BRANCH   6  19
HETATM   19  O9  UNL     1       5.411  -0.079  13.549  1.00  0.00    -0.390 OA
ATOM     20  H9  UNL     1       4.530   0.151  13.817  1.00  0.00     0.210 HD
ENDBRANCH   6  19
TORSDOF 7
ENDMDL
