MODEL 1
REMARK VINA RESULT: -7.838070822      0.000      0.000
REMARK  7 active torsions:
REMARK  status: ('A' for Active; 'I' for Inactive)
REMARK    1  A    between atoms: O1_1  and  C1_3 
REMARK    2  A    between atoms: C1_3  and  C2_4 
REMARK    3  A    between atoms: C3_6  and  O3_7 
REMARK    4  A    between atoms: O3_7  and  P1_8 
REMARK    5  A    between atoms: C4_12  and  O7_13 
REMARK    6  A    between atoms: C5_15  and  O8_16 
REMARK    7  A    between atoms: C6_18  and  O9_19 
ROOT
HETATM    1  C2  UNL     1       6.989  -2.270  12.335  1.00  0.00     0.179 C 
HETATM    2  O2  UNL     1       6.363  -3.241  13.031  1.00  0.00    -0.348 OA
HETATM    3  C3  UNL     1       5.025  -3.422  12.819  1.00  0.00     0.305 C 
HETATM    4  C4  UNL     1       4.237  -2.163  12.614  1.00  0.00     0.205 C 
HETATM    5  C5  UNL     1       4.929  -1.184  11.694  1.00  0.00     0.183 C 
HETATM    6  C6  UNL     1       6.289  -0.932  12.328  1.00  0.00     0.180 C 
ENDROOT
BRANCH   3   7
HETATM    7  O3  UNL     1       4.751  -4.295  11.800  1.00  0.00    -0.249 OA
BRANCH   7   8
HETATM    8  P1  UNL     1       4.541  -5.844  12.073  1.00  0.00     0.424 P 
HETATM    9  O4  UNL     1       3.079  -5.918  11.591  1.00  0.00    -0.617 OA
HETATM   10  O5  UNL     1       4.888  -6.998  10.854  1.00  0.00    -0.617 OA
HETATM   11  O6  UNL     1       4.110  -6.454  13.557  1.00  0.00    -0.617 OA
ENDBRANCH   7   8
ENDBRANCH   3   7
BRANCH   4  12
HETATM   12  O7  UNL     1       2.975  -2.467  12.142  1.00  0.00    -0.388 OA
ATOM     13  H7  UNL     1       2.608  -1.717  11.688  1.00  0.00     0.210 HD
ENDBRANCH   4  12
BRANCH   1  14
HETATM   14  C1  UNL     1       8.357  -2.030  12.989  1.00  0.00     0.198 C 
BRANCH  14  15
HETATM   15  O1  UNL     1       9.362  -2.728  12.316  1.00  0.00    -0.398 OA
ATOM     16  H1  UNL     1      10.194  -2.275  12.384  1.00  0.00     0.209 HD
ENDBRANCH  14  15
ENDBRANCH   1  14
BRANCH   5  17
HETATM   17  O8  UNL     1       4.169  -0.025  11.674  1.00  0.00    -0.390 OA
ATOM     18  H8  UNL     1       3.947   0.154  10.768  1.00  0.00     0.210 HD
ENDBRANCH   5  17
BRANCH   6  19
HETATM   19  O9  UNL     1       6.113  -0.490  13.630  1.00  0.00    -0.390 OA
ATOM     20  H9  UNL     1       6.566   0.336  13.751  1.00  0.00     0.210 HD
ENDBRANCH   6  19
TORSDOF 7
ENDMDL
