MODEL 8
REMARK VINA RESULT: -6.517863191      2.299      4.774
REMARK  7 active torsions:
REMARK  status: ('A' for Active; 'I' for Inactive)
REMARK    1  A    between atoms: O1_1  and  C1_3 
REMARK    2  A    between atoms: C1_3  and  C2_4 
REMARK    3  A    between atoms: C3_6  and  O3_7 
REMARK    4  A    between atoms: O3_7  and  P1_8 
REMARK    5  A    between atoms: C4_12  and  O7_13 
REMARK    6  A    between atoms: C5_15  and  O8_16 
REMARK    7  A    between atoms: C6_18  and  O9_19 
ROOT
HETATM    1  C2  UNL     1       5.436  -3.630  13.399  1.00  0.00     0.179 C 
HETATM    2  O2  UNL     1       6.618  -3.578  12.752  1.00  0.00    -0.348 OA
HETATM    3  C3  UNL     1       7.104  -2.350  12.400  1.00  0.00     0.305 C 
HETATM    4  C4  UNL     1       6.071  -1.366  11.938  1.00  0.00     0.205 C 
HETATM    5  C5  UNL     1       4.833  -1.367  12.806  1.00  0.00     0.183 C 
HETATM    6  C6  UNL     1       4.331  -2.803  12.784  1.00  0.00     0.180 C 
ENDROOT
BRANCH   3   7
HETATM    7  O3  UNL     1       7.873  -1.771  13.373  1.00  0.00    -0.249 OA
BRANCH   7   8
HETATM    8  P1  UNL     1       9.380  -1.355  13.099  1.00  0.00     0.424 P 
HETATM    9  O4  UNL     1       9.781  -2.624  12.322  1.00  0.00    -0.617 OA
HETATM   10  O5  UNL     1       9.800  -0.486  11.683  1.00  0.00    -0.617 OA
HETATM   11  O6  UNL     1      10.604  -1.606  14.194  1.00  0.00    -0.617 OA
ENDBRANCH   7   8
ENDBRANCH   3   7
BRANCH   4  12
HETATM   12  O7  UNL     1       6.620  -0.100  11.873  1.00  0.00    -0.388 OA
ATOM     13  H7  UNL     1       6.246   0.381  11.144  1.00  0.00     0.210 HD
ENDBRANCH   4  12
BRANCH   1  14
HETATM   14  C1  UNL     1       4.945  -5.084  13.366  1.00  0.00     0.198 C 
BRANCH  14  15
HETATM   15  O1  UNL     1       5.299  -5.757  14.537  1.00  0.00    -0.398 OA
ATOM     16  H1  UNL     1       4.893  -5.353  15.296  1.00  0.00     0.209 HD
ENDBRANCH  14  15
ENDBRANCH   1  14
BRANCH   5  17
HETATM   17  O8  UNL     1       3.915  -0.511  12.219  1.00  0.00    -0.390 OA
ATOM     18  H8  UNL     1       3.181  -0.429  12.817  1.00  0.00     0.210 HD
ENDBRANCH   5  17
BRANCH   6  19
HETATM   19  O9  UNL     1       4.127  -3.197  11.471  1.00  0.00    -0.390 OA
ATOM     20  H9  UNL     1       3.870  -2.448  10.948  1.00  0.00     0.210 HD
ENDBRANCH   6  19
TORSDOF 7
ENDMDL
