MODEL 10
REMARK VINA RESULT: -8.436654699      2.961      5.250
REMARK  7 active torsions:
REMARK  status: ('A' for Active; 'I' for Inactive)
REMARK    1  A    between atoms: N1_2  and  C3_4 
REMARK    2  A    between atoms: C3_4  and  C4_5 
REMARK    3  A    between atoms: N3_10  and  C7_11 
REMARK    4  A    between atoms: C10_14  and  N4_15 
REMARK       I    between atoms: N4_15  and  C11_17 
REMARK    5  A    between atoms: C11_17  and  C12_19 
REMARK    6  A    between atoms: C14_21  and  C15_22 
REMARK    7  A    between atoms: N6_28  and  C16_29 
ROOT
HETATM    1  C12 UNL     1       6.935  29.043  56.285  1.00  0.00     0.127 A 
HETATM    2  C13 UNL     1       8.223  28.478  56.212  1.00  0.00     0.073 A 
HETATM    3  C14 UNL     1       8.179  27.568  55.174  1.00  0.00     0.135 A 
HETATM    4  N5  UNL     1       6.955  27.622  54.702  1.00  0.00    -0.289 N 
ATOM      5  H5  UNL     1       6.626  27.053  53.923  1.00  0.00     0.187 HD
HETATM    6  N6  UNL     1       6.171  28.519  55.365  1.00  0.00    -0.251 N 
ENDROOT
BRANCH   1   7
HETATM    7  C11 UNL     1       6.659  30.100  57.289  1.00  0.00     0.274 C 
HETATM    8  N4  UNL     1       7.530  31.146  57.640  1.00  0.00    -0.319 N 
ATOM      9  H4  UNL     1       8.416  31.201  57.138  1.00  0.00     0.169 HD
HETATM   10  O1  UNL     1       5.565  30.050  57.875  1.00  0.00    -0.266 OA
BRANCH   8  11
HETATM   11  C10 UNL     1       7.284  32.145  58.644  1.00  0.00     0.074 A 
HETATM   12  C9  UNL     1       7.118  33.468  58.390  1.00  0.00     0.035 A 
HETATM   13  C8  UNL     1       6.849  34.390  59.421  1.00  0.00     0.032 A 
HETATM   14  C7  UNL     1       6.745  33.995  60.725  1.00  0.00     0.043 A 
HETATM   15  C24 UNL     1       6.917  32.634  60.996  1.00  0.00     0.074 A 
HETATM   16  C23 UNL     1       7.178  31.742  59.982  1.00  0.00     0.145 A 
HETATM   17  F4  UNL     1       7.345  30.432  60.278  1.00  0.00    -0.204 F 
BRANCH  14  18
HETATM   18  N3  UNL     1       6.447  34.927  61.756  1.00  0.00    -0.309 N 
HETATM   19  C4  UNL     1       7.331  35.501  62.591  1.00  0.00     0.116 A 
HETATM   20  N2  UNL     1       6.681  36.327  63.418  1.00  0.00    -0.353 N 
HETATM   21  C5  UNL     1       5.376  36.306  63.142  1.00  0.00     0.107 A 
ATOM     22  H2  UNL     1       7.117  36.889  64.149  1.00  0.00     0.166 HD
HETATM   23  C6  UNL     1       5.222  35.422  62.093  1.00  0.00     0.115 A 
BRANCH  19  24
HETATM   24  C3  UNL     1       8.814  35.282  62.602  1.00  0.00     0.348 C 
BRANCH  24  25
HETATM   25  N1  UNL     1       9.375  36.106  61.559  1.00  0.00     0.086 N 
HETATM   26  C1  UNL     1      10.057  37.226  62.209  1.00  0.00     0.309 C 
HETATM   27  C2  UNL     1      10.244  35.339  60.701  1.00  0.00     0.309 C 
ENDBRANCH  24  25
ENDBRANCH  19  24
ENDBRANCH  14  18
ENDBRANCH   8  11
ENDBRANCH   1   7
BRANCH   6  28
HETATM   28  C16 UNL     1       4.818  28.702  54.975  1.00  0.00     0.058 A 
HETATM   29  C17 UNL     1       4.115  29.856  54.849  1.00  0.00     0.034 A 
HETATM   30  C18 UNL     1       2.801  29.919  54.424  1.00  0.00     0.042 A 
HETATM   31  C19 UNL     1       2.110  28.748  54.088  1.00  0.00     0.112 A 
HETATM   32  O2  UNL     1       0.896  28.486  53.666  1.00  0.00    -0.236 OA
HETATM   33  C21 UNL     1       2.802  27.573  54.204  1.00  0.00     0.045 A 
HETATM   34  N7  UNL     1       0.765  27.179  53.498  1.00  0.00    -0.246 N 
HETATM   35  C20 UNL     1       1.940  26.562  53.825  1.00  0.00     0.149 A 
ATOM     36  H7  UNL     1      -0.080  26.707  53.175  1.00  0.00     0.196 HD
HETATM   37  N8  UNL     1       2.302  25.203  53.806  1.00  0.00    -0.080 NA
HETATM   38  C22 UNL     1       4.101  27.534  54.631  1.00  0.00     0.049 A 
ENDBRANCH   6  28
BRANCH   3  39
HETATM   39  C15 UNL     1       9.338  26.714  54.722  1.00  0.00     0.434 C 
HETATM   40  F1  UNL     1      10.469  27.182  55.367  1.00  0.00    -0.165 F 
HETATM   41  F2  UNL     1       9.135  25.418  55.101  1.00  0.00    -0.165 F 
HETATM   42  F3  UNL     1       9.555  26.848  53.363  1.00  0.00    -0.165 F 
ENDBRANCH   3  39
TORSDOF 7
ENDMDL
