MODEL 1
REMARK VINA RESULT: -10.620727659      0.000      0.000
REMARK  7 active torsions:
REMARK  status: ('A' for Active; 'I' for Inactive)
REMARK    1  A    between atoms: N1_2  and  C3_4 
REMARK    2  A    between atoms: C3_4  and  C4_5 
REMARK    3  A    between atoms: N3_10  and  C7_11 
REMARK    4  A    between atoms: C10_14  and  N4_15 
REMARK       I    between atoms: N4_15  and  C11_17 
REMARK    5  A    between atoms: C11_17  and  C12_19 
REMARK    6  A    between atoms: C14_21  and  C15_22 
REMARK    7  A    between atoms: N6_28  and  C16_29 
ROOT
HETATM    1  C12 UNL     1       5.362  28.988  55.853  1.00  0.00     0.127 A 
HETATM    2  C13 UNL     1       3.995  28.815  55.562  1.00  0.00     0.073 A 
HETATM    3  C14 UNL     1       3.931  27.795  54.633  1.00  0.00     0.135 A 
HETATM    4  N5  UNL     1       5.173  27.426  54.421  1.00  0.00    -0.289 N 
ATOM      5  H5  UNL     1       5.438  26.682  53.775  1.00  0.00     0.187 HD
HETATM    6  N6  UNL     1       6.071  28.140  55.157  1.00  0.00    -0.251 N 
ENDROOT
BRANCH   1   7
HETATM    7  C11 UNL     1       5.771  29.999  56.858  1.00  0.00     0.274 C 
HETATM    8  N4  UNL     1       6.962  30.745  56.835  1.00  0.00    -0.319 N 
ATOM      9  H4  UNL     1       7.585  30.600  56.040  1.00  0.00     0.169 HD
HETATM   10  O1  UNL     1       4.996  30.197  57.808  1.00  0.00    -0.266 OA
BRANCH   8  11
HETATM   11  C10 UNL     1       7.382  31.693  57.830  1.00  0.00     0.074 A 
HETATM   12  C9  UNL     1       8.123  31.384  58.925  1.00  0.00     0.035 A 
HETATM   13  C8  UNL     1       8.525  32.370  59.847  1.00  0.00     0.032 A 
HETATM   14  C7  UNL     1       8.187  33.684  59.682  1.00  0.00     0.043 A 
HETATM   15  C24 UNL     1       7.422  34.011  58.559  1.00  0.00     0.074 A 
HETATM   16  C23 UNL     1       7.034  33.040  57.664  1.00  0.00     0.145 A 
HETATM   17  F4  UNL     1       6.289  33.388  56.589  1.00  0.00    -0.204 F 
BRANCH  14  18
HETATM   18  N3  UNL     1       8.620  34.677  60.603  1.00  0.00    -0.309 N 
HETATM   19  C4  UNL     1       7.912  35.172  61.632  1.00  0.00     0.116 A 
HETATM   20  N2  UNL     1       8.651  36.081  62.277  1.00  0.00    -0.353 N 
HETATM   21  C5  UNL     1       9.841  36.196  61.685  1.00  0.00     0.107 A 
ATOM     22  H2  UNL     1       8.351  36.606  63.098  1.00  0.00     0.166 HD
HETATM   23  C6  UNL     1       9.827  35.312  60.626  1.00  0.00     0.115 A 
BRANCH  19  24
HETATM   24  C3  UNL     1       6.522  34.773  62.028  1.00  0.00     0.348 C 
BRANCH  24  25
HETATM   25  N1  UNL     1       6.638  33.887  63.161  1.00  0.00     0.086 N 
HETATM   26  C1  UNL     1       5.913  34.505  64.272  1.00  0.00     0.309 C 
HETATM   27  C2  UNL     1       6.158  32.566  62.840  1.00  0.00     0.309 C 
ENDBRANCH  24  25
ENDBRANCH  19  24
ENDBRANCH  14  18
ENDBRANCH   8  11
ENDBRANCH   1   7
BRANCH   6  28
HETATM   28  C16 UNL     1       7.459  27.862  55.047  1.00  0.00     0.058 A 
HETATM   29  C17 UNL     1       8.289  27.290  55.957  1.00  0.00     0.034 A 
HETATM   30  C18 UNL     1       9.627  27.031  55.728  1.00  0.00     0.042 A 
HETATM   31  C19 UNL     1      10.210  27.359  54.497  1.00  0.00     0.112 A 
HETATM   32  O2  UNL     1      11.414  27.245  53.990  1.00  0.00    -0.236 OA
HETATM   33  C21 UNL     1       9.389  27.933  53.563  1.00  0.00     0.045 A 
HETATM   34  N7  UNL     1      11.414  27.721  52.755  1.00  0.00    -0.246 N 
HETATM   35  C20 UNL     1      10.161  28.167  52.442  1.00  0.00     0.149 A 
ATOM     36  H7  UNL     1      12.224  27.751  52.134  1.00  0.00     0.196 HD
HETATM   37  N8  UNL     1       9.658  28.745  51.263  1.00  0.00    -0.080 NA
HETATM   38  C22 UNL     1       8.068  28.183  53.814  1.00  0.00     0.049 A 
ENDBRANCH   6  28
BRANCH   3  39
HETATM   39  C15 UNL     1       2.660  27.258  54.022  1.00  0.00     0.434 C 
HETATM   40  F1  UNL     1       2.995  26.115  53.316  1.00  0.00    -0.165 F 
HETATM   41  F2  UNL     1       1.782  26.910  55.007  1.00  0.00    -0.165 F 
HETATM   42  F3  UNL     1       2.124  28.156  53.118  1.00  0.00    -0.165 F 
ENDBRANCH   3  39
TORSDOF 7
ENDMDL
