MODEL 2
REMARK VINA RESULT: -10.413249599      0.795      1.241
REMARK  7 active torsions:
REMARK  status: ('A' for Active; 'I' for Inactive)
REMARK    1  A    between atoms: N1_2  and  C3_4 
REMARK    2  A    between atoms: C3_4  and  C4_5 
REMARK    3  A    between atoms: N3_10  and  C7_11 
REMARK    4  A    between atoms: C10_14  and  N4_15 
REMARK       I    between atoms: N4_15  and  C11_17 
REMARK    5  A    between atoms: C11_17  and  C12_19 
REMARK    6  A    between atoms: C14_21  and  C15_22 
REMARK    7  A    between atoms: N6_28  and  C16_29 
ROOT
HETATM    1  C12 UNL     1       5.182  29.165  56.005  1.00  0.00     0.127 A 
HETATM    2  C13 UNL     1       3.812  29.000  55.723  1.00  0.00     0.073 A 
HETATM    3  C14 UNL     1       3.728  27.905  54.886  1.00  0.00     0.135 A 
HETATM    4  N5  UNL     1       4.962  27.489  54.715  1.00  0.00    -0.289 N 
ATOM      5  H5  UNL     1       5.211  26.686  54.137  1.00  0.00     0.187 HD
HETATM    6  N6  UNL     1       5.873  28.244  55.391  1.00  0.00    -0.251 N 
ENDROOT
BRANCH   1   7
HETATM    7  C11 UNL     1       5.611  30.251  56.921  1.00  0.00     0.274 C 
HETATM    8  N4  UNL     1       6.851  30.912  56.886  1.00  0.00    -0.319 N 
ATOM      9  H4  UNL     1       7.500  30.643  56.147  1.00  0.00     0.169 HD
HETATM   10  O1  UNL     1       4.806  30.599  57.800  1.00  0.00    -0.266 OA
BRANCH   8  11
HETATM   11  C10 UNL     1       7.287  31.933  57.800  1.00  0.00     0.074 A 
HETATM   12  C9  UNL     1       7.044  33.260  57.646  1.00  0.00     0.035 A 
HETATM   13  C8  UNL     1       7.475  34.205  58.597  1.00  0.00     0.032 A 
HETATM   14  C7  UNL     1       8.160  33.830  59.719  1.00  0.00     0.043 A 
HETATM   15  C24 UNL     1       8.417  32.465  59.884  1.00  0.00     0.074 A 
HETATM   16  C23 UNL     1       7.991  31.550  58.950  1.00  0.00     0.145 A 
HETATM   17  F4  UNL     1       8.260  30.237  59.136  1.00  0.00    -0.204 F 
BRANCH  14  18
HETATM   18  N3  UNL     1       8.569  34.787  60.687  1.00  0.00    -0.309 N 
HETATM   19  C4  UNL     1       7.846  35.216  61.736  1.00  0.00     0.116 A 
HETATM   20  N2  UNL     1       8.564  36.109  62.427  1.00  0.00    -0.353 N 
HETATM   21  C5  UNL     1       9.753  36.277  61.847  1.00  0.00     0.107 A 
ATOM     22  H2  UNL     1       8.249  36.588  63.271  1.00  0.00     0.166 HD
HETATM   23  C6  UNL     1       9.762  35.444  60.747  1.00  0.00     0.115 A 
BRANCH  19  24
HETATM   24  C3  UNL     1       6.463  34.770  62.105  1.00  0.00     0.348 C 
BRANCH  24  25
HETATM   25  N1  UNL     1       6.593  33.842  63.203  1.00  0.00     0.086 N 
HETATM   26  C1  UNL     1       5.895  34.423  64.350  1.00  0.00     0.309 C 
HETATM   27  C2  UNL     1       6.095  32.538  62.842  1.00  0.00     0.309 C 
ENDBRANCH  24  25
ENDBRANCH  19  24
ENDBRANCH  14  18
ENDBRANCH   8  11
ENDBRANCH   1   7
BRANCH   6  28
HETATM   28  C16 UNL     1       7.255  27.925  55.314  1.00  0.00     0.058 A 
HETATM   29  C17 UNL     1       8.059  27.381  56.262  1.00  0.00     0.034 A 
HETATM   30  C18 UNL     1       9.392  27.076  56.065  1.00  0.00     0.042 A 
HETATM   31  C19 UNL     1       9.998  27.324  54.826  1.00  0.00     0.112 A 
HETATM   32  O2  UNL     1      11.205  27.153  54.342  1.00  0.00    -0.236 OA
HETATM   33  C21 UNL     1       9.204  27.870  53.853  1.00  0.00     0.045 A 
HETATM   34  N7  UNL     1      11.232  27.564  53.084  1.00  0.00    -0.246 N 
HETATM   35  C20 UNL     1       9.995  28.025  52.732  1.00  0.00     0.149 A 
ATOM     36  H7  UNL     1      12.049  27.541  52.473  1.00  0.00     0.196 HD
HETATM   37  N8  UNL     1       9.521  28.553  51.518  1.00  0.00    -0.080 NA
HETATM   38  C22 UNL     1       7.887  28.166  54.074  1.00  0.00     0.049 A 
ENDBRANCH   6  28
BRANCH   3  39
HETATM   39  C15 UNL     1       2.447  27.346  54.317  1.00  0.00     0.434 C 
HETATM   40  F1  UNL     1       2.092  28.145  53.244  1.00  0.00    -0.165 F 
HETATM   41  F2  UNL     1       2.659  26.079  53.853  1.00  0.00    -0.165 F 
HETATM   42  F3  UNL     1       1.420  27.416  55.238  1.00  0.00    -0.165 F 
ENDBRANCH   3  39
TORSDOF 7
ENDMDL
