MODEL 3
REMARK VINA RESULT: -10.113854641      1.212      1.461
REMARK  7 active torsions:
REMARK  status: ('A' for Active; 'I' for Inactive)
REMARK    1  A    between atoms: N1_2  and  C3_4 
REMARK    2  A    between atoms: C3_4  and  C4_5 
REMARK    3  A    between atoms: N3_10  and  C7_11 
REMARK    4  A    between atoms: C10_14  and  N4_15 
REMARK       I    between atoms: N4_15  and  C11_17 
REMARK    5  A    between atoms: C11_17  and  C12_19 
REMARK    6  A    between atoms: C14_21  and  C15_22 
REMARK    7  A    between atoms: N6_28  and  C16_29 
ROOT
HETATM    1  C12 UNL     1       6.286  28.730  55.664  1.00  0.00     0.127 A 
HETATM    2  C13 UNL     1       4.894  28.520  55.686  1.00  0.00     0.073 A 
HETATM    3  C14 UNL     1       4.650  27.504  54.784  1.00  0.00     0.135 A 
HETATM    4  N5  UNL     1       5.822  27.170  54.295  1.00  0.00    -0.289 N 
ATOM      5  H5  UNL     1       5.954  26.438  53.597  1.00  0.00     0.187 HD
HETATM    6  N6  UNL     1       6.842  27.907  54.818  1.00  0.00    -0.251 N 
ENDROOT
BRANCH   1   7
HETATM    7  C11 UNL     1       6.883  29.748  56.563  1.00  0.00     0.274 C 
HETATM    8  N4  UNL     1       6.195  30.816  57.166  1.00  0.00    -0.319 N 
ATOM      9  H4  UNL     1       5.192  30.877  56.994  1.00  0.00     0.169 HD
HETATM   10  O1  UNL     1       8.098  29.652  56.798  1.00  0.00    -0.266 OA
BRANCH   8  11
HETATM   11  C10 UNL     1       6.779  31.829  58.002  1.00  0.00     0.074 A 
HETATM   12  C9  UNL     1       6.909  33.135  57.654  1.00  0.00     0.035 A 
HETATM   13  C8  UNL     1       7.464  34.082  58.536  1.00  0.00     0.032 A 
HETATM   14  C7  UNL     1       7.900  33.730  59.783  1.00  0.00     0.043 A 
HETATM   15  C24 UNL     1       7.773  32.387  60.148  1.00  0.00     0.074 A 
HETATM   16  C23 UNL     1       7.228  31.469  59.280  1.00  0.00     0.145 A 
HETATM   17  F4  UNL     1       7.123  30.175  59.661  1.00  0.00    -0.204 F 
BRANCH  14  18
HETATM   18  N3  UNL     1       8.435  34.697  60.677  1.00  0.00    -0.309 N 
HETATM   19  C4  UNL     1       7.811  35.228  61.743  1.00  0.00     0.116 A 
HETATM   20  N2  UNL     1       8.632  36.094  62.345  1.00  0.00    -0.353 N 
HETATM   21  C5  UNL     1       9.793  36.146  61.690  1.00  0.00     0.107 A 
ATOM     22  H2  UNL     1       8.405  36.634  63.180  1.00  0.00     0.166 HD
HETATM   23  C6  UNL     1       9.674  35.265  60.634  1.00  0.00     0.115 A 
BRANCH  19  24
HETATM   24  C3  UNL     1       6.424  34.904  62.212  1.00  0.00     0.348 C 
BRANCH  24  25
HETATM   25  N1  UNL     1       6.553  34.155  63.439  1.00  0.00     0.086 N 
HETATM   26  C1  UNL     1       5.981  34.971  64.510  1.00  0.00     0.309 C 
HETATM   27  C2  UNL     1       5.931  32.859  63.324  1.00  0.00     0.309 C 
ENDBRANCH  24  25
ENDBRANCH  19  24
ENDBRANCH  14  18
ENDBRANCH   8  11
ENDBRANCH   1   7
BRANCH   6  28
HETATM   28  C16 UNL     1       8.177  27.668  54.397  1.00  0.00     0.058 A 
HETATM   29  C17 UNL     1       9.089  26.798  54.902  1.00  0.00     0.034 A 
HETATM   30  C18 UNL     1      10.359  26.621  54.385  1.00  0.00     0.042 A 
HETATM   31  C19 UNL     1      10.778  27.360  53.271  1.00  0.00     0.112 A 
HETATM   32  O2  UNL     1      11.885  27.420  52.570  1.00  0.00    -0.236 OA
HETATM   33  C21 UNL     1       9.872  28.241  52.743  1.00  0.00     0.045 A 
HETATM   34  N7  UNL     1      11.739  28.307  51.599  1.00  0.00    -0.246 N 
HETATM   35  C20 UNL     1      10.488  28.851  51.667  1.00  0.00     0.149 A 
ATOM     36  H7  UNL     1      12.450  28.547  50.907  1.00  0.00     0.196 HD
HETATM   37  N8  UNL     1       9.860  29.819  50.864  1.00  0.00    -0.080 NA
HETATM   38  C22 UNL     1       8.622  28.402  53.274  1.00  0.00     0.049 A 
ENDBRANCH   6  28
BRANCH   3  39
HETATM   39  C15 UNL     1       3.289  26.934  54.468  1.00  0.00     0.434 C 
HETATM   40  F1  UNL     1       3.405  26.230  53.281  1.00  0.00    -0.165 F 
HETATM   41  F2  UNL     1       2.912  26.061  55.447  1.00  0.00    -0.165 F 
HETATM   42  F3  UNL     1       2.363  27.939  54.260  1.00  0.00    -0.165 F 
ENDBRANCH   3  39
TORSDOF 7
ENDMDL
