MODEL 7
REMARK VINA RESULT: -8.648435294      2.913      5.109
REMARK  7 active torsions:
REMARK  status: ('A' for Active; 'I' for Inactive)
REMARK    1  A    between atoms: N1_2  and  C3_4 
REMARK    2  A    between atoms: C3_4  and  C4_5 
REMARK    3  A    between atoms: N3_10  and  C7_11 
REMARK    4  A    between atoms: C10_14  and  N4_15 
REMARK       I    between atoms: N4_15  and  C11_17 
REMARK    5  A    between atoms: C11_17  and  C12_19 
REMARK    6  A    between atoms: C14_21  and  C15_22 
REMARK    7  A    between atoms: N6_28  and  C16_29 
ROOT
HETATM    1  C12 UNL     1       7.492  28.568  55.917  1.00  0.00     0.127 A 
HETATM    2  C13 UNL     1       8.846  28.186  55.853  1.00  0.00     0.073 A 
HETATM    3  C14 UNL     1       8.953  27.358  54.753  1.00  0.00     0.135 A 
HETATM    4  N5  UNL     1       7.747  27.285  54.241  1.00  0.00    -0.289 N 
ATOM      5  H5  UNL     1       7.519  26.738  53.411  1.00  0.00     0.187 HD
HETATM    6  N6  UNL     1       6.831  28.018  54.935  1.00  0.00    -0.251 N 
ENDROOT
BRANCH   1   7
HETATM    7  C11 UNL     1       7.049  29.501  56.983  1.00  0.00     0.274 C 
HETATM    8  N4  UNL     1       7.627  30.749  57.274  1.00  0.00    -0.319 N 
ATOM      9  H4  UNL     1       8.399  31.053  56.680  1.00  0.00     0.169 HD
HETATM   10  O1  UNL     1       6.088  29.144  57.683  1.00  0.00    -0.266 OA
BRANCH   8  11
HETATM   11  C10 UNL     1       7.229  31.635  58.333  1.00  0.00     0.074 A 
HETATM   12  C9  UNL     1       7.128  31.279  59.639  1.00  0.00     0.035 A 
HETATM   13  C8  UNL     1       6.760  32.208  60.632  1.00  0.00     0.032 A 
HETATM   14  C7  UNL     1       6.486  33.512  60.326  1.00  0.00     0.043 A 
HETATM   15  C24 UNL     1       6.585  33.886  58.982  1.00  0.00     0.074 A 
HETATM   16  C23 UNL     1       6.946  32.972  58.021  1.00  0.00     0.145 A 
HETATM   17  F4  UNL     1       7.027  33.365  56.728  1.00  0.00    -0.204 F 
BRANCH  14  18
HETATM   18  N3  UNL     1       6.142  34.450  61.337  1.00  0.00    -0.309 N 
HETATM   19  C4  UNL     1       6.984  35.015  62.219  1.00  0.00     0.116 A 
HETATM   20  N2  UNL     1       6.299  35.850  63.007  1.00  0.00    -0.353 N 
HETATM   21  C5  UNL     1       5.011  35.843  62.659  1.00  0.00     0.107 A 
ATOM     22  H2  UNL     1       6.700  36.408  63.760  1.00  0.00     0.166 HD
HETATM   23  C6  UNL     1       4.906  34.959  61.604  1.00  0.00     0.115 A 
BRANCH  19  24
HETATM   24  C3  UNL     1       8.462  34.778  62.314  1.00  0.00     0.348 C 
BRANCH  24  25
HETATM   25  N1  UNL     1       9.097  35.659  61.363  1.00  0.00     0.086 N 
HETATM   26  C1  UNL     1       9.725  36.740  62.123  1.00  0.00     0.309 C 
HETATM   27  C2  UNL     1      10.028  34.940  60.530  1.00  0.00     0.309 C 
ENDBRANCH  24  25
ENDBRANCH  19  24
ENDBRANCH  14  18
ENDBRANCH   8  11
ENDBRANCH   1   7
BRANCH   6  28
HETATM   28  C16 UNL     1       5.477  28.049  54.509  1.00  0.00     0.058 A 
HETATM   29  C17 UNL     1       4.705  27.034  54.046  1.00  0.00     0.034 A 
HETATM   30  C18 UNL     1       3.376  27.171  53.691  1.00  0.00     0.042 A 
HETATM   31  C19 UNL     1       2.740  28.415  53.801  1.00  0.00     0.112 A 
HETATM   32  O2  UNL     1       1.530  28.854  53.551  1.00  0.00    -0.236 OA
HETATM   33  C21 UNL     1       3.500  29.452  54.271  1.00  0.00     0.045 A 
HETATM   34  N7  UNL     1       1.466  30.144  53.842  1.00  0.00    -0.246 N 
HETATM   35  C20 UNL     1       2.682  30.566  54.299  1.00  0.00     0.149 A 
ATOM     36  H7  UNL     1       0.637  30.731  53.741  1.00  0.00     0.196 HD
HETATM   37  N8  UNL     1       3.113  31.831  54.736  1.00  0.00    -0.080 NA
HETATM   38  C22 UNL     1       4.815  29.293  54.612  1.00  0.00     0.049 A 
ENDBRANCH   6  28
BRANCH   3  39
HETATM   39  C15 UNL     1      10.228  26.701  54.284  1.00  0.00     0.434 C 
HETATM   40  F1  UNL     1      10.101  25.343  54.523  1.00  0.00    -0.165 F 
HETATM   41  F2  UNL     1      10.378  26.885  52.940  1.00  0.00    -0.165 F 
HETATM   42  F3  UNL     1      11.316  27.146  55.012  1.00  0.00    -0.165 F 
ENDBRANCH   3  39
TORSDOF 7
ENDMDL
