MODEL 9
REMARK VINA RESULT: -8.557678887      3.623     10.161
REMARK  7 active torsions:
REMARK  status: ('A' for Active; 'I' for Inactive)
REMARK    1  A    between atoms: N1_2  and  C3_4 
REMARK    2  A    between atoms: C3_4  and  C4_5 
REMARK    3  A    between atoms: N3_10  and  C7_11 
REMARK    4  A    between atoms: C10_14  and  N4_15 
REMARK       I    between atoms: N4_15  and  C11_17 
REMARK    5  A    between atoms: C11_17  and  C12_19 
REMARK    6  A    between atoms: C14_21  and  C15_22 
REMARK    7  A    between atoms: N6_28  and  C16_29 
ROOT
HETATM    1  C12 UNL     1       6.239  33.402  62.442  1.00  0.00     0.127 A 
HETATM    2  C13 UNL     1       5.347  33.319  63.528  1.00  0.00     0.073 A 
HETATM    3  C14 UNL     1       5.850  34.166  64.496  1.00  0.00     0.135 A 
HETATM    4  N5  UNL     1       6.943  34.683  63.986  1.00  0.00    -0.289 N 
ATOM      5  H5  UNL     1       7.534  35.353  64.480  1.00  0.00     0.187 HD
HETATM    6  N6  UNL     1       7.205  34.232  62.726  1.00  0.00    -0.251 N 
ENDROOT
BRANCH   1   7
HETATM    7  C11 UNL     1       5.958  32.627  61.208  1.00  0.00     0.274 C 
HETATM    8  N4  UNL     1       6.546  31.399  60.858  1.00  0.00    -0.319 N 
ATOM      9  H4  UNL     1       7.199  30.990  61.526  1.00  0.00     0.169 HD
HETATM   10  O1  UNL     1       5.137  33.111  60.411  1.00  0.00    -0.266 OA
BRANCH   8  11
HETATM   11  C10 UNL     1       6.309  30.668  59.643  1.00  0.00     0.074 A 
HETATM   12  C9  UNL     1       5.324  29.748  59.476  1.00  0.00     0.035 A 
HETATM   13  C8  UNL     1       5.130  29.090  58.246  1.00  0.00     0.032 A 
HETATM   14  C7  UNL     1       5.925  29.345  57.164  1.00  0.00     0.043 A 
HETATM   15  C24 UNL     1       6.943  30.288  57.328  1.00  0.00     0.074 A 
HETATM   16  C23 UNL     1       7.124  30.927  58.533  1.00  0.00     0.145 A 
HETATM   17  F4  UNL     1       8.123  31.832  58.661  1.00  0.00    -0.204 F 
BRANCH  14  18
HETATM   18  N3  UNL     1       5.705  28.695  55.919  1.00  0.00    -0.309 N 
HETATM   19  C4  UNL     1       6.652  28.248  55.076  1.00  0.00     0.116 A 
HETATM   20  N2  UNL     1       6.063  27.687  54.014  1.00  0.00    -0.353 N 
HETATM   21  C5  UNL     1       4.738  27.759  54.142  1.00  0.00     0.107 A 
ATOM     22  H2  UNL     1       6.555  27.267  53.224  1.00  0.00     0.166 HD
HETATM   23  C6  UNL     1       4.505  28.396  55.344  1.00  0.00     0.115 A 
BRANCH  19  24
HETATM   24  C3  UNL     1       8.135  28.336  55.278  1.00  0.00     0.348 C 
BRANCH  24  25
HETATM   25  N1  UNL     1       8.595  27.016  55.638  1.00  0.00     0.086 N 
HETATM   26  C1  UNL     1       9.784  26.735  54.834  1.00  0.00     0.309 C 
HETATM   27  C2  UNL     1       8.837  26.920  57.056  1.00  0.00     0.309 C 
ENDBRANCH  24  25
ENDBRANCH  19  24
ENDBRANCH  14  18
ENDBRANCH   8  11
ENDBRANCH   1   7
BRANCH   6  28
HETATM   28  C16 UNL     1       8.351  34.699  62.030  1.00  0.00     0.058 A 
HETATM   29  C17 UNL     1       8.996  34.137  60.976  1.00  0.00     0.034 A 
HETATM   30  C18 UNL     1      10.090  34.702  60.348  1.00  0.00     0.042 A 
HETATM   31  C19 UNL     1      10.602  35.930  60.787  1.00  0.00     0.112 A 
HETATM   32  O2  UNL     1      11.597  36.698  60.413  1.00  0.00    -0.236 OA
HETATM   33  C21 UNL     1       9.964  36.516  61.848  1.00  0.00     0.045 A 
HETATM   34  N7  UNL     1      11.634  37.771  61.188  1.00  0.00    -0.246 N 
HETATM   35  C20 UNL     1      10.625  37.700  62.107  1.00  0.00     0.149 A 
ATOM     36  H7  UNL     1      12.310  38.531  61.111  1.00  0.00     0.196 HD
HETATM   37  N8  UNL     1      10.249  38.588  63.130  1.00  0.00    -0.080 NA
HETATM   38  C22 UNL     1       8.885  35.936  62.455  1.00  0.00     0.049 A 
ENDBRANCH   6  28
BRANCH   3  39
HETATM   39  C15 UNL     1       5.224  34.405  65.848  1.00  0.00     0.434 C 
HETATM   40  F1  UNL     1       5.515  35.709  66.210  1.00  0.00    -0.165 F 
HETATM   41  F2  UNL     1       3.868  34.279  65.760  1.00  0.00    -0.165 F 
HETATM   42  F3  UNL     1       5.779  33.579  66.808  1.00  0.00    -0.165 F 
ENDBRANCH   3  39
TORSDOF 7
ENDMDL
