MODEL 4
REMARK VINA RESULT: -9.994619628      1.102      1.310
REMARK  7 active torsions:
REMARK  status: ('A' for Active; 'I' for Inactive)
REMARK    1  A    between atoms: N1_2  and  C3_4 
REMARK    2  A    between atoms: C3_4  and  C4_5 
REMARK    3  A    between atoms: N3_10  and  C7_11 
REMARK    4  A    between atoms: C10_14  and  N4_15 
REMARK       I    between atoms: N4_15  and  C11_17 
REMARK    5  A    between atoms: C11_17  and  C12_19 
REMARK    6  A    between atoms: C14_21  and  C15_22 
REMARK    7  A    between atoms: N6_28  and  C16_29 
ROOT
HETATM    1  C12 UNL     1       5.659  28.522  55.645  1.00  0.00     0.127 A 
HETATM    2  C13 UNL     1       4.288  28.374  55.359  1.00  0.00     0.073 A 
HETATM    3  C14 UNL     1       4.221  27.573  54.236  1.00  0.00     0.135 A 
HETATM    4  N5  UNL     1       5.464  27.294  53.920  1.00  0.00    -0.289 N 
ATOM      5  H5  UNL     1       5.726  26.713  53.124  1.00  0.00     0.187 HD
HETATM    6  N6  UNL     1       6.366  27.863  54.769  1.00  0.00    -0.251 N 
ENDROOT
BRANCH   1   7
HETATM    7  C11 UNL     1       6.074  29.308  56.833  1.00  0.00     0.274 C 
HETATM    8  N4  UNL     1       6.314  30.693  56.857  1.00  0.00    -0.319 N 
ATOM      9  H4  UNL     1       6.160  31.206  55.989  1.00  0.00     0.169 HD
HETATM   10  O1  UNL     1       6.229  28.687  57.897  1.00  0.00    -0.266 OA
BRANCH   8  11
HETATM   11  C10 UNL     1       6.759  31.451  57.995  1.00  0.00     0.074 A 
HETATM   12  C9  UNL     1       7.994  31.354  58.551  1.00  0.00     0.035 A 
HETATM   13  C8  UNL     1       8.374  32.151  59.648  1.00  0.00     0.032 A 
HETATM   14  C7  UNL     1       7.516  33.057  60.206  1.00  0.00     0.043 A 
HETATM   15  C24 UNL     1       6.242  33.161  59.642  1.00  0.00     0.074 A 
HETATM   16  C23 UNL     1       5.880  32.379  58.569  1.00  0.00     0.145 A 
HETATM   17  F4  UNL     1       4.637  32.500  58.049  1.00  0.00    -0.204 F 
BRANCH  14  18
HETATM   18  N3  UNL     1       7.917  33.876  61.297  1.00  0.00    -0.309 N 
HETATM   19  C4  UNL     1       7.442  33.817  62.553  1.00  0.00     0.116 A 
HETATM   20  N2  UNL     1       8.063  34.736  63.300  1.00  0.00    -0.353 N 
HETATM   21  C5  UNL     1       8.943  35.404  62.554  1.00  0.00     0.107 A 
ATOM     22  H2  UNL     1       7.891  34.901  64.292  1.00  0.00     0.166 HD
HETATM   23  C6  UNL     1       8.855  34.866  61.286  1.00  0.00     0.115 A 
BRANCH  19  24
HETATM   24  C3  UNL     1       6.397  32.872  63.065  1.00  0.00     0.348 C 
BRANCH  24  25
HETATM   25  N1  UNL     1       5.470  33.647  63.855  1.00  0.00     0.086 N 
HETATM   26  C1  UNL     1       4.370  34.039  62.973  1.00  0.00     0.309 C 
HETATM   27  C2  UNL     1       5.029  32.908  65.012  1.00  0.00     0.309 C 
ENDBRANCH  24  25
ENDBRANCH  19  24
ENDBRANCH  14  18
ENDBRANCH   8  11
ENDBRANCH   1   7
BRANCH   6  28
HETATM   28  C16 UNL     1       7.756  27.655  54.568  1.00  0.00     0.058 A 
HETATM   29  C17 UNL     1       8.632  26.949  55.328  1.00  0.00     0.034 A 
HETATM   30  C18 UNL     1       9.968  26.781  55.016  1.00  0.00     0.042 A 
HETATM   31  C19 UNL     1      10.500  27.354  53.853  1.00  0.00     0.112 A 
HETATM   32  O2  UNL     1      11.688  27.377  53.299  1.00  0.00    -0.236 OA
HETATM   33  C21 UNL     1       9.632  28.068  53.070  1.00  0.00     0.045 A 
HETATM   34  N7  UNL     1      11.634  28.078  52.178  1.00  0.00    -0.246 N 
HETATM   35  C20 UNL     1      10.359  28.534  51.991  1.00  0.00     0.149 A 
ATOM     36  H7  UNL     1      12.420  28.251  51.551  1.00  0.00     0.196 HD
HETATM   37  N8  UNL     1       9.800  29.307  50.958  1.00  0.00    -0.080 NA
HETATM   38  C22 UNL     1       8.315  28.223  53.401  1.00  0.00     0.049 A 
ENDBRANCH   6  28
BRANCH   3  39
HETATM   39  C15 UNL     1       2.945  27.141  53.555  1.00  0.00     0.434 C 
HETATM   40  F1  UNL     1       2.232  26.379  54.465  1.00  0.00    -0.165 F 
HETATM   41  F2  UNL     1       2.195  28.236  53.236  1.00  0.00    -0.165 F 
HETATM   42  F3  UNL     1       3.211  26.335  52.464  1.00  0.00    -0.165 F 
ENDBRANCH   3  39
TORSDOF 7
ENDMDL
