MODEL 2
REMARK VINA RESULT: -6.293515774      3.106      5.179
REMARK  6 active torsions:
REMARK  status: ('A' for Active; 'I' for Inactive)
REMARK    1  A    between atoms: N5_13  and  C6_14 
REMARK    2  A    between atoms: C7_16  and  C8_17 
REMARK    3  A    between atoms: C8_17  and  O2_18 
REMARK    4  A    between atoms: O2_18  and  P1_19 
REMARK    5  A    between atoms: C9_23  and  O6_24 
REMARK    6  A    between atoms: C10_26  and  O7_27 
ROOT
HETATM    1  C6  UNL     1      37.987   0.130  13.925  1.00  0.00     0.262 C 
HETATM    2  O1  UNL     1      37.272   1.293  13.955  1.00  0.00    -0.353 OA
HETATM    3  C7  UNL     1      38.107   2.361  14.103  1.00  0.00     0.180 C 
HETATM    4  C9  UNL     1      39.509   1.845  14.356  1.00  0.00     0.182 C 
HETATM    5  C10 UNL     1      39.441   0.469  13.752  1.00  0.00     0.198 C 
ENDROOT
BRANCH   1   6
HETATM    6  N5  UNL     1      37.495  -0.718  12.884  1.00  0.00    -0.297 N 
HETATM    7  C3  UNL     1      36.771  -1.866  12.979  1.00  0.00     0.142 A 
HETATM    8  N3  UNL     1      36.330  -2.507  14.061  1.00  0.00    -0.336 N 
HETATM    9  C4  UNL     1      36.508  -2.363  11.713  1.00  0.00     0.119 A 
HETATM   10  C2  UNL     1      35.626  -3.639  13.887  1.00  0.00     0.183 A 
ATOM     11  H3  UNL     1      36.521  -2.147  14.996  1.00  0.00     0.168 HD
HETATM   12  N2  UNL     1      35.353  -4.148  12.656  1.00  0.00    -0.339 N 
HETATM   13  C1  UNL     1      35.782  -3.531  11.540  1.00  0.00     0.148 A 
ATOM     14  H2  UNL     1      34.815  -5.011  12.576  1.00  0.00     0.167 HD
HETATM   15  N1  UNL     1      35.531  -4.010  10.226  1.00  0.00    -0.080 NA
HETATM   16  N4  UNL     1      37.080  -1.500  10.864  1.00  0.00    -0.346 N 
HETATM   17  C5  UNL     1      37.669  -0.517  11.565  1.00  0.00     0.188 A 
ATOM     18  H4  UNL     1      37.071  -1.577   9.847  1.00  0.00     0.167 HD
ENDBRANCH   1   6
BRANCH   5  19
HETATM   19  O7  UNL     1      40.287  -0.372  14.464  1.00  0.00    -0.388 OA
ATOM     20  H7  UNL     1      40.395  -1.224  14.059  1.00  0.00     0.210 HD
ENDBRANCH   5  19
BRANCH   3  21
HETATM   21  C8  UNL     1      38.178   3.131  12.784  1.00  0.00     0.217 C 
BRANCH  21  22
HETATM   22  O2  UNL     1      37.781   4.402  12.967  1.00  0.00    -0.280 OA
BRANCH  22  23
HETATM   23  P1  UNL     1      36.576   4.803  13.929  1.00  0.00     0.422 P 
HETATM   24  O3  UNL     1      36.836   5.149  15.562  1.00  0.00    -0.617 OA
HETATM   25  O4  UNL     1      34.968   4.642  13.469  1.00  0.00    -0.617 OA
HETATM   26  O5  UNL     1      36.573   6.284  13.599  1.00  0.00    -0.617 OA
ENDBRANCH  22  23
ENDBRANCH  21  22
ENDBRANCH   3  21
BRANCH   4  27
HETATM   27  O6  UNL     1      39.693   1.718  15.718  1.00  0.00    -0.390 OA
ATOM     28  H6  UNL     1      38.842   1.659  16.135  1.00  0.00     0.210 HD
ENDBRANCH   4  27
TORSDOF 6
ENDMDL
