MODEL 4
REMARK VINA RESULT: -6.249227326      2.837      5.106
REMARK  6 active torsions:
REMARK  status: ('A' for Active; 'I' for Inactive)
REMARK    1  A    between atoms: N5_13  and  C6_14 
REMARK    2  A    between atoms: C7_16  and  C8_17 
REMARK    3  A    between atoms: C8_17  and  O2_18 
REMARK    4  A    between atoms: O2_18  and  P1_19 
REMARK    5  A    between atoms: C9_23  and  O6_24 
REMARK    6  A    between atoms: C10_26  and  O7_27 
ROOT
HETATM    1  C6  UNL     1      39.342  -0.084  13.818  1.00  0.00     0.262 C 
HETATM    2  O1  UNL     1      38.710   0.891  14.536  1.00  0.00    -0.353 OA
HETATM    3  C7  UNL     1      39.475   2.018  14.584  1.00  0.00     0.180 C 
HETATM    4  C9  UNL     1      40.825   1.711  13.968  1.00  0.00     0.182 C 
HETATM    5  C10 UNL     1      40.497   0.538  13.084  1.00  0.00     0.198 C 
ENDROOT
BRANCH   1   6
HETATM    6  N5  UNL     1      38.412  -0.720  12.937  1.00  0.00    -0.297 N 
HETATM    7  C3  UNL     1      37.628  -1.810  13.153  1.00  0.00     0.142 A 
HETATM    8  N3  UNL     1      37.517  -2.576  14.239  1.00  0.00    -0.336 N 
HETATM    9  C4  UNL     1      36.876  -2.082  12.022  1.00  0.00     0.119 A 
HETATM   10  C2  UNL     1      36.659  -3.611  14.202  1.00  0.00     0.183 A 
ATOM     11  H3  UNL     1      38.068  -2.381  15.075  1.00  0.00     0.168 HD
HETATM   12  N2  UNL     1      35.910  -3.899  13.104  1.00  0.00    -0.339 N 
HETATM   13  C1  UNL     1      35.994  -3.150  11.990  1.00  0.00     0.148 A 
ATOM     14  H2  UNL     1      35.273  -4.696  13.126  1.00  0.00     0.167 HD
HETATM   15  N1  UNL     1      35.240  -3.399  10.812  1.00  0.00    -0.080 NA
HETATM   16  N4  UNL     1      37.220  -1.144  11.130  1.00  0.00    -0.346 N 
HETATM   17  C5  UNL     1      38.137  -0.330  11.679  1.00  0.00     0.188 A 
ATOM     18  H4  UNL     1      36.845  -1.061  10.186  1.00  0.00     0.167 HD
ENDBRANCH   1   6
BRANCH   5  19
HETATM   19  O7  UNL     1      41.610  -0.291  13.014  1.00  0.00    -0.388 OA
ATOM     20  H7  UNL     1      42.177  -0.219  13.772  1.00  0.00     0.210 HD
ENDBRANCH   5  19
BRANCH   3  21
HETATM   21  C8  UNL     1      38.846   3.092  13.696  1.00  0.00     0.217 C 
BRANCH  21  22
HETATM   22  O2  UNL     1      37.747   3.595  14.283  1.00  0.00    -0.280 OA
BRANCH  22  23
HETATM   23  P1  UNL     1      36.281   3.394  13.692  1.00  0.00     0.422 P 
HETATM   24  O3  UNL     1      35.313   4.716  13.279  1.00  0.00    -0.617 OA
HETATM   25  O4  UNL     1      35.507   1.903  13.700  1.00  0.00    -0.617 OA
HETATM   26  O5  UNL     1      36.698   3.225  12.243  1.00  0.00    -0.617 OA
ENDBRANCH  22  23
ENDBRANCH  21  22
ENDBRANCH   3  21
BRANCH   4  27
HETATM   27  O6  UNL     1      41.678   1.284  14.965  1.00  0.00    -0.390 OA
ATOM     28  H6  UNL     1      41.953   0.396  14.770  1.00  0.00     0.210 HD
ENDBRANCH   4  27
TORSDOF 6
ENDMDL
