MODEL 10
REMARK VINA RESULT: -6.012067405      5.877      7.467
REMARK  6 active torsions:
REMARK  status: ('A' for Active; 'I' for Inactive)
REMARK    1  A    between atoms: N5_13  and  C6_14 
REMARK    2  A    between atoms: C7_16  and  C8_17 
REMARK    3  A    between atoms: C8_17  and  O2_18 
REMARK    4  A    between atoms: O2_18  and  P1_19 
REMARK    5  A    between atoms: C9_23  and  O6_24 
REMARK    6  A    between atoms: C10_26  and  O7_27 
ROOT
HETATM    1  C6  UNL     1      39.549   4.255  17.809  1.00  0.00     0.262 C 
HETATM    2  O1  UNL     1      38.915   5.376  17.355  1.00  0.00    -0.353 OA
HETATM    3  C7  UNL     1      38.850   5.369  15.994  1.00  0.00     0.180 C 
HETATM    4  C9  UNL     1      39.664   4.199  15.479  1.00  0.00     0.182 C 
HETATM    5  C10 UNL     1      39.664   3.280  16.671  1.00  0.00     0.198 C 
ENDROOT
BRANCH   1   6
HETATM    6  N5  UNL     1      38.839   3.712  18.926  1.00  0.00    -0.297 N 
HETATM    7  C3  UNL     1      37.837   4.266  19.660  1.00  0.00     0.142 A 
HETATM    8  N3  UNL     1      37.251   5.457  19.538  1.00  0.00    -0.336 N 
HETATM    9  C4  UNL     1      37.439   3.386  20.653  1.00  0.00     0.119 A 
HETATM   10  C2  UNL     1      36.269   5.774  20.401  1.00  0.00     0.183 A 
ATOM     11  H3  UNL     1      37.539   6.110  18.809  1.00  0.00     0.168 HD
HETATM   12  N2  UNL     1      35.860   4.929  21.384  1.00  0.00    -0.339 N 
HETATM   13  C1  UNL     1      36.427   3.719  21.539  1.00  0.00     0.148 A 
ATOM     14  H2  UNL     1      35.111   5.217  22.014  1.00  0.00     0.167 HD
HETATM   15  N1  UNL     1      36.046   2.791  22.546  1.00  0.00    -0.080 NA
HETATM   16  N4  UNL     1      38.214   2.304  20.503  1.00  0.00    -0.346 N 
HETATM   17  C5  UNL     1      39.049   2.500  19.470  1.00  0.00     0.188 A 
ATOM     18  H4  UNL     1      38.175   1.465  21.082  1.00  0.00     0.167 HD
ENDBRANCH   1   6
BRANCH   5  19
HETATM   19  O7  UNL     1      40.855   2.565  16.681  1.00  0.00    -0.388 OA
ATOM     20  H7  UNL     1      40.773   1.698  16.303  1.00  0.00     0.210 HD
ENDBRANCH   5  19
BRANCH   3  21
HETATM   21  C8  UNL     1      37.409   5.098  15.559  1.00  0.00     0.217 C 
BRANCH  21  22
HETATM   22  O2  UNL     1      37.391   4.253  14.514  1.00  0.00    -0.280 OA
BRANCH  22  23
HETATM   23  P1  UNL     1      36.045   3.799  13.791  1.00  0.00     0.422 P 
HETATM   24  O3  UNL     1      34.977   4.932  13.134  1.00  0.00    -0.617 OA
HETATM   25  O4  UNL     1      35.469   2.223  13.875  1.00  0.00    -0.617 OA
HETATM   26  O5  UNL     1      36.655   3.556  12.423  1.00  0.00    -0.617 OA
ENDBRANCH  22  23
ENDBRANCH  21  22
ENDBRANCH   3  21
BRANCH   4  27
HETATM   27  O6  UNL     1      40.957   4.625  15.254  1.00  0.00    -0.390 OA
ATOM     28  H6  UNL     1      40.937   5.547  15.029  1.00  0.00     0.210 HD
ENDBRANCH   4  27
TORSDOF 6
ENDMDL
