MODEL 3
REMARK VINA RESULT: -6.257024517      6.452      8.790
REMARK  6 active torsions:
REMARK  status: ('A' for Active; 'I' for Inactive)
REMARK    1  A    between atoms: N5_13  and  C6_14 
REMARK    2  A    between atoms: C7_16  and  C8_17 
REMARK    3  A    between atoms: C8_17  and  O2_18 
REMARK    4  A    between atoms: O2_18  and  P1_19 
REMARK    5  A    between atoms: C9_23  and  O6_24 
REMARK    6  A    between atoms: C10_26  and  O7_27 
ROOT
HETATM    1  C6  UNL     1      37.927   6.449  18.062  1.00  0.00     0.262 C 
HETATM    2  O1  UNL     1      37.108   6.290  16.981  1.00  0.00    -0.353 OA
HETATM    3  C7  UNL     1      37.803   6.479  15.824  1.00  0.00     0.180 C 
HETATM    4  C9  UNL     1      39.194   6.970  16.173  1.00  0.00     0.182 C 
HETATM    5  C10 UNL     1      39.351   6.464  17.581  1.00  0.00     0.198 C 
ENDROOT
BRANCH   1   6
HETATM    6  N5  UNL     1      37.682   5.412  19.016  1.00  0.00    -0.297 N 
HETATM    7  C3  UNL     1      36.833   5.404  20.078  1.00  0.00     0.142 A 
HETATM    8  N3  UNL     1      36.007   6.354  20.515  1.00  0.00    -0.336 N 
HETATM    9  C4  UNL     1      36.915   4.188  20.737  1.00  0.00     0.119 A 
HETATM   10  C2  UNL     1      35.261   6.097  21.605  1.00  0.00     0.183 A 
ATOM     11  H3  UNL     1      35.942   7.252  20.035  1.00  0.00     0.168 HD
HETATM   12  N2  UNL     1      35.322   4.912  22.269  1.00  0.00    -0.339 N 
HETATM   13  C1  UNL     1      36.144   3.930  21.859  1.00  0.00     0.148 A 
ATOM     14  H2  UNL     1      34.736   4.766  23.091  1.00  0.00     0.167 HD
HETATM   15  N1  UNL     1      36.255   2.670  22.509  1.00  0.00    -0.080 NA
HETATM   16  N4  UNL     1      37.820   3.473  20.056  1.00  0.00    -0.346 N 
HETATM   17  C5  UNL     1      38.277   4.206  19.028  1.00  0.00     0.188 A 
ATOM     18  H4  UNL     1      38.115   2.523  20.284  1.00  0.00     0.167 HD
ENDBRANCH   1   6
BRANCH   5  19
HETATM   19  O7  UNL     1      40.156   7.351  18.285  1.00  0.00    -0.388 OA
ATOM     20  H7  UNL     1      41.084   7.201  18.151  1.00  0.00     0.210 HD
ENDBRANCH   5  19
BRANCH   3  21
HETATM   21  C8  UNL     1      37.999   5.132  15.128  1.00  0.00     0.217 C 
BRANCH  21  22
HETATM   22  O2  UNL     1      36.813   4.527  14.947  1.00  0.00    -0.280 OA
BRANCH  22  23
HETATM   23  P1  UNL     1      36.496   3.602  13.688  1.00  0.00     0.422 P 
HETATM   24  O3  UNL     1      35.453   2.278  13.813  1.00  0.00    -0.617 OA
HETATM   25  O4  UNL     1      37.367   3.707  12.256  1.00  0.00    -0.617 OA
HETATM   26  O5  UNL     1      35.372   4.454  13.125  1.00  0.00    -0.617 OA
ENDBRANCH  22  23
ENDBRANCH  21  22
ENDBRANCH   3  21
BRANCH   4  27
HETATM   27  O6  UNL     1      39.181   8.350  16.201  1.00  0.00    -0.390 OA
ATOM     28  H6  UNL     1      39.600   8.641  17.002  1.00  0.00     0.210 HD
ENDBRANCH   4  27
TORSDOF 6
ENDMDL
