MODEL 6
REMARK VINA RESULT: -6.131906245      6.166      7.797
REMARK  6 active torsions:
REMARK  status: ('A' for Active; 'I' for Inactive)
REMARK    1  A    between atoms: N5_13  and  C6_14 
REMARK    2  A    between atoms: C7_16  and  C8_17 
REMARK    3  A    between atoms: C8_17  and  O2_18 
REMARK    4  A    between atoms: O2_18  and  P1_19 
REMARK    5  A    between atoms: C9_23  and  O6_24 
REMARK    6  A    between atoms: C10_26  and  O7_27 
ROOT
HETATM    1  C6  UNL     1      39.190   4.660  18.042  1.00  0.00     0.262 C 
HETATM    2  O1  UNL     1      38.455   5.698  17.543  1.00  0.00    -0.353 OA
HETATM    3  C7  UNL     1      38.456   5.669  16.180  1.00  0.00     0.180 C 
HETATM    4  C9  UNL     1      39.420   4.594  15.722  1.00  0.00     0.182 C 
HETATM    5  C10 UNL     1      39.468   3.693  16.926  1.00  0.00     0.198 C 
ENDROOT
BRANCH   1   6
HETATM    6  N5  UNL     1      38.494   4.052  19.134  1.00  0.00    -0.297 N 
HETATM    7  C3  UNL     1      37.516   4.568  19.925  1.00  0.00     0.142 A 
HETATM    8  N3  UNL     1      36.946   5.774  19.898  1.00  0.00    -0.336 N 
HETATM    9  C4  UNL     1      37.124   3.628  20.864  1.00  0.00     0.119 A 
HETATM   10  C2  UNL     1      35.987   6.045  20.802  1.00  0.00     0.183 A 
ATOM     11  H3  UNL     1      37.231   6.471  19.211  1.00  0.00     0.168 HD
HETATM   12  N2  UNL     1      35.585   5.139  21.733  1.00  0.00    -0.339 N 
HETATM   13  C1  UNL     1      36.135   3.913  21.792  1.00  0.00     0.148 A 
ATOM     14  H2  UNL     1      34.853   5.393  22.397  1.00  0.00     0.167 HD
HETATM   15  N1  UNL     1      35.759   2.923  22.740  1.00  0.00    -0.080 NA
HETATM   16  N4  UNL     1      37.877   2.547  20.623  1.00  0.00    -0.346 N 
HETATM   17  C5  UNL     1      38.695   2.802  19.588  1.00  0.00     0.188 A 
ATOM     18  H4  UNL     1      37.836   1.671  21.143  1.00  0.00     0.167 HD
ENDBRANCH   1   6
BRANCH   5  19
HETATM   19  O7  UNL     1      40.730   3.118  17.003  1.00  0.00    -0.388 OA
ATOM     20  H7  UNL     1      41.295   3.360  16.279  1.00  0.00     0.210 HD
ENDBRANCH   5  19
BRANCH   3  21
HETATM   21  C8  UNL     1      37.078   5.231  15.684  1.00  0.00     0.217 C 
BRANCH  21  22
HETATM   22  O2  UNL     1      37.198   4.211  14.818  1.00  0.00    -0.280 OA
BRANCH  22  23
HETATM   23  P1  UNL     1      36.240   4.026  13.558  1.00  0.00     0.422 P 
HETATM   24  O3  UNL     1      36.744   3.171  12.190  1.00  0.00    -0.617 OA
HETATM   25  O4  UNL     1      34.804   4.881  13.390  1.00  0.00    -0.617 OA
HETATM   26  O5  UNL     1      35.507   2.801  14.074  1.00  0.00    -0.617 OA
ENDBRANCH  22  23
ENDBRANCH  21  22
ENDBRANCH   3  21
BRANCH   4  27
HETATM   27  O6  UNL     1      40.666   5.162  15.550  1.00  0.00    -0.390 OA
ATOM     28  H6  UNL     1      41.314   4.468  15.512  1.00  0.00     0.210 HD
ENDBRANCH   4  27
TORSDOF 6
ENDMDL
