MODEL 1
REMARK VINA RESULT: -6.450886286      0.000      0.000
REMARK  6 active torsions:
REMARK  status: ('A' for Active; 'I' for Inactive)
REMARK    1  A    between atoms: N5_13  and  C6_14 
REMARK    2  A    between atoms: C7_16  and  C8_17 
REMARK    3  A    between atoms: C8_17  and  O2_18 
REMARK    4  A    between atoms: O2_18  and  P1_19 
REMARK    5  A    between atoms: C9_23  and  O6_24 
REMARK    6  A    between atoms: C10_26  and  O7_27 
ROOT
HETATM    1  C6  UNL     1      37.348  -2.976  12.846  1.00  0.00     0.262 C 
HETATM    2  O1  UNL     1      37.685  -1.833  12.178  1.00  0.00    -0.353 OA
HETATM    3  C7  UNL     1      36.623  -1.372  11.458  1.00  0.00     0.180 C 
HETATM    4  C9  UNL     1      35.512  -2.399  11.527  1.00  0.00     0.182 C 
HETATM    5  C10 UNL     1      35.854  -3.134  12.795  1.00  0.00     0.198 C 
ENDROOT
BRANCH   1   6
HETATM    6  N5  UNL     1      37.847  -2.922  14.185  1.00  0.00    -0.297 N 
HETATM    7  C3  UNL     1      38.540  -1.931  14.807  1.00  0.00     0.142 A 
HETATM    8  N3  UNL     1      38.939  -0.749  14.337  1.00  0.00    -0.336 N 
HETATM    9  C4  UNL     1      38.825  -2.301  16.111  1.00  0.00     0.119 A 
HETATM   10  C2  UNL     1      39.620   0.067  15.162  1.00  0.00     0.183 A 
ATOM     11  H3  UNL     1      38.734  -0.470  13.377  1.00  0.00     0.168 HD
HETATM   12  N2  UNL     1      39.912  -0.273  16.446  1.00  0.00    -0.339 N 
HETATM   13  C1  UNL     1      39.527  -1.456  16.956  1.00  0.00     0.148 A 
ATOM     14  H2  UNL     1      40.432   0.381  17.033  1.00  0.00     0.167 HD
HETATM   15  N1  UNL     1      39.800  -1.869  18.288  1.00  0.00    -0.080 NA
HETATM   16  N4  UNL     1      38.294  -3.521  16.260  1.00  0.00    -0.346 N 
HETATM   17  C5  UNL     1      37.710  -3.891  15.109  1.00  0.00     0.188 A 
ATOM     18  H4  UNL     1      38.329  -4.080  17.112  1.00  0.00     0.167 HD
ENDBRANCH   1   6
BRANCH   5  19
HETATM   19  O7  UNL     1      35.449  -4.457  12.665  1.00  0.00    -0.388 OA
ATOM     20  H7  UNL     1      34.507  -4.565  12.713  1.00  0.00     0.210 HD
ENDBRANCH   5  19
BRANCH   3  21
HETATM   21  C8  UNL     1      36.070  -0.113  12.125  1.00  0.00     0.217 C 
BRANCH  21  22
HETATM   22  O2  UNL     1      37.040   0.807  12.258  1.00  0.00    -0.280 OA
BRANCH  22  23
HETATM   23  P1  UNL     1      36.889   2.098  13.180  1.00  0.00     0.422 P 
HETATM   24  O3  UNL     1      38.241   2.969  13.697  1.00  0.00    -0.617 OA
HETATM   25  O4  UNL     1      35.436   2.511  13.915  1.00  0.00    -0.617 OA
HETATM   26  O5  UNL     1      36.659   3.091  12.055  1.00  0.00    -0.617 OA
ENDBRANCH  22  23
ENDBRANCH  21  22
ENDBRANCH   3  21
BRANCH   4  27
HETATM   27  O6  UNL     1      35.649  -3.270  10.465  1.00  0.00    -0.390 OA
ATOM     28  H6  UNL     1      34.844  -3.263   9.960  1.00  0.00     0.210 HD
ENDBRANCH   4  27
TORSDOF 6
ENDMDL
