MODEL 6
REMARK VINA RESULT: -9.400478568      3.952      7.928
REMARK  10 active torsions:
REMARK  status: ('A' for Active; 'I' for Inactive)
REMARK    1  A    between atoms: C2_2  and  N1_3 
REMARK    2  A    between atoms: C2_2  and  C17_31 
REMARK       I    between atoms: N1_3  and  C3_5 
REMARK    3  A    between atoms: C3_5  and  C4_7 
REMARK    4  A    between atoms: C4_7  and  C5_8 
REMARK    5  A    between atoms: C9_13  and  N2_14 
REMARK    6  A    between atoms: N2_14  and  C10_16 
REMARK    7  A    between atoms: C10_16  and  C11_17 
REMARK    8  A    between atoms: C11_17  and  C12_20 
REMARK    9  A    between atoms: N3_25  and  O2_26 
REMARK   10  A    between atoms: N4_28  and  O3_29 
ROOT
HETATM    1  C5  UNL     1      13.557 -17.608  20.139  1.00  0.00     0.072 A 
HETATM    2  C6  UNL     1      13.862 -17.829  18.818  1.00  0.00     0.059 A 
HETATM    3 CL1  UNL     1      14.477 -19.398  18.351  1.00  0.00    -0.082 Cl
HETATM    4  C7  UNL     1      13.672 -16.804  17.917  1.00  0.00     0.030 A 
HETATM    5  C8  UNL     1      13.178 -15.581  18.381  1.00  0.00     0.052 A 
HETATM    6  C9  UNL     1      12.876 -15.368  19.703  1.00  0.00     0.129 A 
HETATM    7  N4  UNL     1      13.083 -16.420  20.548  1.00  0.00    -0.210 N 
ENDROOT
BRANCH   1   8
HETATM    8  C4  UNL     1      13.752 -18.736  21.096  1.00  0.00     0.164 C 
BRANCH   8   9
HETATM    9  C3  UNL     1      15.090 -18.730  21.693  1.00  0.00     0.223 C 
HETATM   10  N1  UNL     1      15.528 -17.713  22.567  1.00  0.00    -0.352 N 
ATOM     11  H1  UNL     1      14.910 -16.936  22.802  1.00  0.00     0.163 HD
HETATM   12  O1  UNL     1      15.895 -19.660  21.430  1.00  0.00    -0.273 OA
BRANCH  10  13
HETATM   13  C2  UNL     1      16.870 -17.778  23.131  1.00  0.00     0.113 C 
HETATM   14  C1  UNL     1      16.875 -18.136  24.588  1.00  0.00     0.037 C 
BRANCH  13  15
HETATM   15  C17 UNL     1      17.589 -16.481  22.870  1.00  0.00    -0.034 A 
HETATM   16  C18 UNL     1      17.387 -15.801  21.690  1.00  0.00     0.009 A 
HETATM   17  C19 UNL     1      18.029 -14.606  21.423  1.00  0.00     0.002 A 
HETATM   18  C20 UNL     1      18.896 -14.056  22.342  1.00  0.00     0.024 A 
HETATM   19  C21 UNL     1      19.105 -14.730  23.528  1.00  0.00     0.034 A 
HETATM   20 CL2  UNL     1      20.203 -14.039  24.689  1.00  0.00    -0.084 Cl
HETATM   21  C22 UNL     1      18.457 -15.928  23.789  1.00  0.00     0.033 A 
ENDBRANCH  13  15
ENDBRANCH  10  13
ENDBRANCH   8   9
ENDBRANCH   1   8
BRANCH   7  22
HETATM   22  O3  UNL     1      12.758 -16.200  21.876  1.00  0.00    -0.281 OA
ATOM     23  H3  UNL     1      12.373 -15.378  22.156  1.00  0.00     0.245 HD
ENDBRANCH   7  22
BRANCH   6  24
HETATM   24  N2  UNL     1      12.380 -14.148  20.218  1.00  0.00    -0.368 N 
ATOM     25  H2  UNL     1      11.487 -14.124  20.710  1.00  0.00     0.161 HD
BRANCH  24  26
HETATM   26  C10 UNL     1      13.146 -12.935  20.043  1.00  0.00     0.207 C 
BRANCH  26  27
HETATM   27  C11 UNL     1      13.929 -12.652  21.289  1.00  0.00     0.303 C 
HETATM   28  F1  UNL     1      14.447 -13.733  21.928  1.00  0.00    -0.197 F 
HETATM   29  F2  UNL     1      15.000 -11.799  20.943  1.00  0.00    -0.197 F 
BRANCH  27  30
HETATM   30  C12 UNL     1      13.065 -11.856  22.196  1.00  0.00     0.112 A 
HETATM   31  C13 UNL     1      13.250 -10.496  22.214  1.00  0.00     0.034 A 
HETATM   32  C14 UNL     1      12.496  -9.687  23.033  1.00  0.00     0.004 A 
HETATM   33  C15 UNL     1      11.537 -10.242  23.845  1.00  0.00     0.020 A 
HETATM   34  C16 UNL     1      11.389 -11.618  23.788  1.00  0.00     0.123 A 
HETATM   35  N3  UNL     1      12.126 -12.391  22.992  1.00  0.00    -0.234 N 
BRANCH  35  36
HETATM   36  O2  UNL     1      11.960 -13.774  22.946  1.00  0.00    -0.283 OA
ATOM     37  H2  UNL     1      11.083 -14.114  23.081  1.00  0.00     0.245 HD
ENDBRANCH  35  36
ENDBRANCH  27  30
ENDBRANCH  26  27
ENDBRANCH  24  26
ENDBRANCH   6  24
TORSDOF 10
ENDMDL
