MODEL 5
REMARK VINA RESULT: -9.539860466      3.469      7.728
REMARK  10 active torsions:
REMARK  status: ('A' for Active; 'I' for Inactive)
REMARK    1  A    between atoms: C2_2  and  N1_3 
REMARK    2  A    between atoms: C2_2  and  C17_31 
REMARK       I    between atoms: N1_3  and  C3_5 
REMARK    3  A    between atoms: C3_5  and  C4_7 
REMARK    4  A    between atoms: C4_7  and  C5_8 
REMARK    5  A    between atoms: C9_13  and  N2_14 
REMARK    6  A    between atoms: N2_14  and  C10_16 
REMARK    7  A    between atoms: C10_16  and  C11_17 
REMARK    8  A    between atoms: C11_17  and  C12_20 
REMARK    9  A    between atoms: N3_25  and  O2_26 
REMARK   10  A    between atoms: N4_28  and  O3_29 
ROOT
HETATM    1  C5  UNL     1      14.538 -17.164  20.190  1.00  0.00     0.072 A 
HETATM    2  C6  UNL     1      14.687 -17.383  18.842  1.00  0.00     0.059 A 
HETATM    3 CL1  UNL     1      15.646 -18.748  18.316  1.00  0.00    -0.082 Cl
HETATM    4  C7  UNL     1      14.076 -16.518  17.961  1.00  0.00     0.030 A 
HETATM    5  C8  UNL     1      13.330 -15.452  18.472  1.00  0.00     0.052 A 
HETATM    6  C9  UNL     1      13.186 -15.238  19.820  1.00  0.00     0.129 A 
HETATM    7  N4  UNL     1      13.813 -16.129  20.644  1.00  0.00    -0.210 N 
ENDROOT
BRANCH   1   8
HETATM    8  C4  UNL     1      15.192 -18.123  21.127  1.00  0.00     0.164 C 
BRANCH   8   9
HETATM    9  C3  UNL     1      16.513 -17.659  21.560  1.00  0.00     0.223 C 
HETATM   10  N1  UNL     1      16.686 -16.560  22.427  1.00  0.00    -0.352 N 
ATOM     11  H1  UNL     1      15.876 -16.047  22.774  1.00  0.00     0.163 HD
HETATM   12  O1  UNL     1      17.546 -18.252  21.155  1.00  0.00    -0.273 OA
BRANCH  10  13
HETATM   13  C2  UNL     1      18.031 -16.162  22.823  1.00  0.00     0.113 C 
HETATM   14  C1  UNL     1      18.116 -15.738  24.260  1.00  0.00     0.037 C 
BRANCH  13  15
HETATM   15  C17 UNL     1      18.534 -15.092  21.891  1.00  0.00    -0.034 A 
HETATM   16  C18 UNL     1      19.886 -14.884  21.739  1.00  0.00     0.009 A 
HETATM   17  C19 UNL     1      20.378 -13.911  20.887  1.00  0.00     0.002 A 
HETATM   18  C20 UNL     1      19.518 -13.118  20.158  1.00  0.00     0.024 A 
HETATM   19  C21 UNL     1      18.161 -13.321  20.303  1.00  0.00     0.034 A 
HETATM   20 CL2  UNL     1      17.073 -12.318  19.385  1.00  0.00    -0.084 Cl
HETATM   21  C22 UNL     1      17.675 -14.297  21.159  1.00  0.00     0.033 A 
ENDBRANCH  13  15
ENDBRANCH  10  13
ENDBRANCH   8   9
ENDBRANCH   1   8
BRANCH   7  22
HETATM   22  O3  UNL     1      13.647 -15.916  22.002  1.00  0.00    -0.281 OA
ATOM     23  H3  UNL     1      13.005 -15.294  22.324  1.00  0.00     0.245 HD
ENDBRANCH   7  22
BRANCH   6  24
HETATM   24  N2  UNL     1      12.447 -14.171  20.382  1.00  0.00    -0.368 N 
ATOM     25  H2  UNL     1      11.616 -14.362  20.940  1.00  0.00     0.161 HD
BRANCH  24  26
HETATM   26  C10 UNL     1      12.878 -12.809  20.159  1.00  0.00     0.207 C 
BRANCH  26  27
HETATM   27  C11 UNL     1      13.746 -12.366  21.298  1.00  0.00     0.303 C 
HETATM   28  F1  UNL     1      14.515 -13.327  21.873  1.00  0.00    -0.197 F 
HETATM   29  F2  UNL     1      14.605 -11.353  20.819  1.00  0.00    -0.197 F 
BRANCH  27  30
HETATM   30  C12 UNL     1      12.874 -11.705  22.301  1.00  0.00     0.112 A 
HETATM   31  C13 UNL     1      12.961 -10.340  22.414  1.00  0.00     0.034 A 
HETATM   32  C14 UNL     1      12.193  -9.652  23.326  1.00  0.00     0.004 A 
HETATM   33  C15 UNL     1      11.319 -10.335  24.136  1.00  0.00     0.020 A 
HETATM   34  C16 UNL     1      11.269 -11.711  23.982  1.00  0.00     0.123 A 
HETATM   35  N3  UNL     1      12.018 -12.367  23.097  1.00  0.00    -0.234 N 
BRANCH  35  36
HETATM   36  O2  UNL     1      11.951 -13.751  22.954  1.00  0.00    -0.283 OA
ATOM     37  H2  UNL     1      12.322 -14.127  22.164  1.00  0.00     0.245 HD
ENDBRANCH  35  36
ENDBRANCH  27  30
ENDBRANCH  26  27
ENDBRANCH  24  26
ENDBRANCH   6  24
TORSDOF 10
ENDMDL
