MODEL 8
REMARK VINA RESULT: -9.392044161      1.545      1.863
REMARK  10 active torsions:
REMARK  status: ('A' for Active; 'I' for Inactive)
REMARK    1  A    between atoms: C2_2  and  N1_3 
REMARK    2  A    between atoms: C2_2  and  C17_31 
REMARK       I    between atoms: N1_3  and  C3_5 
REMARK    3  A    between atoms: C3_5  and  C4_7 
REMARK    4  A    between atoms: C4_7  and  C5_8 
REMARK    5  A    between atoms: C9_13  and  N2_14 
REMARK    6  A    between atoms: N2_14  and  C10_16 
REMARK    7  A    between atoms: C10_16  and  C11_17 
REMARK    8  A    between atoms: C11_17  and  C12_20 
REMARK    9  A    between atoms: N3_25  and  O2_26 
REMARK   10  A    between atoms: N4_28  and  O3_29 
ROOT
HETATM    1  C5  UNL     1      16.066 -14.298  20.254  1.00  0.00     0.072 A 
HETATM    2  C6  UNL     1      16.869 -13.291  19.776  1.00  0.00     0.059 A 
HETATM    3 CL1  UNL     1      16.515 -12.612  18.204  1.00  0.00    -0.082 Cl
HETATM    4  C7  UNL     1      17.921 -12.860  20.555  1.00  0.00     0.030 A 
HETATM    5  C8  UNL     1      18.130 -13.463  21.799  1.00  0.00     0.052 A 
HETATM    6  C9  UNL     1      17.323 -14.470  22.270  1.00  0.00     0.129 A 
HETATM    7  N4  UNL     1      16.297 -14.853  21.455  1.00  0.00    -0.210 N 
ENDROOT
BRANCH   1   8
HETATM    8  C4  UNL     1      14.921 -14.738  19.404  1.00  0.00     0.164 C 
BRANCH   8   9
HETATM    9  C3  UNL     1      13.781 -13.822  19.495  1.00  0.00     0.223 C 
HETATM   10  N1  UNL     1      13.799 -12.664  20.300  1.00  0.00    -0.352 N 
ATOM     11  H1  UNL     1      14.623 -12.438  20.856  1.00  0.00     0.163 HD
HETATM   12  O1  UNL     1      12.737 -14.059  18.835  1.00  0.00    -0.273 OA
BRANCH  10  13
HETATM   13  C2  UNL     1      12.631 -11.793  20.332  1.00  0.00     0.113 C 
HETATM   14  C1  UNL     1      12.844 -10.501  19.599  1.00  0.00     0.037 C 
BRANCH  13  15
HETATM   15  C17 UNL     1      12.213 -11.566  21.760  1.00  0.00    -0.034 A 
HETATM   16  C18 UNL     1      11.614 -12.577  22.477  1.00  0.00     0.009 A 
HETATM   17  C19 UNL     1      11.223 -12.400  23.792  1.00  0.00     0.002 A 
HETATM   18  C20 UNL     1      11.427 -11.194  24.428  1.00  0.00     0.024 A 
HETATM   19  C21 UNL     1      12.028 -10.175  23.717  1.00  0.00     0.034 A 
HETATM   20 CL2  UNL     1      12.283  -8.649  24.517  1.00  0.00    -0.084 Cl
HETATM   21  C22 UNL     1      12.417 -10.359  22.399  1.00  0.00     0.033 A 
ENDBRANCH  13  15
ENDBRANCH  10  13
ENDBRANCH   8   9
ENDBRANCH   1   8
BRANCH   7  22
HETATM   22  O3  UNL     1      15.479 -15.856  21.947  1.00  0.00    -0.281 OA
ATOM     23  H3  UNL     1      15.045 -15.766  22.787  1.00  0.00     0.245 HD
ENDBRANCH   7  22
BRANCH   6  24
HETATM   24  N2  UNL     1      17.500 -15.112  23.517  1.00  0.00    -0.368 N 
ATOM     25  H2  UNL     1      17.161 -14.672  24.372  1.00  0.00     0.161 HD
BRANCH  24  26
HETATM   26  C10 UNL     1      18.164 -16.395  23.572  1.00  0.00     0.207 C 
BRANCH  26  27
HETATM   27  C11 UNL     1      18.844 -16.551  24.899  1.00  0.00     0.303 C 
HETATM   28  F1  UNL     1      18.052 -16.429  25.995  1.00  0.00    -0.197 F 
HETATM   29  F2  UNL     1      19.437 -17.832  24.933  1.00  0.00    -0.197 F 
BRANCH  27  30
HETATM   30  C12 UNL     1      19.974 -15.589  24.944  1.00  0.00     0.112 A 
HETATM   31  C13 UNL     1      20.005 -14.698  25.987  1.00  0.00     0.034 A 
HETATM   32  C14 UNL     1      21.013 -13.768  26.097  1.00  0.00     0.004 A 
HETATM   33  C15 UNL     1      22.011 -13.728  25.154  1.00  0.00     0.020 A 
HETATM   34  C16 UNL     1      21.934 -14.648  24.122  1.00  0.00     0.123 A 
HETATM   35  N3  UNL     1      20.952 -15.544  24.025  1.00  0.00    -0.234 N 
BRANCH  35  36
HETATM   36  O2  UNL     1      20.893 -16.465  22.981  1.00  0.00    -0.283 OA
ATOM     37  H2  UNL     1      20.853 -16.121  22.096  1.00  0.00     0.245 HD
ENDBRANCH  35  36
ENDBRANCH  27  30
ENDBRANCH  26  27
ENDBRANCH  24  26
ENDBRANCH   6  24
TORSDOF 10
ENDMDL
