MODEL 3
REMARK VINA RESULT: -9.709558041      0.956      1.336
REMARK  10 active torsions:
REMARK  status: ('A' for Active; 'I' for Inactive)
REMARK    1  A    between atoms: C2_2  and  N1_3 
REMARK    2  A    between atoms: C2_2  and  C17_31 
REMARK       I    between atoms: N1_3  and  C3_5 
REMARK    3  A    between atoms: C3_5  and  C4_7 
REMARK    4  A    between atoms: C4_7  and  C5_8 
REMARK    5  A    between atoms: C9_13  and  N2_14 
REMARK    6  A    between atoms: N2_14  and  C10_16 
REMARK    7  A    between atoms: C10_16  and  C11_17 
REMARK    8  A    between atoms: C11_17  and  C12_20 
REMARK    9  A    between atoms: N3_25  and  O2_26 
REMARK   10  A    between atoms: N4_28  and  O3_29 
ROOT
HETATM    1  C5  UNL     1      18.140 -13.567  21.185  1.00  0.00     0.072 A 
HETATM    2  C6  UNL     1      19.392 -13.905  20.732  1.00  0.00     0.059 A 
HETATM    3 CL1  UNL     1      20.148 -12.890  19.525  1.00  0.00    -0.082 Cl
HETATM    4  C7  UNL     1      19.998 -15.030  21.246  1.00  0.00     0.030 A 
HETATM    5  C8  UNL     1      19.316 -15.783  22.207  1.00  0.00     0.052 A 
HETATM    6  C9  UNL     1      18.065 -15.440  22.655  1.00  0.00     0.129 A 
HETATM    7  N4  UNL     1      17.516 -14.315  22.110  1.00  0.00    -0.210 N 
ENDROOT
BRANCH   1   8
HETATM    8  C4  UNL     1      17.508 -12.334  20.629  1.00  0.00     0.164 C 
BRANCH   8   9
HETATM    9  C3  UNL     1      16.073 -12.509  20.390  1.00  0.00     0.223 C 
HETATM   10  N1  UNL     1      15.097 -11.689  20.993  1.00  0.00    -0.352 N 
ATOM     11  H1  UNL     1      15.375 -10.943  21.631  1.00  0.00     0.163 HD
HETATM   12  O1  UNL     1      15.676 -13.419  19.619  1.00  0.00    -0.273 OA
BRANCH  10  13
HETATM   13  C2  UNL     1      13.687 -11.915  20.700  1.00  0.00     0.113 C 
HETATM   14  C1  UNL     1      13.214 -11.164  19.490  1.00  0.00     0.037 C 
BRANCH  13  15
HETATM   15  C17 UNL     1      12.863 -11.593  21.918  1.00  0.00    -0.034 A 
HETATM   16  C18 UNL     1      12.033 -12.545  22.466  1.00  0.00     0.009 A 
HETATM   17  C19 UNL     1      11.267 -12.280  23.587  1.00  0.00     0.002 A 
HETATM   18  C20 UNL     1      11.317 -11.044  24.194  1.00  0.00     0.024 A 
HETATM   19  C21 UNL     1      12.147 -10.084  23.652  1.00  0.00     0.034 A 
HETATM   20 CL2  UNL     1      12.208  -8.520  24.415  1.00  0.00    -0.084 Cl
HETATM   21  C22 UNL     1      12.911 -10.356  22.528  1.00  0.00     0.033 A 
ENDBRANCH  13  15
ENDBRANCH  10  13
ENDBRANCH   8   9
ENDBRANCH   1   8
BRANCH   7  22
HETATM   22  O3  UNL     1      16.262 -13.966  22.581  1.00  0.00    -0.281 OA
ATOM     23  H3  UNL     1      16.138 -13.677  23.478  1.00  0.00     0.245 HD
ENDBRANCH   7  22
BRANCH   6  24
HETATM   24  N2  UNL     1      17.337 -16.174  23.619  1.00  0.00    -0.368 N 
ATOM     25  H2  UNL     1      16.429 -15.838  23.941  1.00  0.00     0.161 HD
BRANCH  24  26
HETATM   26  C10 UNL     1      17.886 -17.402  24.146  1.00  0.00     0.207 C 
BRANCH  26  27
HETATM   27  C11 UNL     1      18.340 -17.183  25.558  1.00  0.00     0.303 C 
HETATM   28  F1  UNL     1      17.775 -16.135  26.212  1.00  0.00    -0.197 F 
HETATM   29  F2  UNL     1      18.053 -18.356  26.291  1.00  0.00    -0.197 F 
BRANCH  27  30
HETATM   30  C12 UNL     1      19.820 -17.075  25.547  1.00  0.00     0.112 A 
HETATM   31  C13 UNL     1      20.539 -18.243  25.528  1.00  0.00     0.034 A 
HETATM   32  C14 UNL     1      21.916 -18.230  25.526  1.00  0.00     0.004 A 
HETATM   33  C15 UNL     1      22.587 -17.031  25.537  1.00  0.00     0.020 A 
HETATM   34  C16 UNL     1      21.814 -15.882  25.555  1.00  0.00     0.123 A 
HETATM   35  N3  UNL     1      20.482 -15.907  25.558  1.00  0.00    -0.234 N 
BRANCH  35  36
HETATM   36  O2  UNL     1      19.721 -14.740  25.573  1.00  0.00    -0.283 OA
ATOM     37  H2  UNL     1      20.155 -13.933  25.320  1.00  0.00     0.245 HD
ENDBRANCH  35  36
ENDBRANCH  27  30
ENDBRANCH  26  27
ENDBRANCH  24  26
ENDBRANCH   6  24
TORSDOF 10
ENDMDL
