MODEL 4
REMARK VINA RESULT: -9.598989348      3.723      7.681
REMARK  10 active torsions:
REMARK  status: ('A' for Active; 'I' for Inactive)
REMARK    1  A    between atoms: C2_2  and  N1_3 
REMARK    2  A    between atoms: C2_2  and  C17_31 
REMARK       I    between atoms: N1_3  and  C3_5 
REMARK    3  A    between atoms: C3_5  and  C4_7 
REMARK    4  A    between atoms: C4_7  and  C5_8 
REMARK    5  A    between atoms: C9_13  and  N2_14 
REMARK    6  A    between atoms: N2_14  and  C10_16 
REMARK    7  A    between atoms: C10_16  and  C11_17 
REMARK    8  A    between atoms: C11_17  and  C12_20 
REMARK    9  A    between atoms: N3_25  and  O2_26 
REMARK   10  A    between atoms: N4_28  and  O3_29 
ROOT
HETATM    1  C5  UNL     1      15.612 -18.355  20.991  1.00  0.00     0.072 A 
HETATM    2  C6  UNL     1      16.006 -18.772  19.743  1.00  0.00     0.059 A 
HETATM    3 CL1  UNL     1      17.409 -19.807  19.611  1.00  0.00    -0.082 Cl
HETATM    4  C7  UNL     1      15.280 -18.356  18.648  1.00  0.00     0.030 A 
HETATM    5  C8  UNL     1      14.173 -17.527  18.849  1.00  0.00     0.052 A 
HETATM    6  C9  UNL     1      13.785 -17.113  20.099  1.00  0.00     0.129 A 
HETATM    7  N4  UNL     1      14.541 -17.558  21.145  1.00  0.00    -0.210 N 
ENDROOT
BRANCH   1   8
HETATM    8  C4  UNL     1      16.400 -18.831  22.165  1.00  0.00     0.164 C 
BRANCH   8   9
HETATM    9  C3  UNL     1      17.503 -17.925  22.494  1.00  0.00     0.223 C 
HETATM   10  N1  UNL     1      17.295 -16.598  22.922  1.00  0.00    -0.352 N 
ATOM     11  H1  UNL     1      16.348 -16.227  23.006  1.00  0.00     0.163 HD
HETATM   12  O1  UNL     1      18.690 -18.329  22.400  1.00  0.00    -0.273 OA
BRANCH  10  13
HETATM   13  C2  UNL     1      18.442 -15.758  23.243  1.00  0.00     0.113 C 
HETATM   14  C1  UNL     1      18.316 -15.080  24.575  1.00  0.00     0.037 C 
BRANCH  13  15
HETATM   15  C17 UNL     1      18.668 -14.769  22.130  1.00  0.00    -0.034 A 
HETATM   16  C18 UNL     1      19.912 -14.645  21.554  1.00  0.00     0.009 A 
HETATM   17  C19 UNL     1      20.148 -13.749  20.527  1.00  0.00     0.002 A 
HETATM   18  C20 UNL     1      19.134 -12.950  20.045  1.00  0.00     0.024 A 
HETATM   19  C21 UNL     1      17.883 -13.069  20.616  1.00  0.00     0.034 A 
HETATM   20 CL2  UNL     1      16.600 -12.058  20.012  1.00  0.00    -0.084 Cl
HETATM   21  C22 UNL     1      17.653 -13.969  21.645  1.00  0.00     0.033 A 
ENDBRANCH  13  15
ENDBRANCH  10  13
ENDBRANCH   8   9
ENDBRANCH   1   8
BRANCH   7  22
HETATM   22  O3  UNL     1      14.131 -17.150  22.403  1.00  0.00    -0.281 OA
ATOM     23  H3  UNL     1      14.637 -16.519  22.902  1.00  0.00     0.245 HD
ENDBRANCH   7  22
BRANCH   6  24
HETATM   24  N2  UNL     1      12.678 -16.270  20.349  1.00  0.00    -0.368 N 
ATOM     25  H2  UNL     1      12.010 -16.506  21.083  1.00  0.00     0.161 HD
BRANCH  24  26
HETATM   26  C10 UNL     1      12.498 -15.073  19.559  1.00  0.00     0.207 C 
BRANCH  26  27
HETATM   27  C11 UNL     1      13.543 -14.065  19.931  1.00  0.00     0.303 C 
HETATM   28  F1  UNL     1      14.670 -14.558  20.507  1.00  0.00    -0.197 F 
HETATM   29  F2  UNL     1      13.921 -13.380  18.755  1.00  0.00    -0.197 F 
BRANCH  27  30
HETATM   30  C12 UNL     1      12.900 -13.045  20.796  1.00  0.00     0.112 A 
HETATM   31  C13 UNL     1      12.709 -11.795  20.264  1.00  0.00     0.034 A 
HETATM   32  C14 UNL     1      12.128 -10.789  21.004  1.00  0.00     0.004 A 
HETATM   33  C15 UNL     1      11.726 -11.036  22.293  1.00  0.00     0.020 A 
HETATM   34  C16 UNL     1      11.941 -12.314  22.783  1.00  0.00     0.123 A 
HETATM   35  N3  UNL     1      12.505 -13.279  22.058  1.00  0.00    -0.234 N 
BRANCH  35  36
HETATM   36  O2  UNL     1      12.709 -14.560  22.566  1.00  0.00    -0.283 OA
ATOM     37  H2  UNL     1      13.469 -14.694  23.120  1.00  0.00     0.245 HD
ENDBRANCH  35  36
ENDBRANCH  27  30
ENDBRANCH  26  27
ENDBRANCH  24  26
ENDBRANCH   6  24
TORSDOF 10
ENDMDL
