MODEL 1
REMARK VINA RESULT: -10.321602775      0.000      0.000
REMARK  10 active torsions:
REMARK  status: ('A' for Active; 'I' for Inactive)
REMARK    1  A    between atoms: C2_2  and  N1_3 
REMARK    2  A    between atoms: C2_2  and  C17_31 
REMARK       I    between atoms: N1_3  and  C3_5 
REMARK    3  A    between atoms: C3_5  and  C4_7 
REMARK    4  A    between atoms: C4_7  and  C5_8 
REMARK    5  A    between atoms: C9_13  and  N2_14 
REMARK    6  A    between atoms: N2_14  and  C10_16 
REMARK    7  A    between atoms: C10_16  and  C11_17 
REMARK    8  A    between atoms: C11_17  and  C12_20 
REMARK    9  A    between atoms: N3_25  and  O2_26 
REMARK   10  A    between atoms: N4_28  and  O3_29 
ROOT
HETATM    1  C5  UNL     1      18.170 -13.591  21.206  1.00  0.00     0.072 A 
HETATM    2  C6  UNL     1      19.424 -13.902  20.740  1.00  0.00     0.059 A 
HETATM    3 CL1  UNL     1      20.162 -12.850  19.553  1.00  0.00    -0.082 Cl
HETATM    4  C7  UNL     1      20.047 -15.031  21.225  1.00  0.00     0.030 A 
HETATM    5  C8  UNL     1      19.380 -15.815  22.172  1.00  0.00     0.052 A 
HETATM    6  C9  UNL     1      18.126 -15.498  22.633  1.00  0.00     0.129 A 
HETATM    7  N4  UNL     1      17.560 -14.368  22.116  1.00  0.00    -0.210 N 
ENDROOT
BRANCH   1   8
HETATM    8  C4  UNL     1      17.520 -12.354  20.681  1.00  0.00     0.164 C 
BRANCH   8   9
HETATM    9  C3  UNL     1      16.089 -12.546  20.430  1.00  0.00     0.223 C 
HETATM   10  N1  UNL     1      15.099 -11.726  21.009  1.00  0.00    -0.352 N 
ATOM     11  H1  UNL     1      15.363 -10.967  21.637  1.00  0.00     0.163 HD
HETATM   12  O1  UNL     1      15.709 -13.473  19.670  1.00  0.00    -0.273 OA
BRANCH  10  13
HETATM   13  C2  UNL     1      13.695 -11.970  20.704  1.00  0.00     0.113 C 
HETATM   14  C1  UNL     1      13.225 -11.238  19.482  1.00  0.00     0.037 C 
BRANCH  13  15
HETATM   15  C17 UNL     1      12.855 -11.644  21.911  1.00  0.00    -0.034 A 
HETATM   16  C18 UNL     1      12.001 -12.586  22.438  1.00  0.00     0.009 A 
HETATM   17  C19 UNL     1      11.221 -12.317  23.547  1.00  0.00     0.002 A 
HETATM   18  C20 UNL     1      11.280 -11.087  24.164  1.00  0.00     0.024 A 
HETATM   19  C21 UNL     1      12.134 -10.135  23.643  1.00  0.00     0.034 A 
HETATM   20 CL2  UNL     1      12.206  -8.578  24.418  1.00  0.00    -0.084 Cl
HETATM   21  C22 UNL     1      12.913 -10.412  22.531  1.00  0.00     0.033 A 
ENDBRANCH  13  15
ENDBRANCH  10  13
ENDBRANCH   8   9
ENDBRANCH   1   8
BRANCH   7  22
HETATM   22  O3  UNL     1      16.304 -14.047  22.601  1.00  0.00    -0.281 OA
ATOM     23  H3  UNL     1      15.554 -13.996  22.020  1.00  0.00     0.245 HD
ENDBRANCH   7  22
BRANCH   6  24
HETATM   24  N2  UNL     1      17.412 -16.263  23.583  1.00  0.00    -0.368 N 
ATOM     25  H2  UNL     1      16.399 -16.172  23.658  1.00  0.00     0.161 HD
BRANCH  24  26
HETATM   26  C10 UNL     1      18.126 -17.175  24.448  1.00  0.00     0.207 C 
BRANCH  26  27
HETATM   27  C11 UNL     1      18.423 -16.500  25.753  1.00  0.00     0.303 C 
HETATM   28  F1  UNL     1      17.472 -15.648  26.215  1.00  0.00    -0.197 F 
HETATM   29  F2  UNL     1      18.615 -17.504  26.726  1.00  0.00    -0.197 F 
BRANCH  27  30
HETATM   30  C12 UNL     1      19.736 -15.818  25.621  1.00  0.00     0.112 A 
HETATM   31  C13 UNL     1      19.756 -14.454  25.762  1.00  0.00     0.034 A 
HETATM   32  C14 UNL     1      20.931 -13.745  25.646  1.00  0.00     0.004 A 
HETATM   33  C15 UNL     1      22.105 -14.409  25.389  1.00  0.00     0.020 A 
HETATM   34  C16 UNL     1      22.030 -15.786  25.256  1.00  0.00     0.123 A 
HETATM   35  N3  UNL     1      20.888 -16.461  25.370  1.00  0.00    -0.234 N 
BRANCH  35  36
HETATM   36  O2  UNL     1      20.832 -17.846  25.237  1.00  0.00    -0.283 OA
ATOM     37  H2  UNL     1      20.012 -18.224  24.940  1.00  0.00     0.245 HD
ENDBRANCH  35  36
ENDBRANCH  27  30
ENDBRANCH  26  27
ENDBRANCH  24  26
ENDBRANCH   6  24
TORSDOF 10
ENDMDL
