MODEL 9
REMARK VINA RESULT: -7.179283335      2.762      7.807
REMARK  7 active torsions:
REMARK  status: ('A' for Active; 'I' for Inactive)
REMARK    1  A    between atoms: C2_2  and  O1_3 
REMARK    2  A    between atoms: C2_2  and  C3_5 
REMARK    3  A    between atoms: C2_2  and  C10_16 
REMARK    4  A    between atoms: C3_5  and  S1_6 
REMARK    5  A    between atoms: S1_6  and  C4_9 
REMARK       I    between atoms: C10_16  and  N1_18 
REMARK    6  A    between atoms: N1_18  and  C11_20 
REMARK    7  A    between atoms: C16_26  and  C17_27 
ROOT
HETATM    1  C11 UNL     1      29.377   1.436   8.080  1.00  0.00     0.035 A 
HETATM    2  C12 UNL     1      28.259   1.753   8.873  1.00  0.00     0.031 A 
HETATM    3  C13 UNL     1      28.298   1.678  10.239  1.00  0.00     0.026 A 
HETATM    4  C14 UNL     1      29.463   1.281  10.881  1.00  0.00     0.059 A 
HETATM    5  C15 UNL     1      29.492   1.206  12.327  1.00  0.00     0.100 C 
HETATM    6  N2  UNL     1      29.523   1.153  13.480  1.00  0.00    -0.191 NA
HETATM    7  C16 UNL     1      30.566   0.966  10.135  1.00  0.00     0.070 A 
HETATM    8  C18 UNL     1      30.485   1.056   8.743  1.00  0.00     0.047 A 
ENDROOT
BRANCH   7   9
HETATM    9  C17 UNL     1      31.822   0.540  10.784  1.00  0.00     0.419 C 
HETATM   10  F2  UNL     1      31.533  -0.656  11.456  1.00  0.00    -0.166 F 
HETATM   11  F3  UNL     1      32.759   0.212   9.825  1.00  0.00    -0.166 F 
HETATM   12  F4  UNL     1      32.288   1.429  11.715  1.00  0.00    -0.166 F 
ENDBRANCH   7   9
BRANCH   1  13
HETATM   13  N1  UNL     1      29.232   1.545   6.690  1.00  0.00    -0.325 N 
HETATM   14  C10 UNL     1      28.819   0.558   5.795  1.00  0.00     0.257 C 
HETATM   15  O4  UNL     1      28.531  -0.579   6.225  1.00  0.00    -0.270 OA
ATOM     16  H1  UNL     1      29.454   2.455   6.284  1.00  0.00     0.169 HD
BRANCH  14  17
HETATM   17  C2  UNL     1      28.696   0.777   4.323  1.00  0.00     0.148 C 
HETATM   18  C1  UNL     1      30.084   0.624   3.737  1.00  0.00     0.057 C 
BRANCH  17  19
HETATM   19  O1  UNL     1      27.887  -0.178   3.715  1.00  0.00    -0.380 OA
ATOM     20  H1  UNL     1      28.140  -1.024   4.065  1.00  0.00     0.211 HD
ENDBRANCH  17  19
BRANCH  17  21
HETATM   21  C3  UNL     1      28.110   2.134   4.033  1.00  0.00     0.193 C 
BRANCH  21  22
HETATM   22  S1  UNL     1      26.360   2.113   3.931  1.00  0.00     0.178 S 
HETATM   23  O2  UNL     1      25.843   1.155   4.991  1.00  0.00    -0.222 OA
HETATM   24  O3  UNL     1      25.849   1.622   2.623  1.00  0.00    -0.222 OA
BRANCH  22  25
HETATM   25  C4  UNL     1      25.759   3.727   4.208  1.00  0.00     0.059 A 
HETATM   26  C5  UNL     1      24.473   3.925   4.678  1.00  0.00     0.026 A 
HETATM   27  C6  UNL     1      23.967   5.189   4.908  1.00  0.00     0.044 A 
HETATM   28  C7  UNL     1      24.724   6.318   4.678  1.00  0.00     0.116 A 
HETATM   29  F1  UNL     1      24.225   7.573   4.905  1.00  0.00    -0.206 F 
HETATM   30  C8  UNL     1      26.008   6.129   4.209  1.00  0.00     0.044 A 
HETATM   31  C9  UNL     1      26.513   4.860   3.979  1.00  0.00     0.026 A 
ENDBRANCH  22  25
ENDBRANCH  21  22
ENDBRANCH  17  21
ENDBRANCH  14  17
ENDBRANCH   1  13
TORSDOF 7
ENDMDL
