MODEL 4
REMARK VINA RESULT: -8.390973541      0.894      1.331
REMARK  7 active torsions:
REMARK  status: ('A' for Active; 'I' for Inactive)
REMARK    1  A    between atoms: C2_2  and  O1_3 
REMARK    2  A    between atoms: C2_2  and  C3_5 
REMARK    3  A    between atoms: C2_2  and  C10_16 
REMARK    4  A    between atoms: C3_5  and  S1_6 
REMARK    5  A    between atoms: S1_6  and  C4_9 
REMARK       I    between atoms: C10_16  and  N1_18 
REMARK    6  A    between atoms: N1_18  and  C11_20 
REMARK    7  A    between atoms: C16_26  and  C17_27 
ROOT
HETATM    1  C11 UNL     1      27.588   3.846   4.880  1.00  0.00     0.035 A 
HETATM    2  C12 UNL     1      27.956   5.197   4.749  1.00  0.00     0.031 A 
HETATM    3  C13 UNL     1      27.024   6.195   4.666  1.00  0.00     0.026 A 
HETATM    4  C14 UNL     1      25.671   5.888   4.711  1.00  0.00     0.059 A 
HETATM    5  C15 UNL     1      24.693   6.953   4.623  1.00  0.00     0.100 C 
HETATM    6  N2  UNL     1      23.910   7.799   4.562  1.00  0.00    -0.191 NA
HETATM    7  C16 UNL     1      25.283   4.582   4.837  1.00  0.00     0.070 A 
HETATM    8  C18 UNL     1      26.267   3.593   4.918  1.00  0.00     0.047 A 
ENDROOT
BRANCH   7   9
HETATM    9  C17 UNL     1      23.852   4.219   4.888  1.00  0.00     0.419 C 
HETATM   10  F2  UNL     1      23.769   2.883   4.470  1.00  0.00    -0.166 F 
HETATM   11  F3  UNL     1      23.412   4.229   6.196  1.00  0.00    -0.166 F 
HETATM   12  F4  UNL     1      23.068   4.959   4.046  1.00  0.00    -0.166 F 
ENDBRANCH   7   9
BRANCH   1  13
HETATM   13  N1  UNL     1      28.622   2.901   4.956  1.00  0.00    -0.325 N 
HETATM   14  C10 UNL     1      28.716   1.683   4.282  1.00  0.00     0.257 C 
HETATM   15  O4  UNL     1      27.800   1.339   3.504  1.00  0.00    -0.270 OA
ATOM     16  H1  UNL     1      29.397   3.132   5.577  1.00  0.00     0.169 HD
BRANCH  14  17
HETATM   17  C2  UNL     1      29.866   0.743   4.433  1.00  0.00     0.148 C 
HETATM   18  C1  UNL     1      29.322  -0.520   5.066  1.00  0.00     0.057 C 
BRANCH  17  19
HETATM   19  O1  UNL     1      30.415   0.383   3.206  1.00  0.00    -0.380 OA
ATOM     20  H1  UNL     1      31.021  -0.331   3.368  1.00  0.00     0.211 HD
ENDBRANCH  17  19
BRANCH  17  21
HETATM   21  C3  UNL     1      30.957   1.365   5.265  1.00  0.00     0.193 C 
BRANCH  21  22
HETATM   22  S1  UNL     1      31.587   0.275   6.486  1.00  0.00     0.178 S 
HETATM   23  O2  UNL     1      33.081   0.526   6.608  1.00  0.00    -0.222 OA
HETATM   24  O3  UNL     1      31.420  -1.161   6.141  1.00  0.00    -0.222 OA
BRANCH  22  25
HETATM   25  C4  UNL     1      30.780   0.596   7.999  1.00  0.00     0.059 A 
HETATM   26  C5  UNL     1      31.226   0.008   9.170  1.00  0.00     0.026 A 
HETATM   27  C6  UNL     1      30.610   0.241  10.383  1.00  0.00     0.044 A 
HETATM   28  C7  UNL     1      29.516   1.075  10.485  1.00  0.00     0.116 A 
HETATM   29  F1  UNL     1      28.903   1.308  11.686  1.00  0.00    -0.206 F 
HETATM   30  C8  UNL     1      29.065   1.665   9.322  1.00  0.00     0.044 A 
HETATM   31  C9  UNL     1      29.686   1.429   8.105  1.00  0.00     0.026 A 
ENDBRANCH  22  25
ENDBRANCH  21  22
ENDBRANCH  17  21
ENDBRANCH  14  17
ENDBRANCH   1  13
TORSDOF 7
ENDMDL
