MODEL 5
REMARK VINA RESULT: -8.307348373      2.744      7.522
REMARK  7 active torsions:
REMARK  status: ('A' for Active; 'I' for Inactive)
REMARK    1  A    between atoms: C2_2  and  O1_3 
REMARK    2  A    between atoms: C2_2  and  C3_5 
REMARK    3  A    between atoms: C2_2  and  C10_16 
REMARK    4  A    between atoms: C3_5  and  S1_6 
REMARK    5  A    between atoms: S1_6  and  C4_9 
REMARK       I    between atoms: C10_16  and  N1_18 
REMARK    6  A    between atoms: N1_18  and  C11_20 
REMARK    7  A    between atoms: C16_26  and  C17_27 
ROOT
HETATM    1  C11 UNL     1      29.638   0.733   7.127  1.00  0.00     0.035 A 
HETATM    2  C12 UNL     1      31.016   0.458   7.056  1.00  0.00     0.031 A 
HETATM    3  C13 UNL     1      31.789   0.356   8.180  1.00  0.00     0.026 A 
HETATM    4  C14 UNL     1      31.220   0.524   9.435  1.00  0.00     0.059 A 
HETATM    5  C15 UNL     1      32.049   0.413  10.617  1.00  0.00     0.100 C 
HETATM    6  N2  UNL     1      32.705   0.317  11.563  1.00  0.00    -0.191 NA
HETATM    7  C16 UNL     1      29.882   0.794   9.533  1.00  0.00     0.070 A 
HETATM    8  C18 UNL     1      29.127   0.890   8.361  1.00  0.00     0.047 A 
ENDROOT
BRANCH   7   9
HETATM    9  C17 UNL     1      29.243   0.979  10.852  1.00  0.00     0.419 C 
HETATM   10  F2  UNL     1      28.035   1.650  10.614  1.00  0.00    -0.166 F 
HETATM   11  F3  UNL     1      28.890  -0.247  11.379  1.00  0.00    -0.166 F 
HETATM   12  F4  UNL     1      29.975   1.749  11.714  1.00  0.00    -0.166 F 
ENDBRANCH   7   9
BRANCH   1  13
HETATM   13  N1  UNL     1      28.936   0.818   5.916  1.00  0.00    -0.325 N 
HETATM   14  C10 UNL     1      28.866  -0.137   4.901  1.00  0.00     0.257 C 
HETATM   15  O4  UNL     1      29.482  -1.217   5.031  1.00  0.00    -0.270 OA
ATOM     16  H1  UNL     1      28.414   1.680   5.758  1.00  0.00     0.169 HD
BRANCH  14  17
HETATM   17  C2  UNL     1      28.086   0.050   3.642  1.00  0.00     0.148 C 
HETATM   18  C1  UNL     1      29.004  -0.317   2.496  1.00  0.00     0.057 C 
BRANCH  17  19
HETATM   19  O1  UNL     1      26.985  -0.798   3.574  1.00  0.00    -0.380 OA
ATOM     20  H1  UNL     1      26.399  -0.554   4.281  1.00  0.00     0.211 HD
ENDBRANCH  17  19
BRANCH  17  21
HETATM   21  C3  UNL     1      27.587   1.468   3.531  1.00  0.00     0.193 C 
BRANCH  21  22
HETATM   22  S1  UNL     1      25.898   1.632   3.976  1.00  0.00     0.178 S 
HETATM   23  O2  UNL     1      25.677   0.848   5.259  1.00  0.00    -0.222 OA
HETATM   24  O3  UNL     1      24.963   1.074   2.965  1.00  0.00    -0.222 OA
BRANCH  22  25
HETATM   25  C4  UNL     1      25.540   3.323   4.213  1.00  0.00     0.059 A 
HETATM   26  C5  UNL     1      24.309   3.715   4.708  1.00  0.00     0.026 A 
HETATM   27  C6  UNL     1      23.993   5.045   4.907  1.00  0.00     0.044 A 
HETATM   28  C7  UNL     1      24.895   6.047   4.620  1.00  0.00     0.116 A 
HETATM   29  F1  UNL     1      24.585   7.367   4.816  1.00  0.00    -0.206 F 
HETATM   30  C8  UNL     1      26.126   5.664   4.126  1.00  0.00     0.044 A 
HETATM   31  C9  UNL     1      26.439   4.329   3.928  1.00  0.00     0.026 A 
ENDBRANCH  22  25
ENDBRANCH  21  22
ENDBRANCH  17  21
ENDBRANCH  14  17
ENDBRANCH   1  13
TORSDOF 7
ENDMDL
