MODEL 7
REMARK VINA RESULT: -7.485938918      2.746      7.851
REMARK  7 active torsions:
REMARK  status: ('A' for Active; 'I' for Inactive)
REMARK    1  A    between atoms: C2_2  and  O1_3 
REMARK    2  A    between atoms: C2_2  and  C3_5 
REMARK    3  A    between atoms: C2_2  and  C10_16 
REMARK    4  A    between atoms: C3_5  and  S1_6 
REMARK    5  A    between atoms: S1_6  and  C4_9 
REMARK       I    between atoms: C10_16  and  N1_18 
REMARK    6  A    between atoms: N1_18  and  C11_20 
REMARK    7  A    between atoms: C16_26  and  C17_27 
ROOT
HETATM    1  C11 UNL     1      29.339   1.439   8.197  1.00  0.00     0.035 A 
HETATM    2  C12 UNL     1      28.237   1.773   9.007  1.00  0.00     0.031 A 
HETATM    3  C13 UNL     1      28.289   1.678  10.371  1.00  0.00     0.026 A 
HETATM    4  C14 UNL     1      29.451   1.243  10.994  1.00  0.00     0.059 A 
HETATM    5  C15 UNL     1      29.493   1.147  12.439  1.00  0.00     0.100 C 
HETATM    6  N2  UNL     1      29.535   1.078  13.591  1.00  0.00    -0.191 NA
HETATM    7  C16 UNL     1      30.537   0.911  10.232  1.00  0.00     0.070 A 
HETATM    8  C18 UNL     1      30.443   1.022   8.843  1.00  0.00     0.047 A 
ENDROOT
BRANCH   7   9
HETATM    9  C17 UNL     1      31.789   0.445  10.862  1.00  0.00     0.419 C 
HETATM   10  F2  UNL     1      32.699   0.227   9.818  1.00  0.00    -0.166 F 
HETATM   11  F3  UNL     1      32.334   1.456  11.628  1.00  0.00    -0.166 F 
HETATM   12  F4  UNL     1      31.656  -0.736  11.540  1.00  0.00    -0.166 F 
ENDBRANCH   7   9
BRANCH   1  13
HETATM   13  N1  UNL     1      29.182   1.571   6.810  1.00  0.00    -0.325 N 
HETATM   14  C10 UNL     1      28.882   0.570   5.887  1.00  0.00     0.257 C 
HETATM   15  O4  UNL     1      28.723  -0.604   6.283  1.00  0.00    -0.270 OA
ATOM     16  H1  UNL     1      29.300   2.511   6.432  1.00  0.00     0.169 HD
BRANCH  14  17
HETATM   17  C2  UNL     1      28.735   0.815   4.421  1.00  0.00     0.148 C 
HETATM   18  C1  UNL     1      30.116   0.698   3.814  1.00  0.00     0.057 C 
BRANCH  17  19
HETATM   19  O1  UNL     1      27.933  -0.141   3.805  1.00  0.00    -0.380 OA
ATOM     20  H1  UNL     1      28.513  -0.779   3.406  1.00  0.00     0.211 HD
ENDBRANCH  17  19
BRANCH  17  21
HETATM   21  C3  UNL     1      28.122   2.168   4.166  1.00  0.00     0.193 C 
BRANCH  21  22
HETATM   22  S1  UNL     1      26.379   2.102   3.976  1.00  0.00     0.178 S 
HETATM   23  O2  UNL     1      25.838   1.112   4.994  1.00  0.00    -0.222 OA
HETATM   24  O3  UNL     1      25.948   1.621   2.637  1.00  0.00    -0.222 OA
BRANCH  22  25
HETATM   25  C4  UNL     1      25.721   3.694   4.249  1.00  0.00     0.059 A 
HETATM   26  C5  UNL     1      26.493   4.819   4.022  1.00  0.00     0.026 A 
HETATM   27  C6  UNL     1      26.003   6.094   4.228  1.00  0.00     0.044 A 
HETATM   28  C7  UNL     1      24.715   6.304   4.673  1.00  0.00     0.116 A 
HETATM   29  F1  UNL     1      24.226   7.566   4.878  1.00  0.00    -0.206 F 
HETATM   30  C8  UNL     1      23.938   5.187   4.902  1.00  0.00     0.044 A 
HETATM   31  C9  UNL     1      24.433   3.909   4.694  1.00  0.00     0.026 A 
ENDBRANCH  22  25
ENDBRANCH  21  22
ENDBRANCH  17  21
ENDBRANCH  14  17
ENDBRANCH   1  13
TORSDOF 7
ENDMDL
