MODEL 8
REMARK VINA RESULT: -7.458351988      0.922      1.315
REMARK  7 active torsions:
REMARK  status: ('A' for Active; 'I' for Inactive)
REMARK    1  A    between atoms: C2_2  and  O1_3 
REMARK    2  A    between atoms: C2_2  and  C3_5 
REMARK    3  A    between atoms: C2_2  and  C10_16 
REMARK    4  A    between atoms: C3_5  and  S1_6 
REMARK    5  A    between atoms: S1_6  and  C4_9 
REMARK       I    between atoms: C10_16  and  N1_18 
REMARK    6  A    between atoms: N1_18  and  C11_20 
REMARK    7  A    between atoms: C16_26  and  C17_27 
ROOT
HETATM    1  C11 UNL     1      27.522   3.549   4.352  1.00  0.00     0.035 A 
HETATM    2  C12 UNL     1      27.956   4.880   4.208  1.00  0.00     0.031 A 
HETATM    3  C13 UNL     1      27.082   5.932   4.249  1.00  0.00     0.026 A 
HETATM    4  C14 UNL     1      25.726   5.704   4.439  1.00  0.00     0.059 A 
HETATM    5  C15 UNL     1      24.812   6.827   4.482  1.00  0.00     0.100 C 
HETATM    6  N2  UNL     1      24.080   7.719   4.525  1.00  0.00    -0.191 NA
HETATM    7  C16 UNL     1      25.276   4.420   4.582  1.00  0.00     0.070 A 
HETATM    8  C18 UNL     1      26.200   3.373   4.533  1.00  0.00     0.047 A 
ENDROOT
BRANCH   7   9
HETATM    9  C17 UNL     1      23.840   4.141   4.785  1.00  0.00     0.419 C 
HETATM   10  F2  UNL     1      23.148   4.950   3.873  1.00  0.00    -0.166 F 
HETATM   11  F3  UNL     1      23.558   2.840   4.418  1.00  0.00    -0.166 F 
HETATM   12  F4  UNL     1      23.390   4.460   6.037  1.00  0.00    -0.166 F 
ENDBRANCH   7   9
BRANCH   1  13
HETATM   13  N1  UNL     1      28.498   2.544   4.294  1.00  0.00    -0.325 N 
HETATM   14  C10 UNL     1      28.310   1.166   4.396  1.00  0.00     0.257 C 
HETATM   15  O4  UNL     1      27.157   0.713   4.559  1.00  0.00    -0.270 OA
ATOM     16  H1  UNL     1      29.460   2.858   4.161  1.00  0.00     0.169 HD
BRANCH  14  17
HETATM   17  C2  UNL     1      29.423   0.172   4.320  1.00  0.00     0.148 C 
HETATM   18  C1  UNL     1      28.901  -1.015   3.541  1.00  0.00     0.057 C 
BRANCH  17  19
HETATM   19  O1  UNL     1      30.524   0.667   3.628  1.00  0.00    -0.380 OA
ATOM     20  H1  UNL     1      30.363   1.590   3.467  1.00  0.00     0.211 HD
ENDBRANCH  17  19
BRANCH  17  21
HETATM   21  C3  UNL     1      29.882  -0.219   5.702  1.00  0.00     0.193 C 
BRANCH  21  22
HETATM   22  S1  UNL     1      29.897   1.130   6.822  1.00  0.00     0.178 S 
HETATM   23  O2  UNL     1      28.491   1.704   6.878  1.00  0.00    -0.222 OA
HETATM   24  O3  UNL     1      30.796   2.237   6.403  1.00  0.00    -0.222 OA
BRANCH  22  25
HETATM   25  C4  UNL     1      30.394   0.554   8.392  1.00  0.00     0.059 A 
HETATM   26  C5  UNL     1      29.479  -0.042   9.241  1.00  0.00     0.026 A 
HETATM   27  C6  UNL     1      29.840  -0.509  10.490  1.00  0.00     0.044 A 
HETATM   28  C7  UNL     1      31.135  -0.402  10.949  1.00  0.00     0.116 A 
HETATM   29  F1  UNL     1      31.496  -0.864  12.187  1.00  0.00    -0.206 F 
HETATM   30  C8  UNL     1      32.054   0.191  10.108  1.00  0.00     0.044 A 
HETATM   31  C9  UNL     1      31.689   0.658   8.856  1.00  0.00     0.026 A 
ENDBRANCH  22  25
ENDBRANCH  21  22
ENDBRANCH  17  21
ENDBRANCH  14  17
ENDBRANCH   1  13
TORSDOF 7
ENDMDL
