MODEL 1
REMARK VINA RESULT: -10.796359615      0.000      0.000
REMARK  7 active torsions:
REMARK  status: ('A' for Active; 'I' for Inactive)
REMARK    1  A    between atoms: C2_2  and  O1_3 
REMARK    2  A    between atoms: C2_2  and  C3_5 
REMARK    3  A    between atoms: C2_2  and  C10_16 
REMARK    4  A    between atoms: C3_5  and  S1_6 
REMARK    5  A    between atoms: S1_6  and  C4_9 
REMARK       I    between atoms: C10_16  and  N1_18 
REMARK    6  A    between atoms: N1_18  and  C11_20 
REMARK    7  A    between atoms: C16_26  and  C17_27 
ROOT
HETATM    1  C11 UNL     1      27.473   3.540   4.330  1.00  0.00     0.035 A 
HETATM    2  C12 UNL     1      27.912   4.877   4.337  1.00  0.00     0.031 A 
HETATM    3  C13 UNL     1      27.042   5.921   4.491  1.00  0.00     0.026 A 
HETATM    4  C14 UNL     1      25.685   5.679   4.648  1.00  0.00     0.059 A 
HETATM    5  C15 UNL     1      24.774   6.793   4.810  1.00  0.00     0.100 C 
HETATM    6  N2  UNL     1      24.045   7.678   4.949  1.00  0.00    -0.191 NA
HETATM    7  C16 UNL     1      25.229   4.388   4.645  1.00  0.00     0.070 A 
HETATM    8  C18 UNL     1      26.150   3.350   4.484  1.00  0.00     0.047 A 
ENDROOT
BRANCH   7   9
HETATM    9  C17 UNL     1      23.791   4.094   4.809  1.00  0.00     0.419 C 
HETATM   10  F2  UNL     1      23.614   2.761   4.412  1.00  0.00    -0.166 F 
HETATM   11  F3  UNL     1      23.454   4.133   6.147  1.00  0.00    -0.166 F 
HETATM   12  F4  UNL     1      22.979   4.865   4.022  1.00  0.00    -0.166 F 
ENDBRANCH   7   9
BRANCH   1  13
HETATM   13  N1  UNL     1      28.446   2.544   4.165  1.00  0.00    -0.325 N 
HETATM   14  C10 UNL     1      28.421   1.237   4.653  1.00  0.00     0.257 C 
HETATM   15  O4  UNL     1      27.441   0.851   5.324  1.00  0.00    -0.270 OA
ATOM     16  H1  UNL     1      29.270   2.805   3.623  1.00  0.00     0.169 HD
BRANCH  14  17
HETATM   17  C2  UNL     1      29.515   0.247   4.420  1.00  0.00     0.148 C 
HETATM   18  C1  UNL     1      28.946  -0.835   3.527  1.00  0.00     0.057 C 
BRANCH  17  19
HETATM   19  O1  UNL     1      30.597   0.807   3.749  1.00  0.00    -0.380 OA
ATOM     20  H1  UNL     1      30.742   1.670   4.120  1.00  0.00     0.211 HD
ENDBRANCH  17  19
BRANCH  17  21
HETATM   21  C3  UNL     1      30.016  -0.309   5.728  1.00  0.00     0.193 C 
BRANCH  21  22
HETATM   22  S1  UNL     1      30.992   0.838   6.627  1.00  0.00     0.178 S 
HETATM   23  O2  UNL     1      30.755   2.216   6.033  1.00  0.00    -0.222 OA
HETATM   24  O3  UNL     1      32.452   0.575   6.531  1.00  0.00    -0.222 OA
BRANCH  22  25
HETATM   25  C4  UNL     1      30.513   0.794   8.303  1.00  0.00     0.059 A 
HETATM   26  C5  UNL     1      29.427   1.530   8.741  1.00  0.00     0.026 A 
HETATM   27  C6  UNL     1      29.022   1.518  10.061  1.00  0.00     0.044 A 
HETATM   28  C7  UNL     1      29.684   0.766  11.008  1.00  0.00     0.116 A 
HETATM   29  F1  UNL     1      29.285   0.752  12.318  1.00  0.00    -0.206 F 
HETATM   30  C8  UNL     1      30.769   0.029  10.580  1.00  0.00     0.044 A 
HETATM   31  C9  UNL     1      31.173   0.044   9.255  1.00  0.00     0.026 A 
ENDBRANCH  22  25
ENDBRANCH  21  22
ENDBRANCH  17  21
ENDBRANCH  14  17
ENDBRANCH   1  13
TORSDOF 7
ENDMDL
