MODEL 10
REMARK VINA RESULT: -6.309581037      2.948      4.446
REMARK  6 active torsions:
REMARK  status: ('A' for Active; 'I' for Inactive)
REMARK    1  A    between atoms: C1_2  and  C2_4 
REMARK    2  A    between atoms: C2_4  and  C3_5 
REMARK       I    between atoms: C3_5  and  N1_7 
REMARK    3  A    between atoms: N1_7  and  C4_9 
REMARK    4  A    between atoms: C4_9  and  C5_10 
REMARK    5  A    between atoms: C4_9  and  C6_12 
REMARK    6  A    between atoms: C6_12  and  C7_13 
ROOT
HETATM    1  C4  UNL     1      36.843  42.030  -3.961  1.00  0.00     0.098 C 
ENDROOT
BRANCH   1   2
HETATM    2  N1  UNL     1      37.137  40.649  -4.161  1.00  0.00    -0.355 N 
HETATM    3  C3  UNL     1      38.398  40.123  -3.793  1.00  0.00     0.228 C 
HETATM    4  O3  UNL     1      39.290  40.858  -3.282  1.00  0.00    -0.273 OA
ATOM      5  H1  UNL     1      36.432  40.036  -4.571  1.00  0.00     0.162 HD
BRANCH   3   6
HETATM    6  C2  UNL     1      38.759  38.694  -3.978  1.00  0.00     0.215 C 
BRANCH   6   7
HETATM    7  C1  UNL     1      38.511  38.220  -5.347  1.00  0.00     0.181 C 
HETATM    8  O1  UNL     1      37.347  38.205  -5.795  1.00  0.00    -0.648 OA
HETATM    9  O2  UNL     1      39.541  37.785  -6.152  1.00  0.00    -0.648 OA
ENDBRANCH   6   7
ENDBRANCH   3   6
ENDBRANCH   1   2
BRANCH   1  10
HETATM   10  C5  UNL     1      36.088  42.605  -5.162  1.00  0.00     0.111 C 
HETATM   11  S1  UNL     1      35.414  41.251  -6.166  1.00  0.00    -0.096 SA
ENDBRANCH   1  10
BRANCH   1  12
HETATM   12  C6  UNL     1      35.973  42.284  -2.753  1.00  0.00     0.064 C 
BRANCH  12  13
HETATM   13  C7  UNL     1      36.741  42.603  -1.548  1.00  0.00    -0.056 A 
HETATM   14  C8  UNL     1      37.628  43.657  -1.486  1.00  0.00     0.007 A 
HETATM   15  C9  UNL     1      38.338  43.933  -0.337  1.00  0.00     0.001 A 
HETATM   16  C10 UNL     1      38.167  43.146   0.785  1.00  0.00     0.000 A 
HETATM   17  C11 UNL     1      37.274  42.081   0.731  1.00  0.00     0.001 A 
HETATM   18  C12 UNL     1      36.561  41.809  -0.434  1.00  0.00     0.007 A 
ENDBRANCH  12  13
ENDBRANCH   1  12
TORSDOF 6
ENDMDL
