MODEL 3
REMARK VINA RESULT: -6.746728107      4.326      8.474
REMARK  6 active torsions:
REMARK  status: ('A' for Active; 'I' for Inactive)
REMARK    1  A    between atoms: C1_2  and  C2_4 
REMARK    2  A    between atoms: C2_4  and  C3_5 
REMARK       I    between atoms: C3_5  and  N1_7 
REMARK    3  A    between atoms: N1_7  and  C4_9 
REMARK    4  A    between atoms: C4_9  and  C5_10 
REMARK    5  A    between atoms: C4_9  and  C6_12 
REMARK    6  A    between atoms: C6_12  and  C7_13 
ROOT
HETATM    1  C4  UNL     1      34.100  40.929  -9.008  1.00  0.00     0.098 C 
ENDROOT
BRANCH   1   2
HETATM    2  N1  UNL     1      34.321  41.101  -7.610  1.00  0.00    -0.355 N 
HETATM    3  C3  UNL     1      34.997  42.246  -7.125  1.00  0.00     0.228 C 
HETATM    4  O3  UNL     1      35.418  43.139  -7.914  1.00  0.00    -0.273 OA
ATOM      5  H1  UNL     1      33.989  40.393  -6.954  1.00  0.00     0.162 HD
BRANCH   3   6
HETATM    6  C2  UNL     1      35.256  42.477  -5.681  1.00  0.00     0.215 C 
BRANCH   6   7
HETATM    7  C1  UNL     1      36.640  42.167  -5.297  1.00  0.00     0.181 C 
HETATM    8  O1  UNL     1      37.504  43.066  -5.315  1.00  0.00    -0.648 OA
HETATM    9  O2  UNL     1      37.009  40.895  -4.916  1.00  0.00    -0.648 OA
ENDBRANCH   6   7
ENDBRANCH   3   6
ENDBRANCH   1   2
BRANCH   1  10
HETATM   10  C5  UNL     1      34.022  39.443  -9.368  1.00  0.00     0.111 C 
HETATM   11  S1  UNL     1      35.698  38.755  -9.490  1.00  0.00    -0.096 SA
ENDBRANCH   1  10
BRANCH   1  12
HETATM   12  C6  UNL     1      32.807  41.549  -9.486  1.00  0.00     0.064 C 
BRANCH  12  13
HETATM   13  C7  UNL     1      32.985  42.430 -10.641  1.00  0.00    -0.056 A 
HETATM   14  C8  UNL     1      32.822  41.998 -11.941  1.00  0.00     0.007 A 
HETATM   15  C9  UNL     1      32.996  42.851 -13.010  1.00  0.00     0.001 A 
HETATM   16  C10 UNL     1      33.341  44.170 -12.789  1.00  0.00     0.000 A 
HETATM   17  C11 UNL     1      33.508  44.613 -11.482  1.00  0.00     0.001 A 
HETATM   18  C12 UNL     1      33.330  43.745 -10.408  1.00  0.00     0.007 A 
ENDBRANCH  12  13
ENDBRANCH   1  12
TORSDOF 6
ENDMDL
