MODEL 5
REMARK VINA RESULT: -6.736343691      3.651      7.295
REMARK  6 active torsions:
REMARK  status: ('A' for Active; 'I' for Inactive)
REMARK    1  A    between atoms: C1_2  and  C2_4 
REMARK    2  A    between atoms: C2_4  and  C3_5 
REMARK       I    between atoms: C3_5  and  N1_7 
REMARK    3  A    between atoms: N1_7  and  C4_9 
REMARK    4  A    between atoms: C4_9  and  C5_10 
REMARK    5  A    between atoms: C4_9  and  C6_12 
REMARK    6  A    between atoms: C6_12  and  C7_13 
ROOT
HETATM    1  C4  UNL     1      35.240  40.807  -7.019  1.00  0.00     0.098 C 
ENDROOT
BRANCH   1   2
HETATM    2  N1  UNL     1      35.343  41.046  -5.617  1.00  0.00    -0.355 N 
HETATM    3  C3  UNL     1      36.184  42.072  -5.124  1.00  0.00     0.228 C 
HETATM    4  O3  UNL     1      36.860  42.797  -5.908  1.00  0.00    -0.273 OA
ATOM      5  H1  UNL     1      34.807  40.474  -4.965  1.00  0.00     0.162 HD
BRANCH   3   6
HETATM    6  C2  UNL     1      36.332  42.366  -3.676  1.00  0.00     0.215 C 
BRANCH   6   7
HETATM    7  C1  UNL     1      37.696  42.777  -3.317  1.00  0.00     0.181 C 
HETATM    8  O1  UNL     1      37.906  43.936  -2.908  1.00  0.00    -0.648 OA
HETATM    9  O2  UNL     1      38.758  41.906  -3.426  1.00  0.00    -0.648 OA
ENDBRANCH   6   7
ENDBRANCH   3   6
ENDBRANCH   1   2
BRANCH   1  10
HETATM   10  C5  UNL     1      35.752  39.408  -7.371  1.00  0.00     0.111 C 
HETATM   11  S1  UNL     1      34.363  38.240  -7.412  1.00  0.00    -0.096 SA
ENDBRANCH   1  10
BRANCH   1  12
HETATM   12  C6  UNL     1      33.820  40.879  -7.531  1.00  0.00     0.064 C 
BRANCH  12  13
HETATM   13  C7  UNL     1      33.698  41.628  -8.783  1.00  0.00    -0.056 A 
HETATM   14  C8  UNL     1      33.852  42.997  -8.851  1.00  0.00     0.007 A 
HETATM   15  C9  UNL     1      33.732  43.675 -10.045  1.00  0.00     0.001 A 
HETATM   16  C10 UNL     1      33.451  42.982 -11.207  1.00  0.00     0.000 A 
HETATM   17  C11 UNL     1      33.294  41.602 -11.146  1.00  0.00     0.001 A 
HETATM   18  C12 UNL     1      33.418  40.924  -9.936  1.00  0.00     0.007 A 
ENDBRANCH  12  13
ENDBRANCH   1  12
TORSDOF 6
ENDMDL
