MODEL 2
REMARK VINA RESULT: -7.739350327      1.791      2.623
REMARK  6 active torsions:
REMARK  status: ('A' for Active; 'I' for Inactive)
REMARK    1  A    between atoms: N1_1  and  S1_4 
REMARK    2  A    between atoms: S1_4  and  C1_7 
REMARK    3  A    between atoms: C3_9  and  C4_10 
REMARK    4  A    between atoms: C5_13  and  N2_14 
REMARK    5  A    between atoms: N2_14  and  C6_16 
REMARK    6  A    between atoms: C6_16  and  C7_17 
ROOT
HETATM    1  C1  UNL     1      15.700   4.048  15.957  1.00  0.00     0.102 A 
HETATM    2  C2  UNL     1      16.309   3.762  14.770  1.00  0.00     0.047 A 
HETATM    3  C3  UNL     1      16.827   4.726  13.889  1.00  0.00     0.068 A 
HETATM    4  C5  UNL     1      16.702   6.042  14.263  1.00  0.00     0.047 A 
HETATM    5  C11 UNL     1      16.079   6.375  15.480  1.00  0.00     0.055 A 
HETATM    6  C12 UNL     1      15.591   5.394  16.303  1.00  0.00     0.059 A 
HETATM    7 CL1  UNL     1      14.824   5.846  17.805  1.00  0.00    -0.083 Cl
ENDROOT
BRANCH   4   8
HETATM    8  N2  UNL     1      17.209   7.063  13.441  1.00  0.00    -0.383 N 
ATOM      9  H2  UNL     1      17.868   6.841  12.693  1.00  0.00     0.160 HD
BRANCH   8  10
HETATM   10  C6  UNL     1      16.787   8.442  13.666  1.00  0.00     0.184 C 
BRANCH  10  11
HETATM   11  C7  UNL     1      17.954   9.193  14.200  1.00  0.00     0.070 A 
HETATM   12  C8  UNL     1      18.012   9.573  15.546  1.00  0.00     0.036 A 
HETATM   13  C9  UNL     1      19.206  10.236  15.688  1.00  0.00     0.027 A 
HETATM   14  C10 UNL     1      19.801  10.226  14.449  1.00  0.00     0.142 A 
HETATM   15  O5  UNL     1      19.039   9.602  13.586  1.00  0.00    -0.325 OA
ENDBRANCH  10  11
ENDBRANCH   8  10
ENDBRANCH   4   8
BRANCH   3  16
HETATM   16  C4  UNL     1      17.428   4.256  12.682  1.00  0.00     0.211 C 
HETATM   17  O3  UNL     1      16.833   3.346  11.997  1.00  0.00    -0.644 OA
HETATM   18  O4  UNL     1      18.617   4.670  12.131  1.00  0.00    -0.644 OA
ENDBRANCH   3  16
BRANCH   1  19
HETATM   19  S1  UNL     1      15.072   2.810  17.019  1.00  0.00     0.258 S 
HETATM   20  O1  UNL     1      15.510   1.471  16.465  1.00  0.00    -0.201 OA
HETATM   21  O2  UNL     1      15.581   3.002  18.426  1.00  0.00    -0.201 OA
BRANCH  19  22
HETATM   22  N1  UNL     1      13.347   2.813  17.042  1.00  0.00    -0.324 N 
ATOM     23  H12 UNL     1      12.751   1.988  17.124  1.00  0.00     0.169 HD
ATOM     24  H11 UNL     1      13.045   3.784  16.957  1.00  0.00     0.169 HD
ENDBRANCH  19  22
ENDBRANCH   1  19
TORSDOF 6
ENDMDL
