MODEL 9
REMARK VINA RESULT: -7.073226834      1.985      2.677
REMARK  6 active torsions:
REMARK  status: ('A' for Active; 'I' for Inactive)
REMARK    1  A    between atoms: N1_1  and  S1_4 
REMARK    2  A    between atoms: S1_4  and  C1_7 
REMARK    3  A    between atoms: C3_9  and  C4_10 
REMARK    4  A    between atoms: C5_13  and  N2_14 
REMARK    5  A    between atoms: N2_14  and  C6_16 
REMARK    6  A    between atoms: C6_16  and  C7_17 
ROOT
HETATM    1  C1  UNL     1      16.303   4.097  14.637  1.00  0.00     0.102 A 
HETATM    2  C2  UNL     1      16.670   4.045  13.324  1.00  0.00     0.047 A 
HETATM    3  C3  UNL     1      16.731   5.158  12.470  1.00  0.00     0.068 A 
HETATM    4  C5  UNL     1      16.393   6.376  13.009  1.00  0.00     0.047 A 
HETATM    5  C11 UNL     1      16.008   6.468  14.359  1.00  0.00     0.055 A 
HETATM    6  C12 UNL     1      15.966   5.349  15.150  1.00  0.00     0.059 A 
HETATM    7 CL1  UNL     1      15.484   5.503  16.820  1.00  0.00    -0.083 Cl
ENDROOT
BRANCH   4   8
HETATM    8  N2  UNL     1      16.445   7.538  12.221  1.00  0.00    -0.383 N 
ATOM      9  H2  UNL     1      16.484   7.468  11.204  1.00  0.00     0.160 HD
BRANCH   8  10
HETATM   10  C6  UNL     1      16.442   8.846  12.870  1.00  0.00     0.184 C 
BRANCH  10  11
HETATM   11  C7  UNL     1      17.843   9.167  13.248  1.00  0.00     0.070 A 
HETATM   12  C8  UNL     1      18.179   9.486  14.569  1.00  0.00     0.036 A 
HETATM   13  C9  UNL     1      19.532   9.722  14.557  1.00  0.00     0.027 A 
HETATM   14  C10 UNL     1      19.942   9.540  13.258  1.00  0.00     0.142 A 
HETATM   15  O5  UNL     1      18.923   9.212  12.503  1.00  0.00    -0.325 OA
ENDBRANCH  10  11
ENDBRANCH   8  10
ENDBRANCH   4   8
BRANCH   3  16
HETATM   16  C4  UNL     1      17.130   4.927  11.119  1.00  0.00     0.211 C 
HETATM   17  O3  UNL     1      18.108   5.601  10.629  1.00  0.00    -0.644 OA
HETATM   18  O4  UNL     1      16.578   4.034  10.231  1.00  0.00    -0.644 OA
ENDBRANCH   3  16
BRANCH   1  19
HETATM   19  S1  UNL     1      16.243   2.680  15.659  1.00  0.00     0.258 S 
HETATM   20  O1  UNL     1      16.236   1.467  14.754  1.00  0.00    -0.201 OA
HETATM   21  O2  UNL     1      17.426   2.644  16.594  1.00  0.00    -0.201 OA
BRANCH  19  22
HETATM   22  N1  UNL     1      14.791   2.632  16.589  1.00  0.00    -0.324 N 
ATOM     23  H12 UNL     1      13.924   3.121  16.363  1.00  0.00     0.169 HD
ATOM     24  H11 UNL     1      14.967   2.032  17.394  1.00  0.00     0.169 HD
ENDBRANCH  19  22
ENDBRANCH   1  19
TORSDOF 6
ENDMDL
