MODEL 13
REMARK VINA RESULT: -6.867471216      3.729      6.728
REMARK  6 active torsions:
REMARK  status: ('A' for Active; 'I' for Inactive)
REMARK    1  A    between atoms: N1_1  and  S1_4 
REMARK    2  A    between atoms: S1_4  and  C1_7 
REMARK    3  A    between atoms: C3_9  and  C4_10 
REMARK    4  A    between atoms: C5_13  and  N2_14 
REMARK    5  A    between atoms: N2_14  and  C6_16 
REMARK    6  A    between atoms: C6_16  and  C7_17 
ROOT
HETATM    1  C1  UNL     1      17.423   6.325  10.550  1.00  0.00     0.102 A 
HETATM    2  C2  UNL     1      17.089   5.010  10.691  1.00  0.00     0.047 A 
HETATM    3  C3  UNL     1      16.825   4.385  11.920  1.00  0.00     0.068 A 
HETATM    4  C5  UNL     1      16.914   5.164  13.048  1.00  0.00     0.047 A 
HETATM    5  C11 UNL     1      17.258   6.524  12.941  1.00  0.00     0.055 A 
HETATM    6  C12 UNL     1      17.505   7.085  11.715  1.00  0.00     0.059 A 
HETATM    7 CL1  UNL     1      17.928   8.777  11.622  1.00  0.00    -0.083 Cl
ENDROOT
BRANCH   4   8
HETATM    8  N2  UNL     1      16.649   4.613  14.313  1.00  0.00    -0.383 N 
ATOM      9  H2  UNL     1      17.362   4.064  14.794  1.00  0.00     0.160 HD
BRANCH   8  10
HETATM   10  C6  UNL     1      15.346   4.832  14.933  1.00  0.00     0.184 C 
BRANCH  10  11
HETATM   11  C7  UNL     1      15.235   3.913  16.096  1.00  0.00     0.070 A 
HETATM   12  C8  UNL     1      15.145   4.409  17.401  1.00  0.00     0.036 A 
HETATM   13  C9  UNL     1      15.057   3.302  18.210  1.00  0.00     0.027 A 
HETATM   14  C10 UNL     1      15.099   2.212  17.373  1.00  0.00     0.142 A 
HETATM   15  O5  UNL     1      15.204   2.601  16.127  1.00  0.00    -0.325 OA
ENDBRANCH  10  11
ENDBRANCH   8  10
ENDBRANCH   4   8
BRANCH   3  16
HETATM   16  C4  UNL     1      16.495   2.995  11.892  1.00  0.00     0.211 C 
HETATM   17  O3  UNL     1      16.075   2.472  10.796  1.00  0.00    -0.644 OA
HETATM   18  O4  UNL     1      16.573   2.102  12.934  1.00  0.00    -0.644 OA
ENDBRANCH   3  16
BRANCH   1  19
HETATM   19  S1  UNL     1      17.743   7.057   8.994  1.00  0.00     0.258 S 
HETATM   20  O1  UNL     1      19.136   7.644   9.047  1.00  0.00    -0.201 OA
HETATM   21  O2  UNL     1      17.632   6.036   7.889  1.00  0.00    -0.201 OA
BRANCH  19  22
HETATM   22  N1  UNL     1      16.653   8.355   8.671  1.00  0.00    -0.324 N 
ATOM     23  H12 UNL     1      16.425   8.724   7.748  1.00  0.00     0.169 HD
ATOM     24  H11 UNL     1      16.290   8.675   9.569  1.00  0.00     0.169 HD
ENDBRANCH  19  22
ENDBRANCH   1  19
TORSDOF 6
ENDMDL
