MODEL 8
REMARK VINA RESULT: -7.208549393      3.481      6.519
REMARK  6 active torsions:
REMARK  status: ('A' for Active; 'I' for Inactive)
REMARK    1  A    between atoms: N1_1  and  S1_4 
REMARK    2  A    between atoms: S1_4  and  C1_7 
REMARK    3  A    between atoms: C3_9  and  C4_10 
REMARK    4  A    between atoms: C5_13  and  N2_14 
REMARK    5  A    between atoms: N2_14  and  C6_16 
REMARK    6  A    between atoms: C6_16  and  C7_17 
ROOT
HETATM    1  C1  UNL     1      17.305   6.396  11.110  1.00  0.00     0.102 A 
HETATM    2  C2  UNL     1      17.053   5.081  11.367  1.00  0.00     0.047 A 
HETATM    3  C3  UNL     1      17.004   4.516  12.652  1.00  0.00     0.068 A 
HETATM    4  C5  UNL     1      17.229   5.360  13.712  1.00  0.00     0.047 A 
HETATM    5  C11 UNL     1      17.494   6.723  13.486  1.00  0.00     0.055 A 
HETATM    6  C12 UNL     1      17.530   7.223  12.210  1.00  0.00     0.059 A 
HETATM    7 CL1  UNL     1      17.862   8.920  11.969  1.00  0.00    -0.083 Cl
ENDROOT
BRANCH   4   8
HETATM    8  N2  UNL     1      17.181   4.872  15.028  1.00  0.00    -0.383 N 
ATOM      9  H2  UNL     1      17.880   4.203  15.355  1.00  0.00     0.160 HD
BRANCH   8  10
HETATM   10  C6  UNL     1      16.124   5.328  15.926  1.00  0.00     0.184 C 
BRANCH  10  11
HETATM   11  C7  UNL     1      15.520   4.129  16.563  1.00  0.00     0.070 A 
HETATM   12  C8  UNL     1      14.132   3.948  16.589  1.00  0.00     0.036 A 
HETATM   13  C9  UNL     1      13.930   2.756  17.242  1.00  0.00     0.027 A 
HETATM   14  C10 UNL     1      15.177   2.284  17.575  1.00  0.00     0.142 A 
HETATM   15  O5  UNL     1      16.101   3.115  17.161  1.00  0.00    -0.325 OA
ENDBRANCH  10  11
ENDBRANCH   8  10
ENDBRANCH   4   8
BRANCH   3  16
HETATM   16  C4  UNL     1      16.733   3.117  12.744  1.00  0.00     0.211 C 
HETATM   17  O3  UNL     1      16.533   2.444  11.667  1.00  0.00    -0.644 OA
HETATM   18  O4  UNL     1      16.654   2.360  13.888  1.00  0.00    -0.644 OA
ENDBRANCH   3  16
BRANCH   1  19
HETATM   19  S1  UNL     1      17.355   7.051   9.489  1.00  0.00     0.258 S 
HETATM   20  O1  UNL     1      17.443   5.883   8.531  1.00  0.00    -0.201 OA
HETATM   21  O2  UNL     1      16.129   7.884   9.210  1.00  0.00    -0.201 OA
BRANCH  19  22
HETATM   22  N1  UNL     1      18.761   8.021   9.243  1.00  0.00    -0.324 N 
ATOM     23  H12 UNL     1      19.371   8.380   9.977  1.00  0.00     0.169 HD
ATOM     24  H11 UNL     1      18.859   8.161   8.238  1.00  0.00     0.169 HD
ENDBRANCH  19  22
ENDBRANCH   1  19
TORSDOF 6
ENDMDL
