MODEL 12
REMARK VINA RESULT: -6.875413479      3.388      6.426
REMARK  6 active torsions:
REMARK  status: ('A' for Active; 'I' for Inactive)
REMARK    1  A    between atoms: N1_1  and  S1_4 
REMARK    2  A    between atoms: S1_4  and  C1_7 
REMARK    3  A    between atoms: C3_9  and  C4_10 
REMARK    4  A    between atoms: C5_13  and  N2_14 
REMARK    5  A    between atoms: N2_14  and  C6_16 
REMARK    6  A    between atoms: C6_16  and  C7_17 
ROOT
HETATM    1  C1  UNL     1      15.986   7.970  11.246  1.00  0.00     0.102 A 
HETATM    2  C2  UNL     1      16.954   7.072  11.587  1.00  0.00     0.047 A 
HETATM    3  C3  UNL     1      17.209   6.638  12.899  1.00  0.00     0.068 A 
HETATM    4  C5  UNL     1      16.422   7.165  13.894  1.00  0.00     0.047 A 
HETATM    5  C11 UNL     1      15.414   8.095  13.579  1.00  0.00     0.055 A 
HETATM    6  C12 UNL     1      15.206   8.484  12.281  1.00  0.00     0.059 A 
HETATM    7 CL1  UNL     1      13.946   9.640  11.929  1.00  0.00    -0.083 Cl
ENDROOT
BRANCH   4   8
HETATM    8  N2  UNL     1      16.607   6.768  15.229  1.00  0.00    -0.383 N 
ATOM      9  H2  UNL     1      17.512   6.411  15.538  1.00  0.00     0.160 HD
BRANCH   8  10
HETATM   10  C6  UNL     1      15.495   6.870  16.169  1.00  0.00     0.184 C 
BRANCH  10  11
HETATM   11  C7  UNL     1      15.139   5.494  16.603  1.00  0.00     0.070 A 
HETATM   12  C8  UNL     1      15.104   5.152  17.960  1.00  0.00     0.036 A 
HETATM   13  C9  UNL     1      14.745   3.827  17.996  1.00  0.00     0.027 A 
HETATM   14  C10 UNL     1      14.584   3.438  16.687  1.00  0.00     0.142 A 
HETATM   15  O5  UNL     1      14.823   4.443  15.883  1.00  0.00    -0.325 OA
ENDBRANCH  10  11
ENDBRANCH   8  10
ENDBRANCH   4   8
BRANCH   3  16
HETATM   16  C4  UNL     1      18.267   5.696  13.084  1.00  0.00     0.211 C 
HETATM   17  O3  UNL     1      19.139   5.906  14.004  1.00  0.00    -0.644 OA
HETATM   18  O4  UNL     1      18.483   4.540  12.373  1.00  0.00    -0.644 OA
ENDBRANCH   3  16
BRANCH   1  19
HETATM   19  S1  UNL     1      15.708   8.478   9.596  1.00  0.00     0.258 S 
HETATM   20  O1  UNL     1      16.699   7.742   8.721  1.00  0.00    -0.201 OA
HETATM   21  O2  UNL     1      14.291   8.175   9.174  1.00  0.00    -0.201 OA
BRANCH  19  22
HETATM   22  N1  UNL     1      16.004  10.166   9.396  1.00  0.00    -0.324 N 
ATOM     23  H12 UNL     1      15.293  10.897   9.380  1.00  0.00     0.169 HD
ATOM     24  H11 UNL     1      17.013  10.286   9.300  1.00  0.00     0.169 HD
ENDBRANCH  19  22
ENDBRANCH   1  19
TORSDOF 6
ENDMDL
