MODEL 10
REMARK VINA RESULT: -7.055275973      2.705      3.250
REMARK  6 active torsions:
REMARK  status: ('A' for Active; 'I' for Inactive)
REMARK    1  A    between atoms: N1_1  and  S1_4 
REMARK    2  A    between atoms: S1_4  and  C1_7 
REMARK    3  A    between atoms: C3_9  and  C4_10 
REMARK    4  A    between atoms: C5_13  and  N2_14 
REMARK    5  A    between atoms: N2_14  and  C6_16 
REMARK    6  A    between atoms: C6_16  and  C7_17 
ROOT
HETATM    1  C1  UNL     1      15.934   4.412  16.116  1.00  0.00     0.102 A 
HETATM    2  C2  UNL     1      16.866   4.650  15.149  1.00  0.00     0.047 A 
HETATM    3  C3  UNL     1      17.221   5.927  14.684  1.00  0.00     0.068 A 
HETATM    4  C5  UNL     1      16.577   6.999  15.252  1.00  0.00     0.047 A 
HETATM    5  C11 UNL     1      15.608   6.792  16.252  1.00  0.00     0.055 A 
HETATM    6  C12 UNL     1      15.299   5.523  16.670  1.00  0.00     0.059 A 
HETATM    7 CL1  UNL     1      14.093   5.305  17.913  1.00  0.00    -0.083 Cl
ENDROOT
BRANCH   4   8
HETATM    8  N2  UNL     1      16.889   8.308  14.851  1.00  0.00    -0.383 N 
ATOM      9  H2  UNL     1      16.628   8.637  13.921  1.00  0.00     0.160 HD
BRANCH   8  10
HETATM   10  C6  UNL     1      17.592   9.194  15.775  1.00  0.00     0.184 C 
BRANCH  10  11
HETATM   11  C7  UNL     1      18.434  10.116  14.967  1.00  0.00     0.070 A 
HETATM   12  C8  UNL     1      19.271  11.053  15.584  1.00  0.00     0.036 A 
HETATM   13  C9  UNL     1      19.890  11.724  14.557  1.00  0.00     0.027 A 
HETATM   14  C10 UNL     1      19.408  11.173  13.393  1.00  0.00     0.142 A 
HETATM   15  O5  UNL     1      18.548  10.223  13.664  1.00  0.00    -0.325 OA
ENDBRANCH  10  11
ENDBRANCH   8  10
ENDBRANCH   4   8
BRANCH   3  16
HETATM   16  C4  UNL     1      18.213   6.000  13.659  1.00  0.00     0.211 C 
HETATM   17  O3  UNL     1      18.242   5.094  12.748  1.00  0.00    -0.644 OA
HETATM   18  O4  UNL     1      19.188   6.959  13.513  1.00  0.00    -0.644 OA
ENDBRANCH   3  16
BRANCH   1  19
HETATM   19  S1  UNL     1      15.527   2.801  16.660  1.00  0.00     0.258 S 
HETATM   20  O1  UNL     1      15.805   2.739  18.146  1.00  0.00    -0.201 OA
HETATM   21  O2  UNL     1      14.079   2.488  16.371  1.00  0.00    -0.201 OA
BRANCH  19  22
HETATM   22  N1  UNL     1      16.520   1.610  15.904  1.00  0.00    -0.324 N 
ATOM     23  H12 UNL     1      17.535   1.652  15.814  1.00  0.00     0.169 HD
ATOM     24  H11 UNL     1      15.903   0.869  15.570  1.00  0.00     0.169 HD
ENDBRANCH  19  22
ENDBRANCH   1  19
TORSDOF 6
ENDMDL
