MODEL 7
REMARK VINA RESULT: -5.838760668      6.312      7.912
REMARK  6 active torsions:
REMARK  status: ('A' for Active; 'I' for Inactive)
REMARK    1  A    between atoms: C4_6  and  C5_7 
REMARK    2  A    between atoms: C5_7  and  O1_8 
REMARK    3  A    between atoms: O1_8  and  P1_9 
REMARK    4  A    between atoms: C6_13  and  C7_14 
REMARK    5  A    between atoms: C7_14  and  N2_15 
REMARK    6  A    between atoms: C8_19  and  O5_20 
ROOT
HETATM    1  C1  UNL     1      15.094  53.839  13.956  1.00  0.00     0.071 C 
HETATM    2  C2  UNL     1      16.143  52.959  14.528  1.00  0.00     0.039 A 
HETATM    3  N1  UNL     1      17.285  52.787  13.859  1.00  0.00    -0.367 N 
ATOM      4  H1  UNL     1      17.403  53.268  12.967  1.00  0.00     0.165 HD
HETATM    5  C3  UNL     1      18.278  52.014  14.300  1.00  0.00     0.098 A 
HETATM    6  C4  UNL     1      18.168  51.355  15.481  1.00  0.00    -0.008 A 
HETATM    7  C6  UNL     1      16.971  51.515  16.216  1.00  0.00     0.012 A 
HETATM    8  C8  UNL     1      15.973  52.309  15.741  1.00  0.00     0.096 A 
ENDROOT
BRANCH   6   9
HETATM    9  C5  UNL     1      19.202  50.459  16.038  1.00  0.00     0.223 C 
BRANCH   9  10
HETATM   10  O1  UNL     1      19.300  49.216  15.572  1.00  0.00    -0.278 OA
BRANCH  10  11
HETATM   11  P1  UNL     1      19.688  47.923  16.419  1.00  0.00     0.422 P 
HETATM   12  O2  UNL     1      19.502  46.371  15.678  1.00  0.00    -0.617 OA
HETATM   13  O3  UNL     1      18.297  47.727  17.018  1.00  0.00    -0.617 OA
HETATM   14  O4  UNL     1      21.099  47.866  15.794  1.00  0.00    -0.617 OA
ENDBRANCH  10  11
ENDBRANCH   9  10
ENDBRANCH   6   9
BRANCH   7  15
HETATM   15  C7  UNL     1      16.846  50.803  17.496  1.00  0.00     0.271 C 
BRANCH  15  16
HETATM   16  N2  UNL     1      15.951  51.399  18.454  1.00  0.00    -0.075 N 
ATOM     17  H23 UNL     1      16.485  51.869  19.185  1.00  0.00     0.274 HD
ATOM     18  H22 UNL     1      15.476  52.199  18.036  1.00  0.00     0.274 HD
ATOM     19  H21 UNL     1      15.268  50.767  18.871  1.00  0.00     0.274 HD
ENDBRANCH  15  16
ENDBRANCH   7  15
BRANCH   8  20
HETATM   20  O5  UNL     1      14.774  52.510  16.411  1.00  0.00    -0.358 OA
ATOM     21  H5  UNL     1      14.820  52.852  17.296  1.00  0.00     0.217 HD
ENDBRANCH   8  20
TORSDOF 6
ENDMDL
