MODEL 2
REMARK VINA RESULT: -6.196545305      0.569      1.269
REMARK  6 active torsions:
REMARK  status: ('A' for Active; 'I' for Inactive)
REMARK    1  A    between atoms: C4_6  and  C5_7 
REMARK    2  A    between atoms: C5_7  and  O1_8 
REMARK    3  A    between atoms: O1_8  and  P1_9 
REMARK    4  A    between atoms: C6_13  and  C7_14 
REMARK    5  A    between atoms: C7_14  and  N2_15 
REMARK    6  A    between atoms: C8_19  and  O5_20 
ROOT
HETATM    1  C1  UNL     1      15.262  41.836  18.364  1.00  0.00     0.071 C 
HETATM    2  C2  UNL     1      15.811  42.861  17.440  1.00  0.00     0.039 A 
HETATM    3  N1  UNL     1      15.828  44.140  17.823  1.00  0.00    -0.367 N 
ATOM      4  H1  UNL     1      15.461  44.376  18.745  1.00  0.00     0.165 HD
HETATM    5  C3  UNL     1      16.302  45.123  17.057  1.00  0.00     0.098 A 
HETATM    6  C4  UNL     1      16.801  44.857  15.823  1.00  0.00    -0.008 A 
HETATM    7  C6  UNL     1      16.798  43.513  15.386  1.00  0.00     0.012 A 
HETATM    8  C8  UNL     1      16.307  42.530  16.189  1.00  0.00     0.096 A 
ENDROOT
BRANCH   6   9
HETATM    9  C5  UNL     1      17.324  45.880  14.895  1.00  0.00     0.223 C 
BRANCH   9  10
HETATM   10  O1  UNL     1      18.364  46.622  15.269  1.00  0.00    -0.278 OA
BRANCH  10  11
HETATM   11  P1  UNL     1      18.312  48.142  15.742  1.00  0.00     0.422 P 
HETATM   12  O2  UNL     1      17.216  48.570  17.011  1.00  0.00    -0.617 OA
HETATM   13  O3  UNL     1      17.224  48.557  14.756  1.00  0.00    -0.617 OA
HETATM   14  O4  UNL     1      19.290  47.875  16.907  1.00  0.00    -0.617 OA
ENDBRANCH  10  11
ENDBRANCH   9  10
ENDBRANCH   6   9
BRANCH   7  15
HETATM   15  C7  UNL     1      17.337  43.219  14.050  1.00  0.00     0.271 C 
BRANCH  15  16
HETATM   16  N2  UNL     1      16.439  42.539  13.154  1.00  0.00    -0.075 N 
ATOM     17  H23 UNL     1      16.467  41.534  13.327  1.00  0.00     0.274 HD
ATOM     18  H22 UNL     1      15.473  42.740  13.409  1.00  0.00     0.274 HD
ATOM     19  H21 UNL     1      16.584  42.726  12.161  1.00  0.00     0.274 HD
ENDBRANCH  15  16
ENDBRANCH   7  15
BRANCH   8  20
HETATM   20  O5  UNL     1      16.273  41.191  15.823  1.00  0.00    -0.358 OA
ATOM     21  H5  UNL     1      16.909  40.612  16.226  1.00  0.00     0.217 HD
ENDBRANCH   8  20
TORSDOF 6
ENDMDL
