MODEL 8
REMARK VINA RESULT: -5.780589246      6.294      7.826
REMARK  6 active torsions:
REMARK  status: ('A' for Active; 'I' for Inactive)
REMARK    1  A    between atoms: C4_6  and  C5_7 
REMARK    2  A    between atoms: C5_7  and  O1_8 
REMARK    3  A    between atoms: O1_8  and  P1_9 
REMARK    4  A    between atoms: C6_13  and  C7_14 
REMARK    5  A    between atoms: C7_14  and  N2_15 
REMARK    6  A    between atoms: C8_19  and  O5_20 
ROOT
HETATM    1  C1  UNL     1      15.306  53.874  14.473  1.00  0.00     0.071 C 
HETATM    2  C2  UNL     1      16.307  52.818  14.768  1.00  0.00     0.039 A 
HETATM    3  N1  UNL     1      17.347  52.659  13.947  1.00  0.00    -0.367 N 
ATOM      4  H1  UNL     1      17.423  53.272  13.135  1.00  0.00     0.165 HD
HETATM    5  C3  UNL     1      18.291  51.737  14.138  1.00  0.00     0.098 A 
HETATM    6  C4  UNL     1      18.233  50.899  15.204  1.00  0.00    -0.008 A 
HETATM    7  C6  UNL     1      17.143  51.040  16.094  1.00  0.00     0.012 A 
HETATM    8  C8  UNL     1      16.194  51.989  15.875  1.00  0.00     0.096 A 
ENDROOT
BRANCH   6   9
HETATM    9  C5  UNL     1      19.215  49.833  15.484  1.00  0.00     0.223 C 
BRANCH   9  10
HETATM   10  O1  UNL     1      20.320  50.134  16.164  1.00  0.00    -0.278 OA
BRANCH  10  11
HETATM   11  P1  UNL     1      20.903  49.332  17.411  1.00  0.00     0.422 P 
HETATM   12  O2  UNL     1      22.457  49.783  18.022  1.00  0.00    -0.617 OA
HETATM   13  O3  UNL     1      21.615  48.273  16.574  1.00  0.00    -0.617 OA
HETATM   14  O4  UNL     1      20.390  50.395  18.407  1.00  0.00    -0.617 OA
ENDBRANCH  10  11
ENDBRANCH   9  10
ENDBRANCH   6   9
BRANCH   7  15
HETATM   15  C7  UNL     1      17.075  50.135  17.251  1.00  0.00     0.271 C 
BRANCH  15  16
HETATM   16  N2  UNL     1      17.182  50.767  18.541  1.00  0.00    -0.075 N 
ATOM     17  H23 UNL     1      17.689  51.648  18.457  1.00  0.00     0.274 HD
ATOM     18  H22 UNL     1      16.269  51.112  18.837  1.00  0.00     0.274 HD
ATOM     19  H21 UNL     1      17.595  50.195  19.277  1.00  0.00     0.274 HD
ENDBRANCH  15  16
ENDBRANCH   7  15
BRANCH   8  20
HETATM   20  O5  UNL     1      15.100  52.182  16.707  1.00  0.00    -0.358 OA
ATOM     21  H5  UNL     1      15.217  51.998  17.632  1.00  0.00     0.217 HD
ENDBRANCH   8  20
TORSDOF 6
ENDMDL
