MODEL 1
REMARK VINA RESULT: -6.239730865      0.000      0.000
REMARK  6 active torsions:
REMARK  status: ('A' for Active; 'I' for Inactive)
REMARK    1  A    between atoms: C4_6  and  C5_7 
REMARK    2  A    between atoms: C5_7  and  O1_8 
REMARK    3  A    between atoms: O1_8  and  P1_9 
REMARK    4  A    between atoms: C6_13  and  C7_14 
REMARK    5  A    between atoms: C7_14  and  N2_15 
REMARK    6  A    between atoms: C8_19  and  O5_20 
ROOT
HETATM    1  C1  UNL     1      15.270  41.835  18.342  1.00  0.00     0.071 C 
HETATM    2  C2  UNL     1      15.821  42.858  17.418  1.00  0.00     0.039 A 
HETATM    3  N1  UNL     1      15.857  44.134  17.807  1.00  0.00    -0.367 N 
ATOM      4  H1  UNL     1      15.501  44.371  18.733  1.00  0.00     0.165 HD
HETATM    5  C3  UNL     1      16.335  45.115  17.040  1.00  0.00     0.098 A 
HETATM    6  C4  UNL     1      16.819  44.850  15.800  1.00  0.00    -0.008 A 
HETATM    7  C6  UNL     1      16.795  43.508  15.357  1.00  0.00     0.012 A 
HETATM    8  C8  UNL     1      16.301  42.526  16.160  1.00  0.00     0.096 A 
ENDROOT
BRANCH   6   9
HETATM    9  C5  UNL     1      17.345  45.871  14.872  1.00  0.00     0.223 C 
BRANCH   9  10
HETATM   10  O1  UNL     1      18.271  46.724  15.306  1.00  0.00    -0.278 OA
BRANCH  10  11
HETATM   11  P1  UNL     1      18.008  48.198  15.851  1.00  0.00     0.422 P 
HETATM   12  O2  UNL     1      19.105  49.452  15.387  1.00  0.00    -0.617 OA
HETATM   13  O3  UNL     1      18.845  48.029  17.116  1.00  0.00    -0.617 OA
HETATM   14  O4  UNL     1      17.262  48.605  14.561  1.00  0.00    -0.617 OA
ENDBRANCH  10  11
ENDBRANCH   9  10
ENDBRANCH   6   9
BRANCH   7  15
HETATM   15  C7  UNL     1      17.319  43.214  14.015  1.00  0.00     0.271 C 
BRANCH  15  16
HETATM   16  N2  UNL     1      16.416  42.518  13.135  1.00  0.00    -0.075 N 
ATOM     17  H23 UNL     1      15.454  42.648  13.448  1.00  0.00     0.274 HD
ATOM     18  H22 UNL     1      16.377  42.989  12.232  1.00  0.00     0.274 HD
ATOM     19  H21 UNL     1      16.609  41.525  13.003  1.00  0.00     0.274 HD
ENDBRANCH  15  16
ENDBRANCH   7  15
BRANCH   8  20
HETATM   20  O5  UNL     1      16.248  41.190  15.788  1.00  0.00    -0.358 OA
ATOM     21  H5  UNL     1      15.496  40.907  15.281  1.00  0.00     0.217 HD
ENDBRANCH   8  20
TORSDOF 6
ENDMDL
