MODEL 3
REMARK VINA RESULT: -7.005807284      3.215      7.984
REMARK  6 active torsions:
REMARK  status: ('A' for Active; 'I' for Inactive)
REMARK    1  A    between atoms: C1_2  and  C2_4 
REMARK    2  A    between atoms: C2_4  and  N1_5 
REMARK       I    between atoms: N1_5  and  C3_7 
REMARK    3  A    between atoms: C3_7  and  C4_9 
REMARK    4  A    between atoms: C4_9  and  C5_10 
REMARK    5  A    between atoms: C4_9  and  C6_12 
REMARK    6  A    between atoms: C6_12  and  C7_13 
ROOT
HETATM    1  C4  UNL     1      35.248  41.413  -7.591  1.00  0.00     0.092 C 
ENDROOT
BRANCH   1   2
HETATM    2  C3  UNL     1      35.615  42.141  -6.328  1.00  0.00     0.223 C 
HETATM    3  N1  UNL     1      36.139  41.449  -5.208  1.00  0.00    -0.351 N 
ATOM      4  H1  UNL     1      36.258  40.438  -5.282  1.00  0.00     0.163 HD
HETATM    5  O3  UNL     1      35.460  43.375  -6.255  1.00  0.00    -0.273 OA
BRANCH   3   6
HETATM    6  C2  UNL     1      36.511  42.081  -3.977  1.00  0.00     0.235 C 
BRANCH   6   7
HETATM    7  C1  UNL     1      37.969  42.382  -3.955  1.00  0.00     0.191 C 
HETATM    8  O1  UNL     1      38.458  43.065  -4.881  1.00  0.00    -0.647 OA
HETATM    9  O2  UNL     1      38.788  41.916  -2.926  1.00  0.00    -0.647 OA
ENDBRANCH   6   7
ENDBRANCH   3   6
ENDBRANCH   1   2
BRANCH   1  10
HETATM   10  C5  UNL     1      35.543  39.944  -7.394  1.00  0.00     0.100 C 
HETATM   11  S1  UNL     1      33.991  39.109  -6.988  1.00  0.00    -0.097 SA
ENDBRANCH   1  10
BRANCH   1  12
HETATM   12  C6  UNL     1      33.794  41.557  -7.920  1.00  0.00     0.053 C 
BRANCH  12  13
HETATM   13  C7  UNL     1      33.667  42.129  -9.280  1.00  0.00    -0.057 A 
HETATM   14  C8  UNL     1      33.367  41.274 -10.350  1.00  0.00     0.007 A 
HETATM   15  C9  UNL     1      33.255  41.744 -11.629  1.00  0.00     0.001 A 
HETATM   16  C10 UNL     1      33.429  43.069 -11.922  1.00  0.00     0.000 A 
HETATM   17  C11 UNL     1      33.724  43.930 -10.899  1.00  0.00     0.001 A 
HETATM   18  C12 UNL     1      33.835  43.439  -9.606  1.00  0.00     0.007 A 
ENDBRANCH  12  13
ENDBRANCH   1  12
TORSDOF 6
ENDMDL
