MODEL 5
REMARK VINA RESULT: -6.615805829      4.560      8.747
REMARK  6 active torsions:
REMARK  status: ('A' for Active; 'I' for Inactive)
REMARK    1  A    between atoms: C1_2  and  C2_4 
REMARK    2  A    between atoms: C2_4  and  N1_5 
REMARK       I    between atoms: N1_5  and  C3_7 
REMARK    3  A    between atoms: C3_7  and  C4_9 
REMARK    4  A    between atoms: C4_9  and  C5_10 
REMARK    5  A    between atoms: C4_9  and  C6_12 
REMARK    6  A    between atoms: C6_12  and  C7_13 
ROOT
HETATM    1  C4  UNL     1      33.764  40.548  -9.178  1.00  0.00     0.092 C 
ENDROOT
BRANCH   1   2
HETATM    2  C3  UNL     1      34.878  40.682  -8.177  1.00  0.00     0.223 C 
HETATM    3  N1  UNL     1      34.615  41.032  -6.830  1.00  0.00    -0.351 N 
ATOM      4  H1  UNL     1      33.646  41.194  -6.557  1.00  0.00     0.163 HD
HETATM    5  O3  UNL     1      36.056  40.481  -8.529  1.00  0.00    -0.273 OA
BRANCH   3   6
HETATM    6  C2  UNL     1      35.629  41.173  -5.826  1.00  0.00     0.235 C 
BRANCH   6   7
HETATM    7  C1  UNL     1      36.175  42.558  -5.813  1.00  0.00     0.191 C 
HETATM    8  O1  UNL     1      35.421  43.506  -6.125  1.00  0.00    -0.647 OA
HETATM    9  O2  UNL     1      37.502  42.809  -5.463  1.00  0.00    -0.647 OA
ENDBRANCH   6   7
ENDBRANCH   3   6
ENDBRANCH   1   2
BRANCH   1  10
HETATM   10  C5  UNL     1      32.946  39.329  -8.816  1.00  0.00     0.100 C 
HETATM   11  S1  UNL     1      33.469  37.965  -9.881  1.00  0.00    -0.097 SA
ENDBRANCH   1  10
BRANCH   1  12
HETATM   12  C6  UNL     1      32.856  41.738  -9.171  1.00  0.00     0.053 C 
BRANCH  12  13
HETATM   13  C7  UNL     1      33.040  42.484 -10.437  1.00  0.00    -0.057 A 
HETATM   14  C8  UNL     1      33.420  43.833 -10.380  1.00  0.00     0.007 A 
HETATM   15  C9  UNL     1      33.587  44.575 -11.516  1.00  0.00     0.001 A 
HETATM   16  C10 UNL     1      33.394  44.036 -12.759  1.00  0.00     0.000 A 
HETATM   17  C11 UNL     1      33.022  42.721 -12.848  1.00  0.00     0.001 A 
HETATM   18  C12 UNL     1      32.855  41.979 -11.687  1.00  0.00     0.007 A 
ENDBRANCH  12  13
ENDBRANCH   1  12
TORSDOF 6
ENDMDL
