MODEL 4
REMARK VINA RESULT: -6.980818125      3.226      7.935
REMARK  6 active torsions:
REMARK  status: ('A' for Active; 'I' for Inactive)
REMARK    1  A    between atoms: C1_2  and  C2_4 
REMARK    2  A    between atoms: C2_4  and  N1_5 
REMARK       I    between atoms: N1_5  and  C3_7 
REMARK    3  A    between atoms: C3_7  and  C4_9 
REMARK    4  A    between atoms: C4_9  and  C5_10 
REMARK    5  A    between atoms: C4_9  and  C6_12 
REMARK    6  A    between atoms: C6_12  and  C7_13 
ROOT
HETATM    1  C4  UNL     1      35.259  41.446  -7.619  1.00  0.00     0.092 C 
ENDROOT
BRANCH   1   2
HETATM    2  C3  UNL     1      35.623  42.157  -6.345  1.00  0.00     0.223 C 
HETATM    3  N1  UNL     1      36.170  41.454  -5.243  1.00  0.00    -0.351 N 
ATOM      4  H1  UNL     1      36.308  40.448  -5.338  1.00  0.00     0.163 HD
HETATM    5  O3  UNL     1      35.445  43.386  -6.248  1.00  0.00    -0.273 OA
BRANCH   3   6
HETATM    6  C2  UNL     1      36.541  42.070  -4.003  1.00  0.00     0.235 C 
BRANCH   6   7
HETATM    7  C1  UNL     1      37.998  42.374  -3.977  1.00  0.00     0.191 C 
HETATM    8  O1  UNL     1      38.483  43.081  -4.887  1.00  0.00    -0.647 OA
HETATM    9  O2  UNL     1      38.821  41.886  -2.961  1.00  0.00    -0.647 OA
ENDBRANCH   6   7
ENDBRANCH   3   6
ENDBRANCH   1   2
BRANCH   1  10
HETATM   10  C5  UNL     1      35.556  39.974  -7.442  1.00  0.00     0.100 C 
HETATM   11  S1  UNL     1      34.015  39.142  -6.992  1.00  0.00    -0.097 SA
ENDBRANCH   1  10
BRANCH   1  12
HETATM   12  C6  UNL     1      33.806  41.593  -7.949  1.00  0.00     0.053 C 
BRANCH  12  13
HETATM   13  C7  UNL     1      33.680  42.078  -9.342  1.00  0.00    -0.057 A 
HETATM   14  C8  UNL     1      33.855  43.446  -9.602  1.00  0.00     0.007 A 
HETATM   15  C9  UNL     1      33.734  43.952 -10.866  1.00  0.00     0.001 A 
HETATM   16  C10 UNL     1      33.439  43.149 -11.934  1.00  0.00     0.000 A 
HETATM   17  C11 UNL     1      33.263  41.809 -11.714  1.00  0.00     0.001 A 
HETATM   18  C12 UNL     1      33.388  41.309 -10.425  1.00  0.00     0.007 A 
ENDBRANCH  12  13
ENDBRANCH   1  12
TORSDOF 6
ENDMDL
