MODEL 10
REMARK VINA RESULT: -1.868764611      5.663      5.736
REMARK  0 active torsions:
REMARK  status: ('A' for Active; 'I' for Inactive)
ROOT
HETATM    1  C1  UNL     1      37.698  23.692  56.666  1.00  0.00     0.089 C 
HETATM    2  S1  UNL     1      38.732  22.182  56.729  1.00  0.00    -0.178 SA
HETATM    3  C2  UNL     1      38.417  21.428  58.363  1.00  0.00     0.089 C 
ENDROOT
TORSDOF 0
ENDMDL
