MODEL 1
REMARK VINA RESULT: -2.268917806      0.000      0.000
REMARK  0 active torsions:
REMARK  status: ('A' for Active; 'I' for Inactive)
ROOT
HETATM    1  C1  UNL     1      33.730  20.517  60.434  1.00  0.00     0.089 C 
HETATM    2  S1  UNL     1      35.086  19.533  59.696  1.00  0.00    -0.178 SA
HETATM    3  C2  UNL     1      34.343  17.933  59.223  1.00  0.00     0.089 C 
ENDROOT
TORSDOF 0
ENDMDL
