MODEL 3
REMARK VINA RESULT: -2.154380110      1.222      1.222
REMARK  0 active torsions:
REMARK  status: ('A' for Active; 'I' for Inactive)
ROOT
HETATM    1  C1  UNL     1      33.784  20.662  60.412  1.00  0.00     0.089 C 
HETATM    2  S1  UNL     1      33.074  19.017  60.037  1.00  0.00    -0.178 SA
HETATM    3  C2  UNL     1      34.389  18.090  59.172  1.00  0.00     0.089 C 
ENDROOT
TORSDOF 0
ENDMDL
