MODEL 2
REMARK VINA RESULT: -2.266671763      0.047      2.384
REMARK  0 active torsions:
REMARK  status: ('A' for Active; 'I' for Inactive)
ROOT
HETATM    1  C1  UNL     1      34.285  17.904  59.249  1.00  0.00     0.089 C 
HETATM    2  S1  UNL     1      35.057  19.504  59.690  1.00  0.00    -0.178 SA
HETATM    3  C2  UNL     1      33.727  20.516  60.427  1.00  0.00     0.089 C 
ENDROOT
TORSDOF 0
ENDMDL
