MODEL 5
REMARK VINA RESULT: -1.999075693      1.387      2.752
REMARK  0 active torsions:
REMARK  status: ('A' for Active; 'I' for Inactive)
ROOT
HETATM    1  C1  UNL     1      35.399  17.246  59.067  1.00  0.00     0.089 C 
HETATM    2  S1  UNL     1      34.006  18.397  59.357  1.00  0.00    -0.178 SA
HETATM    3  C2  UNL     1      34.754  19.943  59.978  1.00  0.00     0.089 C 
ENDROOT
TORSDOF 0
ENDMDL
