MODEL 9
REMARK VINA RESULT: -1.926766505      8.341      8.599
REMARK  0 active torsions:
REMARK  status: ('A' for Active; 'I' for Inactive)
ROOT
HETATM    1  C1  UNL     1      39.562  24.322  54.190  1.00  0.00     0.089 C 
HETATM    2  S1  UNL     1      38.086  24.447  55.265  1.00  0.00    -0.178 SA
HETATM    3  C2  UNL     1      36.733  25.043  54.192  1.00  0.00     0.089 C 
ENDROOT
TORSDOF 0
ENDMDL
