MODEL 4
REMARK VINA RESULT: -2.153850847      1.228      2.681
REMARK  0 active torsions:
REMARK  status: ('A' for Active; 'I' for Inactive)
ROOT
HETATM    1  C1  UNL     1      34.395  18.022  59.261  1.00  0.00     0.089 C 
HETATM    2  S1  UNL     1      33.059  19.012  60.026  1.00  0.00    -0.178 SA
HETATM    3  C2  UNL     1      33.797  20.639  60.410  1.00  0.00     0.089 C 
ENDROOT
TORSDOF 0
ENDMDL
