MODEL 6
REMARK VINA RESULT: -1.980466690      8.548      8.629
REMARK  0 active torsions:
REMARK  status: ('A' for Active; 'I' for Inactive)
ROOT
HETATM    1  C1  UNL     1      37.055  25.008  53.913  1.00  0.00     0.089 C 
HETATM    2  S1  UNL     1      38.331  24.479  55.114  1.00  0.00    -0.178 SA
HETATM    3  C2  UNL     1      39.813  24.074  54.125  1.00  0.00     0.089 C 
ENDROOT
TORSDOF 0
ENDMDL
