MODEL 2
REMARK VINA RESULT: -6.057323444      0.962      1.128
REMARK  3 active torsions:
REMARK  status: ('A' for Active; 'I' for Inactive)
REMARK    1  A    between atoms: N1_1  and  S1_4 
REMARK    2  A    between atoms: S1_4  and  C1_7 
REMARK    3  A    between atoms: C5_13  and  O3_14 
ROOT
HETATM    1  C1  UNL     1      16.117   6.169  13.772  1.00  0.00     0.192 A 
HETATM    2  N2  UNL     1      15.205   6.008  14.686  1.00  0.00    -0.339 N 
ATOM      3  H2  UNL     1      14.528   6.753  14.852  1.00  0.00     0.167 HD
HETATM    4  C2  UNL     1      15.137   4.918  15.393  1.00  0.00     0.051 A 
HETATM    5  C3  UNL     1      14.198   4.633  16.405  1.00  0.00     0.034 A 
HETATM    6  C4  UNL     1      14.260   3.441  17.056  1.00  0.00     0.039 A 
HETATM    7  C5  UNL     1      15.174   2.455  16.821  1.00  0.00     0.067 A 
HETATM    8  C6  UNL     1      16.105   2.726  15.824  1.00  0.00     0.057 A 
HETATM    9  C7  UNL     1      16.070   3.943  15.134  1.00  0.00     0.037 A 
HETATM   10  S2  UNL     1      16.979   4.673  13.885  1.00  0.00    -0.057 SA
ENDROOT
BRANCH   1  11
HETATM   11  S1  UNL     1      16.447   7.514  12.677  1.00  0.00     0.279 S 
HETATM   12  O1  UNL     1      15.189   8.287  12.403  1.00  0.00    -0.199 OA
HETATM   13  O2  UNL     1      17.427   8.468  13.288  1.00  0.00    -0.199 OA
BRANCH  11  14
HETATM   14  N1  UNL     1      17.126   6.896  11.215  1.00  0.00    -0.323 N 
ATOM     15  H12 UNL     1      16.580   6.711  10.373  1.00  0.00     0.169 HD
ATOM     16  H11 UNL     1      18.130   6.744  11.312  1.00  0.00     0.169 HD
ENDBRANCH  11  14
ENDBRANCH   1  11
BRANCH   7  17
HETATM   17  O3  UNL     1      15.158   1.275  17.535  1.00  0.00    -0.361 OA
ATOM     18  H3  UNL     1      15.939   0.740  17.625  1.00  0.00     0.217 HD
ENDBRANCH   7  17
TORSDOF 3
ENDMDL
