MODEL 3
REMARK VINA RESULT: -6.037188334      1.572      1.749
REMARK  3 active torsions:
REMARK  status: ('A' for Active; 'I' for Inactive)
REMARK    1  A    between atoms: N1_1  and  S1_4 
REMARK    2  A    between atoms: S1_4  and  C1_7 
REMARK    3  A    between atoms: C5_13  and  O3_14 
ROOT
HETATM    1  C1  UNL     1      16.672   4.951  12.485  1.00  0.00     0.192 A 
HETATM    2  N2  UNL     1      15.898   5.289  13.475  1.00  0.00    -0.339 N 
ATOM      3  H2  UNL     1      15.392   6.173  13.432  1.00  0.00     0.167 HD
HETATM    4  C2  UNL     1      15.757   4.524  14.517  1.00  0.00     0.051 A 
HETATM    5  C3  UNL     1      14.950   4.784  15.645  1.00  0.00     0.034 A 
HETATM    6  C4  UNL     1      14.910   3.881  16.659  1.00  0.00     0.039 A 
HETATM    7  C5  UNL     1      15.596   2.702  16.699  1.00  0.00     0.067 A 
HETATM    8  C6  UNL     1      16.394   2.434  15.592  1.00  0.00     0.057 A 
HETATM    9  C7  UNL     1      16.460   3.344  14.530  1.00  0.00     0.037 A 
HETATM   10  S2  UNL     1      17.275   3.424  13.031  1.00  0.00    -0.057 SA
ENDROOT
BRANCH   1  11
HETATM   11  S1  UNL     1      17.053   5.771  10.968  1.00  0.00     0.279 S 
HETATM   12  O1  UNL     1      17.139   4.779   9.844  1.00  0.00    -0.199 OA
HETATM   13  O2  UNL     1      15.979   6.752  10.611  1.00  0.00    -0.199 OA
BRANCH  11  14
HETATM   14  N1  UNL     1      18.539   6.631  11.151  1.00  0.00    -0.323 N 
ATOM     15  H12 UNL     1      19.378   6.227  11.568  1.00  0.00     0.169 HD
ATOM     16  H11 UNL     1      18.458   7.582  10.791  1.00  0.00     0.169 HD
ENDBRANCH  11  14
ENDBRANCH   1  11
BRANCH   7  17
HETATM   17  O3  UNL     1      15.491   1.844  17.775  1.00  0.00    -0.361 OA
ATOM     18  H3  UNL     1      16.153   1.823  18.457  1.00  0.00     0.217 HD
ENDBRANCH   7  17
TORSDOF 3
ENDMDL
