MODEL 4
REMARK VINA RESULT: -6.029336668      2.512      5.927
REMARK  3 active torsions:
REMARK  status: ('A' for Active; 'I' for Inactive)
REMARK    1  A    between atoms: N1_1  and  S1_4 
REMARK    2  A    between atoms: S1_4  and  C1_7 
REMARK    3  A    between atoms: C5_13  and  O3_14 
ROOT
HETATM    1  C1  UNL     1      15.873   4.021  15.904  1.00  0.00     0.192 A 
HETATM    2  N2  UNL     1      17.097   4.384  15.657  1.00  0.00    -0.339 N 
ATOM      3  H2  UNL     1      17.867   3.815  16.010  1.00  0.00     0.167 HD
HETATM    4  C2  UNL     1      17.361   5.455  14.968  1.00  0.00     0.051 A 
HETATM    5  C3  UNL     1      18.642   5.945  14.638  1.00  0.00     0.034 A 
HETATM    6  C4  UNL     1      18.752   7.086  13.908  1.00  0.00     0.039 A 
HETATM    7  C5  UNL     1      17.709   7.834  13.443  1.00  0.00     0.067 A 
HETATM    8  C6  UNL     1      16.441   7.360  13.763  1.00  0.00     0.057 A 
HETATM    9  C7  UNL     1      16.292   6.189  14.514  1.00  0.00     0.037 A 
HETATM   10  S2  UNL     1      14.980   5.275  15.115  1.00  0.00    -0.057 SA
ENDROOT
BRANCH   1  11
HETATM   11  S1  UNL     1      15.221   2.641  16.794  1.00  0.00     0.279 S 
HETATM   12  O1  UNL     1      15.632   1.354  16.137  1.00  0.00    -0.199 OA
HETATM   13  O2  UNL     1      15.754   2.612  18.194  1.00  0.00    -0.199 OA
BRANCH  11  14
HETATM   14  N1  UNL     1      13.502   2.780  16.867  1.00  0.00    -0.323 N 
ATOM     15  H12 UNL     1      12.953   2.569  17.700  1.00  0.00     0.169 HD
ATOM     16  H11 UNL     1      13.122   3.095  15.974  1.00  0.00     0.169 HD
ENDBRANCH  11  14
ENDBRANCH   1  11
BRANCH   7  17
HETATM   17  O3  UNL     1      17.920   8.982  12.707  1.00  0.00    -0.361 OA
ATOM     18  H3  UNL     1      18.481   8.983  11.940  1.00  0.00     0.217 HD
ENDBRANCH   7  17
TORSDOF 3
ENDMDL
