MODEL 17
REMARK VINA RESULT: -5.552820206      2.849      6.092
REMARK  3 active torsions:
REMARK  status: ('A' for Active; 'I' for Inactive)
REMARK    1  A    between atoms: N1_1  and  S1_4 
REMARK    2  A    between atoms: S1_4  and  C1_7 
REMARK    3  A    between atoms: C5_13  and  O3_14 
ROOT
HETATM    1  C1  UNL     1      16.878   4.370  14.830  1.00  0.00     0.192 A 
HETATM    2  N2  UNL     1      18.023   4.988  14.799  1.00  0.00    -0.339 N 
ATOM      3  H2  UNL     1      18.844   4.537  15.204  1.00  0.00     0.167 HD
HETATM    4  C2  UNL     1      18.143   6.167  14.264  1.00  0.00     0.051 A 
HETATM    5  C3  UNL     1      19.326   6.930  14.173  1.00  0.00     0.034 A 
HETATM    6  C4  UNL     1      19.287   8.152  13.580  1.00  0.00     0.039 A 
HETATM    7  C5  UNL     1      18.178   8.739  13.044  1.00  0.00     0.067 A 
HETATM    8  C6  UNL     1      17.005   7.995  13.128  1.00  0.00     0.057 A 
HETATM    9  C7  UNL     1      17.009   6.733  13.733  1.00  0.00     0.037 A 
HETATM   10  S2  UNL     1      15.850   5.518  14.044  1.00  0.00    -0.057 SA
ENDROOT
BRANCH   1  11
HETATM   11  S1  UNL     1      16.422   2.791  15.477  1.00  0.00     0.279 S 
HETATM   12  O1  UNL     1      16.286   1.789  14.367  1.00  0.00    -0.199 OA
HETATM   13  O2  UNL     1      17.473   2.276  16.412  1.00  0.00    -0.199 OA
BRANCH  11  14
HETATM   14  N1  UNL     1      14.942   2.950  16.354  1.00  0.00    -0.323 N 
ATOM     15  H12 UNL     1      14.089   2.443  16.118  1.00  0.00     0.169 HD
ATOM     16  H11 UNL     1      15.042   3.610  17.125  1.00  0.00     0.169 HD
ENDBRANCH  11  14
ENDBRANCH   1  11
BRANCH   7  17
HETATM   17  O3  UNL     1      18.236   9.989  12.461  1.00  0.00    -0.361 OA
ATOM     18  H3  UNL     1      17.489  10.355  12.001  1.00  0.00     0.217 HD
ENDBRANCH   7  17
TORSDOF 3
ENDMDL
