MODEL 1
REMARK VINA RESULT: -6.068830586      0.000      0.000
REMARK  3 active torsions:
REMARK  status: ('A' for Active; 'I' for Inactive)
REMARK    1  A    between atoms: N1_1  and  S1_4 
REMARK    2  A    between atoms: S1_4  and  C1_7 
REMARK    3  A    between atoms: C5_13  and  O3_14 
ROOT
HETATM    1  C1  UNL     1      15.971   6.132  13.748  1.00  0.00     0.192 A 
HETATM    2  N2  UNL     1      15.094   5.972  14.696  1.00  0.00    -0.339 N 
ATOM      3  H2  UNL     1      14.417   6.713  14.880  1.00  0.00     0.167 HD
HETATM    4  C2  UNL     1      15.060   4.887  15.412  1.00  0.00     0.051 A 
HETATM    5  C3  UNL     1      14.160   4.602  16.460  1.00  0.00     0.034 A 
HETATM    6  C4  UNL     1      14.255   3.416  17.117  1.00  0.00     0.039 A 
HETATM    7  C5  UNL     1      15.167   2.436  16.856  1.00  0.00     0.067 A 
HETATM    8  C6  UNL     1      16.060   2.706  15.825  1.00  0.00     0.057 A 
HETATM    9  C7  UNL     1      15.991   3.917  15.128  1.00  0.00     0.037 A 
HETATM   10  S2  UNL     1      16.849   4.644  13.841  1.00  0.00    -0.057 SA
ENDROOT
BRANCH   1  11
HETATM   11  S1  UNL     1      16.251   7.472  12.632  1.00  0.00     0.279 S 
HETATM   12  O1  UNL     1      16.527   6.953  11.250  1.00  0.00    -0.199 OA
HETATM   13  O2  UNL     1      15.041   8.350  12.541  1.00  0.00    -0.199 OA
BRANCH  11  14
HETATM   14  N1  UNL     1      17.572   8.421  13.213  1.00  0.00    -0.323 N 
ATOM     15  H12 UNL     1      18.435   8.568  12.689  1.00  0.00     0.169 HD
ATOM     16  H11 UNL     1      17.369   8.806  14.136  1.00  0.00     0.169 HD
ENDBRANCH  11  14
ENDBRANCH   1  11
BRANCH   7  17
HETATM   17  O3  UNL     1      15.187   1.260  17.579  1.00  0.00    -0.361 OA
ATOM     18  H3  UNL     1      15.964   0.714  17.614  1.00  0.00     0.217 HD
ENDBRANCH   7  17
TORSDOF 3
ENDMDL
