MODEL 19
REMARK VINA RESULT: -5.597068142      3.871      5.248
REMARK  2 active torsions:
REMARK  status: ('A' for Active; 'I' for Inactive)
REMARK    1  A    between atoms: C4_6  and  S1_7 
REMARK    2  A    between atoms: S1_7  and  N2_8 
ROOT
HETATM    1  N1  UNL     1      16.524   1.543  14.314  1.00  0.00    -0.099 NA
HETATM    2  C1  UNL     1      16.966   2.480  13.348  1.00  0.00     0.089 A 
HETATM    3  C2  UNL     1      17.098   3.801  13.662  1.00  0.00     0.061 A 
HETATM    4 CL1  UNL     1      16.723   4.397  15.287  1.00  0.00    -0.082 Cl
HETATM    5  C3  UNL     1      17.533   4.717  12.707  1.00  0.00     0.051 A 
HETATM    6  C4  UNL     1      17.832   4.276  11.434  1.00  0.00     0.082 A 
HETATM    7  C5  UNL     1      17.690   2.944  11.148  1.00  0.00     0.051 A 
HETATM    8  C6  UNL     1      17.260   2.002  12.067  1.00  0.00     0.061 A 
HETATM    9 CL2  UNL     1      17.088   0.305  11.675  1.00  0.00    -0.082 Cl
ENDROOT
BRANCH   6  10
HETATM   10  S1  UNL     1      18.378   5.454  10.251  1.00  0.00     0.256 S 
HETATM   11  O1  UNL     1      17.193   5.832   9.430  1.00  0.00    -0.201 OA
HETATM   12  O2  UNL     1      19.430   4.769   9.407  1.00  0.00    -0.201 OA
BRANCH  10  13
HETATM   13  N2  UNL     1      19.104   6.824  11.015  1.00  0.00    -0.324 N 
ATOM     14  H22 UNL     1      19.982   6.780  11.532  1.00  0.00     0.169 HD
ATOM     15  H21 UNL     1      18.545   7.666  10.878  1.00  0.00     0.169 HD
ENDBRANCH  10  13
ENDBRANCH   6  10
TORSDOF 2
ENDMDL
