MODEL 3
REMARK VINA RESULT: -6.319735144      2.117      2.368
REMARK  2 active torsions:
REMARK  status: ('A' for Active; 'I' for Inactive)
REMARK    1  A    between atoms: C4_6  and  S1_7 
REMARK    2  A    between atoms: S1_7  and  N2_8 
ROOT
HETATM    1  N1  UNL     1      16.361   6.096  12.017  1.00  0.00    -0.099 NA
HETATM    2  C1  UNL     1      16.086   5.349  13.189  1.00  0.00     0.089 A 
HETATM    3  C2  UNL     1      16.658   4.127  13.391  1.00  0.00     0.061 A 
HETATM    4 CL1  UNL     1      17.766   3.427  12.200  1.00  0.00    -0.082 Cl
HETATM    5  C3  UNL     1      16.384   3.398  14.547  1.00  0.00     0.051 A 
HETATM    6  C4  UNL     1      15.524   3.924  15.489  1.00  0.00     0.082 A 
HETATM    7  C5  UNL     1      14.965   5.153  15.259  1.00  0.00     0.051 A 
HETATM    8  C6  UNL     1      15.211   5.908  14.125  1.00  0.00     0.061 A 
HETATM    9 CL2  UNL     1      14.482   7.477  13.856  1.00  0.00    -0.082 Cl
ENDROOT
BRANCH   6  10
HETATM   10  S1  UNL     1      15.197   2.981  16.935  1.00  0.00     0.256 S 
HETATM   11  O1  UNL     1      16.373   2.094  17.155  1.00  0.00    -0.201 OA
HETATM   12  O2  UNL     1      13.949   2.173  16.656  1.00  0.00    -0.201 OA
BRANCH  10  13
HETATM   13  N2  UNL     1      14.887   4.000  18.296  1.00  0.00    -0.324 N 
ATOM     14  H22 UNL     1      14.006   4.493  18.441  1.00  0.00     0.169 HD
ATOM     15  H21 UNL     1      15.692   4.040  18.921  1.00  0.00     0.169 HD
ENDBRANCH  10  13
ENDBRANCH   6  10
TORSDOF 2
ENDMDL
