MODEL 17
REMARK VINA RESULT: -5.631419198      3.851      4.656
REMARK  2 active torsions:
REMARK  status: ('A' for Active; 'I' for Inactive)
REMARK    1  A    between atoms: C4_6  and  S1_7 
REMARK    2  A    between atoms: S1_7  and  N2_8 
ROOT
HETATM    1  N1  UNL     1      16.541   1.549  14.394  1.00  0.00    -0.099 NA
HETATM    2  C1  UNL     1      16.973   2.474  13.412  1.00  0.00     0.089 A 
HETATM    3  C2  UNL     1      17.261   2.064  12.143  1.00  0.00     0.061 A 
HETATM    4 CL1  UNL     1      17.108   0.363  11.674  1.00  0.00    -0.082 Cl
HETATM    5  C3  UNL     1      17.685   2.979  11.181  1.00  0.00     0.051 A 
HETATM    6  C4  UNL     1      17.812   4.310  11.524  1.00  0.00     0.082 A 
HETATM    7  C5  UNL     1      17.515   4.691  12.805  1.00  0.00     0.051 A 
HETATM    8  C6  UNL     1      17.091   3.815  13.790  1.00  0.00     0.061 A 
HETATM    9 CL2  UNL     1      16.718   4.330  15.420  1.00  0.00    -0.082 Cl
ENDROOT
BRANCH   6  10
HETATM   10  S1  UNL     1      18.349   5.439  10.290  1.00  0.00     0.256 S 
HETATM   11  O1  UNL     1      17.161   5.771   9.454  1.00  0.00    -0.201 OA
HETATM   12  O2  UNL     1      19.406   4.726   9.477  1.00  0.00    -0.201 OA
BRANCH  10  13
HETATM   13  N2  UNL     1      19.065   6.846  10.992  1.00  0.00    -0.324 N 
ATOM     14  H22 UNL     1      19.845   7.350  10.571  1.00  0.00     0.169 HD
ATOM     15  H21 UNL     1      18.608   7.098  11.869  1.00  0.00     0.169 HD
ENDBRANCH  10  13
ENDBRANCH   6  10
TORSDOF 2
ENDMDL
