MODEL 10
REMARK VINA RESULT: -5.891174966      3.138      3.306
REMARK  2 active torsions:
REMARK  status: ('A' for Active; 'I' for Inactive)
REMARK    1  A    between atoms: C4_6  and  S1_7 
REMARK    2  A    between atoms: S1_7  and  N2_8 
ROOT
HETATM    1  N1  UNL     1      17.098   8.324  13.272  1.00  0.00    -0.099 NA
HETATM    2  C1  UNL     1      16.967   7.023  13.817  1.00  0.00     0.089 A 
HETATM    3  C2  UNL     1      15.736   6.493  14.074  1.00  0.00     0.061 A 
HETATM    4 CL1  UNL     1      14.257   7.407  13.737  1.00  0.00    -0.082 Cl
HETATM    5  C3  UNL     1      15.613   5.212  14.609  1.00  0.00     0.051 A 
HETATM    6  C4  UNL     1      16.752   4.481  14.879  1.00  0.00     0.082 A 
HETATM    7  C5  UNL     1      17.973   5.039  14.611  1.00  0.00     0.051 A 
HETATM    8  C6  UNL     1      18.138   6.307  14.080  1.00  0.00     0.061 A 
HETATM    9 CL2  UNL     1      19.712   6.997  13.746  1.00  0.00    -0.082 Cl
ENDROOT
BRANCH   6  10
HETATM   10  S1  UNL     1      16.566   2.869  15.554  1.00  0.00     0.256 S 
HETATM   11  O1  UNL     1      17.828   2.549  16.279  1.00  0.00    -0.201 OA
HETATM   12  O2  UNL     1      16.354   1.930  14.387  1.00  0.00    -0.201 OA
BRANCH  10  13
HETATM   13  N2  UNL     1      15.182   2.774  16.584  1.00  0.00    -0.324 N 
ATOM     14  H22 UNL     1      15.233   2.545  17.576  1.00  0.00     0.169 HD
ATOM     15  H21 UNL     1      14.323   2.973  16.072  1.00  0.00     0.169 HD
ENDBRANCH  10  13
ENDBRANCH   6  10
TORSDOF 2
ENDMDL
