MODEL 9
REMARK VINA RESULT: -6.004542678      3.162      3.303
REMARK  2 active torsions:
REMARK  status: ('A' for Active; 'I' for Inactive)
REMARK    1  A    between atoms: C4_6  and  S1_7 
REMARK    2  A    between atoms: S1_7  and  N2_8 
ROOT
HETATM    1  N1  UNL     1      17.005   8.302  13.361  1.00  0.00    -0.099 NA
HETATM    2  C1  UNL     1      16.899   6.993  13.894  1.00  0.00     0.089 A 
HETATM    3  C2  UNL     1      18.014   6.270  14.202  1.00  0.00     0.061 A 
HETATM    4 CL1  UNL     1      19.636   6.936  13.948  1.00  0.00    -0.082 Cl
HETATM    5  C3  UNL     1      17.903   4.984  14.726  1.00  0.00     0.051 A 
HETATM    6  C4  UNL     1      16.650   4.444  14.933  1.00  0.00     0.082 A 
HETATM    7  C5  UNL     1      15.549   5.194  14.615  1.00  0.00     0.051 A 
HETATM    8  C6  UNL     1      15.616   6.475  14.092  1.00  0.00     0.061 A 
HETATM    9 CL2  UNL     1      14.192   7.411  13.695  1.00  0.00    -0.082 Cl
ENDROOT
BRANCH   6  10
HETATM   10  S1  UNL     1      16.542   2.820  15.594  1.00  0.00     0.256 S 
HETATM   11  O1  UNL     1      17.837   2.537  16.274  1.00  0.00    -0.201 OA
HETATM   12  O2  UNL     1      16.325   1.887  14.423  1.00  0.00    -0.201 OA
BRANCH  10  13
HETATM   13  N2  UNL     1      15.196   2.664  16.666  1.00  0.00    -0.324 N 
ATOM     14  H22 UNL     1      14.415   3.321  16.688  1.00  0.00     0.169 HD
ATOM     15  H21 UNL     1      15.287   1.841  17.261  1.00  0.00     0.169 HD
ENDBRANCH  10  13
ENDBRANCH   6  10
TORSDOF 2
ENDMDL
