MODEL 20
REMARK VINA RESULT: -5.578888420      3.742      4.504
REMARK  2 active torsions:
REMARK  status: ('A' for Active; 'I' for Inactive)
REMARK    1  A    between atoms: C4_6  and  S1_7 
REMARK    2  A    between atoms: S1_7  and  N2_8 
ROOT
HETATM    1  N1  UNL     1      16.561   1.383  15.357  1.00  0.00    -0.099 NA
HETATM    2  C1  UNL     1      16.418   2.701  14.856  1.00  0.00     0.089 A 
HETATM    3  C2  UNL     1      16.729   2.995  13.561  1.00  0.00     0.061 A 
HETATM    4 CL1  UNL     1      17.322   1.746  12.455  1.00  0.00    -0.082 Cl
HETATM    5  C3  UNL     1      16.586   4.294  13.075  1.00  0.00     0.051 A 
HETATM    6  C4  UNL     1      16.125   5.284  13.919  1.00  0.00     0.082 A 
HETATM    7  C5  UNL     1      15.821   4.958  15.214  1.00  0.00     0.051 A 
HETATM    8  C6  UNL     1      15.949   3.682  15.735  1.00  0.00     0.061 A 
HETATM    9 CL2  UNL     1      15.552   3.293  17.395  1.00  0.00    -0.082 Cl
ENDROOT
BRANCH   6  10
HETATM   10  S1  UNL     1      15.956   6.911  13.278  1.00  0.00     0.256 S 
HETATM   11  O1  UNL     1      16.134   6.821  11.801  1.00  0.00    -0.201 OA
HETATM   12  O2  UNL     1      17.051   7.744  13.908  1.00  0.00    -0.201 OA
BRANCH  10  13
HETATM   13  N2  UNL     1      14.434   7.604  13.709  1.00  0.00    -0.324 N 
ATOM     14  H22 UNL     1      13.962   7.419  14.594  1.00  0.00     0.169 HD
ATOM     15  H21 UNL     1      14.078   8.211  12.971  1.00  0.00     0.169 HD
ENDBRANCH  10  13
ENDBRANCH   6  10
TORSDOF 2
ENDMDL
