MODEL 4
REMARK VINA RESULT: -6.246164995      2.122      3.211
REMARK  2 active torsions:
REMARK  status: ('A' for Active; 'I' for Inactive)
REMARK    1  A    between atoms: C4_6  and  S1_7 
REMARK    2  A    between atoms: S1_7  and  N2_8 
ROOT
HETATM    1  N1  UNL     1      16.401   6.127  12.006  1.00  0.00    -0.099 NA
HETATM    2  C1  UNL     1      16.111   5.384  13.177  1.00  0.00     0.089 A 
HETATM    3  C2  UNL     1      15.229   5.855  14.104  1.00  0.00     0.061 A 
HETATM    4 CL1  UNL     1      14.413   7.412  13.884  1.00  0.00    -0.082 Cl
HETATM    5  C3  UNL     1      14.948   5.119  15.253  1.00  0.00     0.051 A 
HETATM    6  C4  UNL     1      15.571   3.903  15.446  1.00  0.00     0.082 A 
HETATM    7  C5  UNL     1      16.452   3.456  14.497  1.00  0.00     0.051 A 
HETATM    8  C6  UNL     1      16.759   4.156  13.343  1.00  0.00     0.061 A 
HETATM    9 CL2  UNL     1      17.888   3.561  12.146  1.00  0.00    -0.082 Cl
ENDROOT
BRANCH   6  10
HETATM   10  S1  UNL     1      15.197   2.998  16.905  1.00  0.00     0.256 S 
HETATM   11  O1  UNL     1      16.350   2.091  17.166  1.00  0.00    -0.201 OA
HETATM   12  O2  UNL     1      13.938   2.209  16.617  1.00  0.00    -0.201 OA
BRANCH  10  13
HETATM   13  N2  UNL     1      14.882   4.051  18.237  1.00  0.00    -0.324 N 
ATOM     14  H22 UNL     1      15.336   4.957  18.359  1.00  0.00     0.169 HD
ATOM     15  H21 UNL     1      14.193   3.651  18.874  1.00  0.00     0.169 HD
ENDBRANCH  10  13
ENDBRANCH   6  10
TORSDOF 2
ENDMDL
