MODEL 8
REMARK VINA RESULT: -9.182182205      1.062      1.378
REMARK  7 active torsions:
REMARK  status: ('A' for Active; 'I' for Inactive)
REMARK    1  A    between atoms: C1_2  and  C2_4 
REMARK    2  A    between atoms: C1_2  and  C18_32 
REMARK    3  A    between atoms: C2_4  and  N1_5 
REMARK    4  A    between atoms: N1_5  and  C3_7 
REMARK    5  A    between atoms: C7_14  and  C8_15 
REMARK    6  A    between atoms: C8_15  and  C9_16 
REMARK    7  A    between atoms: C14_21  and  N3_22 
ROOT
HETATM    1  C3  UNL     1      17.822 -15.193  21.564  1.00  0.00     0.131 A 
HETATM    2  N2  UNL     1      19.146 -15.082  21.421  1.00  0.00    -0.351 N 
ATOM      3  H2  UNL     1      19.752 -15.710  21.948  1.00  0.00     0.166 HD
HETATM    4  C4  UNL     1      19.707 -14.176  20.609  1.00  0.00     0.092 A 
HETATM    5  C5  UNL     1      18.944 -13.302  19.873  1.00  0.00     0.057 A 
HETATM    6  C6  UNL     1      17.568 -13.390  19.999  1.00  0.00     0.109 A 
HETATM    7  O1  UNL     1      16.577 -12.727  19.453  1.00  0.00    -0.295 OA
HETATM    8  C7  UNL     1      15.434 -13.183  19.893  1.00  0.00     0.129 A 
HETATM    9  N6  UNL     1      15.682 -14.180  20.755  1.00  0.00    -0.335 N 
ATOM     10  H6  UNL     1      14.984 -14.727  21.257  1.00  0.00     0.168 HD
HETATM   11  C17 UNL     1      17.016 -14.329  20.839  1.00  0.00     0.112 A 
ENDROOT
BRANCH   1  12
HETATM   12  N1  UNL     1      17.212 -16.164  22.427  1.00  0.00    -0.369 N 
ATOM     13  H1  UNL     1      16.249 -16.446  22.244  1.00  0.00     0.161 HD
BRANCH  12  14
HETATM   14  C2  UNL     1      17.899 -16.748  23.529  1.00  0.00     0.202 C 
BRANCH  14  15
HETATM   15  C1  UNL     1      17.881 -16.004  24.812  1.00  0.00     0.287 C 
HETATM   16  F1  UNL     1      17.171 -16.562  25.829  1.00  0.00    -0.202 F 
HETATM   17  F2  UNL     1      17.247 -14.754  24.571  1.00  0.00    -0.202 F 
BRANCH  15  18
HETATM   18  C18 UNL     1      19.262 -15.663  25.282  1.00  0.00     0.259 C 
HETATM   19  C19 UNL     1      19.629 -14.254  24.764  1.00  0.00     0.039 C 
HETATM   20  C20 UNL     1      21.105 -14.082  25.010  1.00  0.00     0.004 C 
HETATM   21  C21 UNL     1      21.262 -14.054  26.537  1.00  0.00     0.027 C 
HETATM   22  C22 UNL     1      20.829 -15.425  27.000  1.00  0.00     0.233 C 
HETATM   23  N7  UNL     1      19.410 -15.603  26.720  1.00  0.00    -0.065 N 
ATOM     24  H72 UNL     1      18.825 -14.888  27.152  1.00  0.00     0.277 HD
ATOM     25  H71 UNL     1      19.006 -16.409  27.197  1.00  0.00     0.277 HD
ENDBRANCH  15  18
ENDBRANCH  14  15
ENDBRANCH  12  14
ENDBRANCH   1  12
BRANCH   8  26
HETATM   26  C8  UNL     1      14.064 -12.717  19.533  1.00  0.00     0.125 C 
BRANCH  26  27
HETATM   27  C9  UNL     1      13.312 -12.361  20.757  1.00  0.00    -0.022 A 
HETATM   28  C10 UNL     1      13.477 -11.086  21.304  1.00  0.00     0.010 A 
HETATM   29  C11 UNL     1      12.789 -10.727  22.445  1.00  0.00     0.001 A 
HETATM   30  C12 UNL     1      11.927 -11.600  23.079  1.00  0.00     0.002 A 
HETATM   31  C13 UNL     1      11.772 -12.859  22.528  1.00  0.00     0.032 A 
HETATM   32  C14 UNL     1      12.455 -13.246  21.376  1.00  0.00     0.064 A 
BRANCH  32  33
HETATM   33  N3  UNL     1      12.256 -14.551  20.854  1.00  0.00    -0.251 N 
HETATM   34  C15 UNL     1      12.460 -15.664  21.580  1.00  0.00     0.208 A 
HETATM   35  N4  UNL     1      12.184 -16.729  20.799  1.00  0.00    -0.346 N 
HETATM   36  C16 UNL     1      11.806 -16.287  19.581  1.00  0.00     0.199 A 
ATOM     37  H4  UNL     1      12.251 -17.707  21.082  1.00  0.00     0.167 HD
HETATM   38  N5  UNL     1      11.864 -14.938  19.659  1.00  0.00    -0.288 N 
ATOM     39  H5  UNL     1      11.634 -14.305  18.894  1.00  0.00     0.188 HD
ENDBRANCH  32  33
ENDBRANCH  26  27
ENDBRANCH   8  26
TORSDOF 7
ENDMDL
