MODEL 2
REMARK VINA RESULT: -9.338005646      2.584      7.465
REMARK  7 active torsions:
REMARK  status: ('A' for Active; 'I' for Inactive)
REMARK    1  A    between atoms: C1_2  and  C2_4 
REMARK    2  A    between atoms: C1_2  and  C18_32 
REMARK    3  A    between atoms: C2_4  and  N1_5 
REMARK    4  A    between atoms: N1_5  and  C3_7 
REMARK    5  A    between atoms: C7_14  and  C8_15 
REMARK    6  A    between atoms: C8_15  and  C9_16 
REMARK    7  A    between atoms: C14_21  and  N3_22 
ROOT
HETATM    1  C3  UNL     1      16.240 -14.208  21.154  1.00  0.00     0.131 A 
HETATM    2  N2  UNL     1      16.139 -13.424  20.077  1.00  0.00    -0.351 N 
ATOM      3  H2  UNL     1      15.216 -13.097  19.793  1.00  0.00     0.166 HD
HETATM    4  C4  UNL     1      17.205 -13.053  19.357  1.00  0.00     0.092 A 
HETATM    5  C5  UNL     1      18.474 -13.461  19.689  1.00  0.00     0.057 A 
HETATM    6  C6  UNL     1      18.614 -14.276  20.801  1.00  0.00     0.109 A 
HETATM    7  O1  UNL     1      19.654 -14.828  21.378  1.00  0.00    -0.295 OA
HETATM    8  C7  UNL     1      19.275 -15.522  22.419  1.00  0.00     0.129 A 
HETATM    9  N6  UNL     1      17.943 -15.421  22.529  1.00  0.00    -0.335 N 
ATOM     10  H6  UNL     1      17.365 -15.857  23.248  1.00  0.00     0.168 HD
HETATM   11  C17 UNL     1      17.504 -14.644  21.524  1.00  0.00     0.112 A 
ENDROOT
BRANCH   1  12
HETATM   12  N1  UNL     1      15.105 -14.608  21.936  1.00  0.00    -0.369 N 
ATOM     13  H1  UNL     1      15.064 -14.334  22.918  1.00  0.00     0.161 HD
BRANCH  12  14
HETATM   14  C2  UNL     1      14.032 -15.371  21.393  1.00  0.00     0.202 C 
BRANCH  14  15
HETATM   15  C1  UNL     1      12.744 -14.669  21.171  1.00  0.00     0.287 C 
HETATM   16  F1  UNL     1      11.613 -15.408  21.326  1.00  0.00    -0.202 F 
HETATM   17  F2  UNL     1      12.717 -14.246  19.813  1.00  0.00    -0.202 F 
BRANCH  15  18
HETATM   18  C18 UNL     1      12.644 -13.410  21.979  1.00  0.00     0.259 C 
HETATM   19  C19 UNL     1      12.791 -12.200  21.031  1.00  0.00     0.039 C 
HETATM   20  C20 UNL     1      12.975 -10.991  21.911  1.00  0.00     0.004 C 
HETATM   21  C21 UNL     1      11.641 -10.822  22.652  1.00  0.00     0.027 C 
HETATM   22  C22 UNL     1      11.511 -12.057  23.512  1.00  0.00     0.233 C 
HETATM   23  N7  UNL     1      11.378 -13.229  22.654  1.00  0.00    -0.065 N 
ATOM     24  H72 UNL     1      10.588 -13.166  22.012  1.00  0.00     0.277 HD
ATOM     25  H71 UNL     1      11.071 -14.060  23.159  1.00  0.00     0.277 HD
ENDBRANCH  15  18
ENDBRANCH  14  15
ENDBRANCH  12  14
ENDBRANCH   1  12
BRANCH   8  26
HETATM   26  C8  UNL     1      20.131 -16.306  23.355  1.00  0.00     0.125 C 
BRANCH  26  27
HETATM   27  C9  UNL     1      20.246 -15.599  24.650  1.00  0.00    -0.022 A 
HETATM   28  C10 UNL     1      21.155 -14.544  24.763  1.00  0.00     0.010 A 
HETATM   29  C11 UNL     1      21.284 -13.867  25.959  1.00  0.00     0.001 A 
HETATM   30  C12 UNL     1      20.533 -14.201  27.068  1.00  0.00     0.002 A 
HETATM   31  C13 UNL     1      19.638 -15.246  26.944  1.00  0.00     0.032 A 
HETATM   32  C14 UNL     1      19.487 -15.947  25.747  1.00  0.00     0.064 A 
BRANCH  32  33
HETATM   33  N3  UNL     1      18.551 -17.011  25.676  1.00  0.00    -0.251 N 
HETATM   34  C15 UNL     1      18.866 -18.279  25.990  1.00  0.00     0.208 A 
HETATM   35  N4  UNL     1      17.764 -19.039  25.819  1.00  0.00    -0.346 N 
HETATM   36  C16 UNL     1      16.755 -18.248  25.396  1.00  0.00     0.199 A 
ATOM     37  H4  UNL     1      17.703 -20.044  25.981  1.00  0.00     0.167 HD
HETATM   38  N5  UNL     1      17.284 -17.006  25.322  1.00  0.00    -0.288 N 
ATOM     39  H5  UNL     1      16.769 -16.175  25.030  1.00  0.00     0.188 HD
ENDBRANCH  32  33
ENDBRANCH  26  27
ENDBRANCH   8  26
TORSDOF 7
ENDMDL
