MODEL 4
REMARK VINA RESULT: -9.270251748      2.922      8.374
REMARK  7 active torsions:
REMARK  status: ('A' for Active; 'I' for Inactive)
REMARK    1  A    between atoms: C1_2  and  C2_4 
REMARK    2  A    between atoms: C1_2  and  C18_32 
REMARK    3  A    between atoms: C2_4  and  N1_5 
REMARK    4  A    between atoms: N1_5  and  C3_7 
REMARK    5  A    between atoms: C7_14  and  C8_15 
REMARK    6  A    between atoms: C8_15  and  C9_16 
REMARK    7  A    between atoms: C14_21  and  N3_22 
ROOT
HETATM    1  C3  UNL     1      15.781 -14.629  21.808  1.00  0.00     0.131 A 
HETATM    2  N2  UNL     1      14.903 -15.624  21.649  1.00  0.00    -0.351 N 
ATOM      3  H2  UNL     1      13.943 -15.396  21.390  1.00  0.00     0.166 HD
HETATM    4  C4  UNL     1      15.238 -16.910  21.816  1.00  0.00     0.092 A 
HETATM    5  C5  UNL     1      16.515 -17.280  22.164  1.00  0.00     0.057 A 
HETATM    6  C6  UNL     1      17.449 -16.272  22.337  1.00  0.00     0.109 A 
HETATM    7  O1  UNL     1      18.720 -16.278  22.659  1.00  0.00    -0.295 OA
HETATM    8  C7  UNL     1      19.180 -15.056  22.698  1.00  0.00     0.129 A 
HETATM    9  N6  UNL     1      18.179 -14.219  22.390  1.00  0.00    -0.335 N 
ATOM     10  H6  UNL     1      18.240 -13.202  22.340  1.00  0.00     0.168 HD
HETATM   11  C17 UNL     1      17.080 -14.959  22.159  1.00  0.00     0.112 A 
ENDROOT
BRANCH   1  12
HETATM   12  N1  UNL     1      15.433 -13.248  21.625  1.00  0.00    -0.369 N 
ATOM     13  H1  UNL     1      15.651 -12.585  22.369  1.00  0.00     0.161 HD
BRANCH  12  14
HETATM   14  C2  UNL     1      14.795 -12.769  20.446  1.00  0.00     0.202 C 
BRANCH  14  15
HETATM   15  C1  UNL     1      13.320 -12.621  20.484  1.00  0.00     0.287 C 
HETATM   16  F1  UNL     1      12.590 -13.673  20.023  1.00  0.00    -0.202 F 
HETATM   17  F2  UNL     1      12.977 -11.539  19.626  1.00  0.00    -0.202 F 
BRANCH  15  18
HETATM   18  C18 UNL     1      12.831 -12.218  21.842  1.00  0.00     0.259 C 
HETATM   19  C19 UNL     1      12.602 -10.691  21.854  1.00  0.00     0.039 C 
HETATM   20  C20 UNL     1      12.398 -10.303  23.295  1.00  0.00     0.004 C 
HETATM   21  C21 UNL     1      11.072 -10.959  23.708  1.00  0.00     0.027 C 
HETATM   22  C22 UNL     1      11.326 -12.446  23.617  1.00  0.00     0.233 C 
HETATM   23  N7  UNL     1      11.567 -12.808  22.225  1.00  0.00    -0.065 N 
ATOM     24  H72 UNL     1      10.800 -12.546  21.606  1.00  0.00     0.277 HD
ATOM     25  H71 UNL     1      11.529 -13.814  22.062  1.00  0.00     0.277 HD
ENDBRANCH  15  18
ENDBRANCH  14  15
ENDBRANCH  12  14
ENDBRANCH   1  12
BRANCH   8  26
HETATM   26  C8  UNL     1      20.567 -14.611  23.021  1.00  0.00     0.125 C 
BRANCH  26  27
HETATM   27  C9  UNL     1      20.806 -14.715  24.478  1.00  0.00    -0.022 A 
HETATM   28  C10 UNL     1      20.408 -13.661  25.304  1.00  0.00     0.010 A 
HETATM   29  C11 UNL     1      20.619 -13.731  26.666  1.00  0.00     0.001 A 
HETATM   30  C12 UNL     1      21.222 -14.825  27.253  1.00  0.00     0.002 A 
HETATM   31  C13 UNL     1      21.611 -15.862  26.426  1.00  0.00     0.032 A 
HETATM   32  C14 UNL     1      21.409 -15.817  25.047  1.00  0.00     0.064 A 
BRANCH  32  33
HETATM   33  N3  UNL     1      21.828 -16.911  24.245  1.00  0.00    -0.251 N 
HETATM   34  C15 UNL     1      23.121 -17.166  23.981  1.00  0.00     0.208 A 
HETATM   35  N4  UNL     1      23.179 -18.265  23.200  1.00  0.00    -0.346 N 
HETATM   36  C16 UNL     1      21.922 -18.702  22.973  1.00  0.00     0.199 A 
ATOM     37  H4  UNL     1      24.032 -18.694  22.840  1.00  0.00     0.167 HD
HETATM   38  N5  UNL     1      21.121 -17.838  23.636  1.00  0.00    -0.288 N 
ATOM     39  H5  UNL     1      20.103 -17.897  23.661  1.00  0.00     0.188 HD
ENDBRANCH  32  33
ENDBRANCH  26  27
ENDBRANCH   8  26
TORSDOF 7
ENDMDL
