MODEL 3
REMARK VINA RESULT: -9.330448411      2.902      8.253
REMARK  7 active torsions:
REMARK  status: ('A' for Active; 'I' for Inactive)
REMARK    1  A    between atoms: C1_2  and  C2_4 
REMARK    2  A    between atoms: C1_2  and  C18_32 
REMARK    3  A    between atoms: C2_4  and  N1_5 
REMARK    4  A    between atoms: N1_5  and  C3_7 
REMARK    5  A    between atoms: C7_14  and  C8_15 
REMARK    6  A    between atoms: C8_15  and  C9_16 
REMARK    7  A    between atoms: C14_21  and  N3_22 
ROOT
HETATM    1  C3  UNL     1      15.093 -13.827  20.562  1.00  0.00     0.131 A 
HETATM    2  N2  UNL     1      14.448 -14.668  19.748  1.00  0.00    -0.351 N 
ATOM      3  H2  UNL     1      13.606 -14.343  19.273  1.00  0.00     0.166 HD
HETATM    4  C4  UNL     1      14.866 -15.922  19.534  1.00  0.00     0.092 A 
HETATM    5  C5  UNL     1      15.992 -16.418  20.145  1.00  0.00     0.057 A 
HETATM    6  C6  UNL     1      16.684 -15.572  20.995  1.00  0.00     0.109 A 
HETATM    7  O1  UNL     1      17.768 -15.723  21.717  1.00  0.00    -0.295 OA
HETATM    8  C7  UNL     1      18.034 -14.620  22.365  1.00  0.00     0.129 A 
HETATM    9  N6  UNL     1      17.095 -13.715  22.058  1.00  0.00    -0.335 N 
ATOM     10  H6  UNL     1      17.042 -12.760  22.414  1.00  0.00     0.168 HD
HETATM   11  C17 UNL     1      16.234 -14.289  21.199  1.00  0.00     0.112 A 
ENDROOT
BRANCH   1  12
HETATM   12  N1  UNL     1      14.656 -12.480  20.794  1.00  0.00    -0.369 N 
ATOM     13  H1  UNL     1      15.351 -11.774  21.039  1.00  0.00     0.161 HD
BRANCH  12  14
HETATM   14  C2  UNL     1      13.290 -12.091  20.696  1.00  0.00     0.202 C 
BRANCH  14  15
HETATM   15  C1  UNL     1      12.923 -10.760  21.240  1.00  0.00     0.287 C 
HETATM   16  F1  UNL     1      12.471  -9.840  20.345  1.00  0.00    -0.202 F 
HETATM   17  F2  UNL     1      14.102 -10.184  21.788  1.00  0.00    -0.202 F 
BRANCH  15  18
HETATM   18  C18 UNL     1      11.964 -10.867  22.387  1.00  0.00     0.259 C 
HETATM   19  C19 UNL     1      11.821 -12.355  22.776  1.00  0.00     0.039 C 
HETATM   20  C20 UNL     1      10.648 -12.436  23.719  1.00  0.00     0.004 C 
HETATM   21  C21 UNL     1      11.091 -11.683  24.982  1.00  0.00     0.027 C 
HETATM   22  C22 UNL     1      11.282 -10.252  24.537  1.00  0.00     0.233 C 
HETATM   23  N7  UNL     1      12.390 -10.187  23.591  1.00  0.00    -0.065 N 
ATOM     24  H72 UNL     1      13.262 -10.554  23.970  1.00  0.00     0.277 HD
ATOM     25  H71 UNL     1      12.712  -9.234  23.419  1.00  0.00     0.277 HD
ENDBRANCH  15  18
ENDBRANCH  14  15
ENDBRANCH  12  14
ENDBRANCH   1  12
BRANCH   8  26
HETATM   26  C8  UNL     1      19.170 -14.358  23.296  1.00  0.00     0.125 C 
BRANCH  26  27
HETATM   27  C9  UNL     1      18.988 -15.126  24.547  1.00  0.00    -0.022 A 
HETATM   28  C10 UNL     1      17.695 -15.490  24.933  1.00  0.00     0.010 A 
HETATM   29  C11 UNL     1      17.495 -16.206  26.096  1.00  0.00     0.001 A 
HETATM   30  C12 UNL     1      18.547 -16.583  26.908  1.00  0.00     0.002 A 
HETATM   31  C13 UNL     1      19.821 -16.217  26.515  1.00  0.00     0.032 A 
HETATM   32  C14 UNL     1      20.051 -15.495  25.345  1.00  0.00     0.064 A 
BRANCH  32  33
HETATM   33  N3  UNL     1      21.381 -15.148  24.990  1.00  0.00    -0.251 N 
HETATM   34  C15 UNL     1      22.020 -14.088  25.513  1.00  0.00     0.208 A 
HETATM   35  N4  UNL     1      23.256 -14.037  24.973  1.00  0.00    -0.346 N 
HETATM   36  C16 UNL     1      23.394 -15.064  24.110  1.00  0.00     0.199 A 
ATOM     37  H4  UNL     1      23.968 -13.337  25.183  1.00  0.00     0.167 HD
HETATM   38  N5  UNL     1      22.214 -15.724  24.151  1.00  0.00    -0.288 N 
ATOM     39  H5  UNL     1      21.999 -16.558  23.604  1.00  0.00     0.188 HD
ENDBRANCH  32  33
ENDBRANCH  26  27
ENDBRANCH   8  26
TORSDOF 7
ENDMDL
