MODEL 1
REMARK VINA RESULT: -9.627160986      0.000      0.000
REMARK  7 active torsions:
REMARK  status: ('A' for Active; 'I' for Inactive)
REMARK    1  A    between atoms: C1_2  and  C2_4 
REMARK    2  A    between atoms: C1_2  and  C18_32 
REMARK    3  A    between atoms: C2_4  and  N1_5 
REMARK    4  A    between atoms: N1_5  and  C3_7 
REMARK    5  A    between atoms: C7_14  and  C8_15 
REMARK    6  A    between atoms: C8_15  and  C9_16 
REMARK    7  A    between atoms: C14_21  and  N3_22 
ROOT
HETATM    1  C3  UNL     1      17.616 -14.414  22.409  1.00  0.00     0.131 A 
HETATM    2  N2  UNL     1      18.930 -14.376  22.170  1.00  0.00    -0.351 N 
ATOM      3  H2  UNL     1      19.553 -14.925  22.762  1.00  0.00     0.166 HD
HETATM    4  C4  UNL     1      19.459 -13.643  21.182  1.00  0.00     0.092 A 
HETATM    5  C5  UNL     1      18.673 -12.882  20.351  1.00  0.00     0.057 A 
HETATM    6  C6  UNL     1      17.305 -12.899  20.572  1.00  0.00     0.109 A 
HETATM    7  O1  UNL     1      16.298 -12.305  19.979  1.00  0.00    -0.295 OA
HETATM    8  C7  UNL     1      15.175 -12.639  20.558  1.00  0.00     0.129 A 
HETATM    9  N6  UNL     1      15.454 -13.480  21.563  1.00  0.00    -0.335 N 
ATOM     10  H6  UNL     1      14.775 -13.909  22.194  1.00  0.00     0.168 HD
HETATM   11  C17 UNL     1      16.786 -13.660  21.593  1.00  0.00     0.112 A 
ENDROOT
BRANCH   1  12
HETATM   12  N1  UNL     1      17.038 -15.200  23.461  1.00  0.00    -0.369 N 
ATOM     13  H1  UNL     1      16.175 -14.877  23.898  1.00  0.00     0.161 HD
BRANCH  12  14
HETATM   14  C2  UNL     1      17.624 -16.415  23.919  1.00  0.00     0.202 C 
BRANCH  14  15
HETATM   15  C1  UNL     1      18.176 -16.425  25.296  1.00  0.00     0.287 C 
HETATM   16  F1  UNL     1      18.569 -17.632  25.785  1.00  0.00    -0.202 F 
HETATM   17  F2  UNL     1      17.141 -15.999  26.173  1.00  0.00    -0.202 F 
BRANCH  15  18
HETATM   18  C18 UNL     1      19.277 -15.423  25.467  1.00  0.00     0.259 C 
HETATM   19  C19 UNL     1      19.671 -15.370  26.960  1.00  0.00     0.039 C 
HETATM   20  C20 UNL     1      20.558 -14.163  27.122  1.00  0.00     0.004 C 
HETATM   21  C21 UNL     1      21.834 -14.487  26.332  1.00  0.00     0.027 C 
HETATM   22  C22 UNL     1      21.386 -14.595  24.893  1.00  0.00     0.233 C 
HETATM   23  N7  UNL     1      20.494 -15.739  24.751  1.00  0.00    -0.065 N 
ATOM     24  H72 UNL     1      20.918 -16.616  25.051  1.00  0.00     0.277 HD
ATOM     25  H71 UNL     1      20.329 -15.998  23.779  1.00  0.00     0.277 HD
ENDBRANCH  15  18
ENDBRANCH  14  15
ENDBRANCH  12  14
ENDBRANCH   1  12
BRANCH   8  26
HETATM   26  C8  UNL     1      13.796 -12.193  20.204  1.00  0.00     0.125 C 
BRANCH  26  27
HETATM   27  C9  UNL     1      13.026 -11.904  21.434  1.00  0.00    -0.022 A 
HETATM   28  C10 UNL     1      13.041 -10.605  21.950  1.00  0.00     0.010 A 
HETATM   29  C11 UNL     1      12.332 -10.308  23.096  1.00  0.00     0.001 A 
HETATM   30  C12 UNL     1      11.595 -11.265  23.764  1.00  0.00     0.002 A 
HETATM   31  C13 UNL     1      11.587 -12.546  23.244  1.00  0.00     0.032 A 
HETATM   32  C14 UNL     1      12.294 -12.873  22.088  1.00  0.00     0.064 A 
BRANCH  32  33
HETATM   33  N3  UNL     1      12.250 -14.204  21.598  1.00  0.00    -0.251 N 
HETATM   34  C15 UNL     1      11.888 -14.504  20.338  1.00  0.00     0.208 A 
HETATM   35  N4  UNL     1      11.950 -15.844  20.193  1.00  0.00    -0.346 N 
HETATM   36  C16 UNL     1      12.351 -16.388  21.362  1.00  0.00     0.199 A 
ATOM     37  H4  UNL     1      11.730 -16.361  19.342  1.00  0.00     0.167 HD
HETATM   38  N5  UNL     1      12.524 -15.341  22.200  1.00  0.00    -0.288 N 
ATOM     39  H5  UNL     1      12.828 -15.422  23.170  1.00  0.00     0.188 HD
ENDBRANCH  32  33
ENDBRANCH  26  27
ENDBRANCH   8  26
TORSDOF 7
ENDMDL
