MODEL 2
REMARK VINA RESULT: -10.648685267      2.451      5.236
REMARK  6 active torsions:
REMARK  status: ('A' for Active; 'I' for Inactive)
REMARK    1  A    between atoms: C2_2  and  C4_4 
REMARK    2  A    between atoms: C4_4  and  C5_5 
REMARK    3  A    between atoms: C5_5  and  C6_6 
REMARK    4  A    between atoms: C6_6  and  C7_7 
REMARK    5  A    between atoms: C7_7  and  C9_9 
REMARK    6  A    between atoms: C18_18  and  O1_19 
ROOT
HETATM    1  C9  UNL     1      58.201  33.038  23.113  1.00  0.00    -0.002 C 
HETATM    2  C10 UNL     1      58.540  34.539  22.874  1.00  0.00     0.006 C 
HETATM    3  C11 UNL     1      58.493  35.214  24.211  1.00  0.00     0.006 C 
HETATM    4  C12 UNL     1      58.306  34.095  25.152  1.00  0.00    -0.001 C 
HETATM    5  C13 UNL     1      57.673  34.471  26.457  1.00  0.00    -0.001 C 
HETATM    6  C14 UNL     1      58.531  35.455  27.184  1.00  0.00     0.033 C 
HETATM    7  C15 UNL     1      57.965  35.695  28.530  1.00  0.00    -0.023 C 
HETATM    8  C16 UNL     1      57.340  34.750  29.201  1.00  0.00    -0.072 C 
HETATM    9  C17 UNL     1      56.802  35.072  30.548  1.00  0.00     0.066 C 
HETATM   10  C18 UNL     1      57.486  34.113  31.502  1.00  0.00     0.122 C 
HETATM   11  C19 UNL     1      58.438  33.180  30.833  1.00  0.00     0.033 C 
HETATM   12  C20 UNL     1      57.930  32.467  29.630  1.00  0.00     0.016 C 
HETATM   13  C21 UNL     1      57.152  33.383  28.679  1.00  0.00    -0.017 C 
HETATM   14  C22 UNL     1      55.674  33.036  28.833  1.00  0.00     0.020 C 
HETATM   15  C23 UNL     1      57.618  33.192  27.267  1.00  0.00     0.003 C 
HETATM   16  C24 UNL     1      56.752  32.163  26.583  1.00  0.00     0.007 C 
HETATM   17  C25 UNL     1      57.086  31.952  25.124  1.00  0.00     0.010 C 
HETATM   18  C26 UNL     1      57.362  33.185  24.350  1.00  0.00    -0.036 C 
HETATM   19  C27 UNL     1      56.103  33.933  23.970  1.00  0.00     0.016 C 
ENDROOT
BRANCH   1  20
HETATM   20  C7  UNL     1      57.461  32.593  21.866  1.00  0.00    -0.014 C 
HETATM   21  C8  UNL     1      57.936  31.325  21.277  1.00  0.00     0.010 C 
BRANCH  20  22
HETATM   22  C6  UNL     1      57.568  33.730  20.883  1.00  0.00     0.005 C 
BRANCH  22  23
HETATM   23  C5  UNL     1      56.495  33.955  19.922  1.00  0.00     0.001 C 
BRANCH  23  24
HETATM   24  C4  UNL     1      55.072  33.751  20.211  1.00  0.00     0.004 C 
BRANCH  24  25
HETATM   25  C2  UNL     1      54.676  32.431  20.797  1.00  0.00    -0.023 C 
HETATM   26  C1  UNL     1      54.170  31.470  19.731  1.00  0.00     0.009 C 
HETATM   27  C3  UNL     1      53.471  32.700  21.709  1.00  0.00     0.009 C 
ENDBRANCH  24  25
ENDBRANCH  23  24
ENDBRANCH  22  23
ENDBRANCH  20  22
ENDBRANCH   1  20
BRANCH  10  28
HETATM   28  O1  UNL     1      56.619  33.432  32.329  1.00  0.00    -0.395 OA
ATOM     29  H1  UNL     1      56.890  33.411  33.239  1.00  0.00     0.210 HD
ENDBRANCH  10  28
TORSDOF 6
ENDMDL
