MODEL 5
REMARK VINA RESULT: -10.421415387      0.777      1.218
REMARK  6 active torsions:
REMARK  status: ('A' for Active; 'I' for Inactive)
REMARK    1  A    between atoms: C2_2  and  C4_4 
REMARK    2  A    between atoms: C4_4  and  C5_5 
REMARK    3  A    between atoms: C5_5  and  C6_6 
REMARK    4  A    between atoms: C6_6  and  C7_7 
REMARK    5  A    between atoms: C7_7  and  C9_9 
REMARK    6  A    between atoms: C18_18  and  O1_19 
ROOT
HETATM    1  C9  UNL     1      56.434  33.469  27.654  1.00  0.00    -0.002 C 
HETATM    2  C10 UNL     1      55.028  32.825  27.845  1.00  0.00     0.006 C 
HETATM    3  C11 UNL     1      54.663  32.998  29.288  1.00  0.00     0.006 C 
HETATM    4  C12 UNL     1      55.746  33.848  29.816  1.00  0.00    -0.001 C 
HETATM    5  C13 UNL     1      55.972  33.732  31.293  1.00  0.00    -0.001 C 
HETATM    6  C14 UNL     1      54.746  34.152  32.038  1.00  0.00     0.033 C 
HETATM    7  C15 UNL     1      55.042  34.175  33.487  1.00  0.00    -0.023 C 
HETATM    8  C16 UNL     1      56.231  34.496  33.951  1.00  0.00    -0.072 C 
HETATM    9  C17 UNL     1      56.446  34.497  35.421  1.00  0.00     0.066 C 
HETATM   10  C18 UNL     1      56.867  35.910  35.772  1.00  0.00     0.122 C 
HETATM   11  C19 UNL     1      56.942  36.823  34.595  1.00  0.00     0.033 C 
HETATM   12  C20 UNL     1      57.693  36.317  33.414  1.00  0.00     0.016 C 
HETATM   13  C21 UNL     1      57.364  34.860  33.077  1.00  0.00    -0.017 C 
HETATM   14  C22 UNL     1      58.561  34.019  33.509  1.00  0.00     0.020 C 
HETATM   15  C23 UNL     1      57.085  34.709  31.611  1.00  0.00     0.003 C 
HETATM   16  C24 UNL     1      58.355  34.326  30.892  1.00  0.00     0.007 C 
HETATM   17  C25 UNL     1      58.169  34.069  29.415  1.00  0.00     0.010 C 
HETATM   18  C26 UNL     1      56.959  33.294  29.051  1.00  0.00    -0.036 C 
HETATM   19  C27 UNL     1      57.113  31.811  29.306  1.00  0.00     0.016 C 
ENDROOT
BRANCH   1  20
HETATM   20  C7  UNL     1      57.114  32.633  26.587  1.00  0.00    -0.014 C 
HETATM   21  C8  UNL     1      58.339  33.226  26.016  1.00  0.00     0.010 C 
BRANCH  20  22
HETATM   22  C6  UNL     1      56.076  32.382  25.523  1.00  0.00     0.005 C 
BRANCH  22  23
HETATM   23  C5  UNL     1      56.496  32.164  24.145  1.00  0.00     0.001 C 
BRANCH  23  24
HETATM   24  C4  UNL     1      56.185  33.069  23.034  1.00  0.00     0.004 C 
BRANCH  24  25
HETATM   25  C2  UNL     1      57.340  33.600  22.241  1.00  0.00    -0.023 C 
HETATM   26  C1  UNL     1      57.017  33.672  20.755  1.00  0.00     0.009 C 
HETATM   27  C3  UNL     1      58.468  32.566  22.364  1.00  0.00     0.009 C 
ENDBRANCH  24  25
ENDBRANCH  23  24
ENDBRANCH  22  23
ENDBRANCH  20  22
ENDBRANCH   1  20
BRANCH  10  28
HETATM   28  O1  UNL     1      58.016  35.980  36.530  1.00  0.00    -0.395 OA
ATOM     29  H1  UNL     1      58.764  36.335  36.066  1.00  0.00     0.210 HD
ENDBRANCH  10  28
TORSDOF 6
ENDMDL
