MODEL 1
REMARK VINA RESULT: -10.693271531      0.000      0.000
REMARK  6 active torsions:
REMARK  status: ('A' for Active; 'I' for Inactive)
REMARK    1  A    between atoms: C2_2  and  C4_4 
REMARK    2  A    between atoms: C4_4  and  C5_5 
REMARK    3  A    between atoms: C5_5  and  C6_6 
REMARK    4  A    between atoms: C6_6  and  C7_7 
REMARK    5  A    between atoms: C7_7  and  C9_9 
REMARK    6  A    between atoms: C18_18  and  O1_19 
ROOT
HETATM    1  C9  UNL     1      56.274  33.518  27.903  1.00  0.00    -0.002 C 
HETATM    2  C10 UNL     1      54.896  32.837  28.153  1.00  0.00     0.006 C 
HETATM    3  C11 UNL     1      54.581  33.014  29.607  1.00  0.00     0.006 C 
HETATM    4  C12 UNL     1      55.658  33.900  30.085  1.00  0.00    -0.001 C 
HETATM    5  C13 UNL     1      55.943  33.806  31.554  1.00  0.00    -0.001 C 
HETATM    6  C14 UNL     1      54.735  34.198  32.341  1.00  0.00     0.033 C 
HETATM    7  C15 UNL     1      55.084  34.245  33.778  1.00  0.00    -0.023 C 
HETATM    8  C16 UNL     1      56.281  34.604  34.193  1.00  0.00    -0.072 C 
HETATM    9  C17 UNL     1      56.551  34.626  35.654  1.00  0.00     0.066 C 
HETATM   10  C18 UNL     1      56.945  36.054  35.975  1.00  0.00     0.122 C 
HETATM   11  C19 UNL     1      56.949  36.956  34.788  1.00  0.00     0.033 C 
HETATM   12  C20 UNL     1      57.669  36.460  33.584  1.00  0.00     0.016 C 
HETATM   13  C21 UNL     1      57.369  34.991  33.274  1.00  0.00    -0.017 C 
HETATM   14  C22 UNL     1      58.605  34.188  33.667  1.00  0.00     0.020 C 
HETATM   15  C23 UNL     1      57.039  34.817  31.821  1.00  0.00     0.003 C 
HETATM   16  C24 UNL     1      58.291  34.462  31.057  1.00  0.00     0.007 C 
HETATM   17  C25 UNL     1      58.057  34.185  29.590  1.00  0.00     0.010 C 
HETATM   18  C26 UNL     1      56.856  33.372  29.280  1.00  0.00    -0.036 C 
HETATM   19  C27 UNL     1      57.063  31.897  29.543  1.00  0.00     0.016 C 
ENDROOT
BRANCH   1  20
HETATM   20  C7  UNL     1      56.937  32.691  26.818  1.00  0.00    -0.014 C 
HETATM   21  C8  UNL     1      57.928  33.415  25.998  1.00  0.00     0.010 C 
BRANCH  20  22
HETATM   22  C6  UNL     1      55.821  32.135  25.971  1.00  0.00     0.005 C 
BRANCH  22  23
HETATM   23  C5  UNL     1      56.079  31.788  24.579  1.00  0.00     0.001 C 
BRANCH  23  24
HETATM   24  C4  UNL     1      55.040  31.401  23.619  1.00  0.00     0.004 C 
BRANCH  24  25
HETATM   25  C2  UNL     1      55.073  32.058  22.274  1.00  0.00    -0.023 C 
HETATM   26  C1  UNL     1      55.939  33.310  22.280  1.00  0.00     0.009 C 
HETATM   27  C3  UNL     1      53.646  32.549  21.991  1.00  0.00     0.009 C 
ENDBRANCH  24  25
ENDBRANCH  23  24
ENDBRANCH  22  23
ENDBRANCH  20  22
ENDBRANCH   1  20
BRANCH  10  28
HETATM   28  O1  UNL     1      58.119  36.164  36.689  1.00  0.00    -0.395 OA
ATOM     29  H1  UNL     1      58.243  35.479  37.335  1.00  0.00     0.210 HD
ENDBRANCH  10  28
TORSDOF 6
ENDMDL
