MODEL 6
REMARK VINA RESULT: -10.388920930      3.452      9.147
REMARK  6 active torsions:
REMARK  status: ('A' for Active; 'I' for Inactive)
REMARK    1  A    between atoms: C2_2  and  C4_4 
REMARK    2  A    between atoms: C4_4  and  C5_5 
REMARK    3  A    between atoms: C5_5  and  C6_6 
REMARK    4  A    between atoms: C6_6  and  C7_7 
REMARK    5  A    between atoms: C7_7  and  C9_9 
REMARK    6  A    between atoms: C18_18  and  O1_19 
ROOT
HETATM    1  C9  UNL     1      57.030  32.168  29.305  1.00  0.00    -0.002 C 
HETATM    2  C10 UNL     1      55.514  31.812  29.341  1.00  0.00     0.006 C 
HETATM    3  C11 UNL     1      55.018  31.879  27.928  1.00  0.00     0.006 C 
HETATM    4  C12 UNL     1      56.248  32.093  27.144  1.00  0.00    -0.001 C 
HETATM    5  C13 UNL     1      56.038  32.749  25.812  1.00  0.00    -0.001 C 
HETATM    6  C14 UNL     1      55.165  31.897  24.948  1.00  0.00     0.033 C 
HETATM    7  C15 UNL     1      55.096  32.486  23.593  1.00  0.00    -0.023 C 
HETATM    8  C16 UNL     1      56.113  33.132  23.062  1.00  0.00    -0.072 C 
HETATM    9  C17 UNL     1      55.963  33.693  21.695  1.00  0.00     0.066 C 
HETATM   10  C18 UNL     1      57.045  33.035  20.862  1.00  0.00     0.122 C 
HETATM   11  C19 UNL     1      57.893  32.078  21.628  1.00  0.00     0.033 C 
HETATM   12  C20 UNL     1      58.438  32.569  22.923  1.00  0.00     0.016 C 
HETATM   13  C21 UNL     1      57.399  33.321  23.760  1.00  0.00    -0.017 C 
HETATM   14  C22 UNL     1      57.748  34.804  23.679  1.00  0.00     0.020 C 
HETATM   15  C23 UNL     1      57.410  32.829  25.177  1.00  0.00     0.003 C 
HETATM   16  C24 UNL     1      58.333  33.690  26.004  1.00  0.00     0.007 C 
HETATM   17  C25 UNL     1      58.356  33.330  27.471  1.00  0.00     0.010 C 
HETATM   18  C26 UNL     1      57.035  33.030  28.074  1.00  0.00    -0.036 C 
HETATM   19  C27 UNL     1      56.231  34.275  28.376  1.00  0.00     0.016 C 
ENDROOT
BRANCH   1  20
HETATM   20  C7  UNL     1      57.302  32.887  30.612  1.00  0.00    -0.014 C 
HETATM   21  C8  UNL     1      58.659  32.696  31.160  1.00  0.00     0.010 C 
BRANCH  20  22
HETATM   22  C6  UNL     1      56.246  32.418  31.580  1.00  0.00     0.005 C 
BRANCH  22  23
HETATM   23  C5  UNL     1      55.791  33.310  32.638  1.00  0.00     0.001 C 
BRANCH  23  24
HETATM   24  C4  UNL     1      55.818  34.774  32.552  1.00  0.00     0.004 C 
BRANCH  24  25
HETATM   25  C2  UNL     1      56.737  35.497  33.489  1.00  0.00    -0.023 C 
HETATM   26  C1  UNL     1      58.006  35.959  32.788  1.00  0.00     0.009 C 
HETATM   27  C3  UNL     1      57.197  34.468  34.532  1.00  0.00     0.009 C 
ENDBRANCH  24  25
ENDBRANCH  23  24
ENDBRANCH  22  23
ENDBRANCH  20  22
ENDBRANCH   1  20
BRANCH  10  28
HETATM   28  O1  UNL     1      57.818  33.923  20.146  1.00  0.00    -0.395 OA
ATOM     29  H1  UNL     1      58.751  33.747  20.192  1.00  0.00     0.210 HD
ENDBRANCH  10  28
TORSDOF 6
ENDMDL
