MODEL 4
REMARK VINA RESULT: -10.424726562      3.585      9.731
REMARK  6 active torsions:
REMARK  status: ('A' for Active; 'I' for Inactive)
REMARK    1  A    between atoms: C2_2  and  C4_4 
REMARK    2  A    between atoms: C4_4  and  C5_5 
REMARK    3  A    between atoms: C5_5  and  C6_6 
REMARK    4  A    between atoms: C6_6  and  C7_7 
REMARK    5  A    between atoms: C7_7  and  C9_9 
REMARK    6  A    between atoms: C18_18  and  O1_19 
ROOT
HETATM    1  C9  UNL     1      56.944  33.995  28.570  1.00  0.00    -0.002 C 
HETATM    2  C10 UNL     1      58.238  34.802  28.250  1.00  0.00     0.006 C 
HETATM    3  C11 UNL     1      58.400  34.791  26.760  1.00  0.00     0.006 C 
HETATM    4  C12 UNL     1      57.158  34.154  26.286  1.00  0.00    -0.001 C 
HETATM    5  C13 UNL     1      57.260  33.502  24.940  1.00  0.00    -0.001 C 
HETATM    6  C14 UNL     1      57.602  34.517  23.898  1.00  0.00     0.033 C 
HETATM    7  C15 UNL     1      57.549  33.883  22.563  1.00  0.00    -0.023 C 
HETATM    8  C16 UNL     1      56.696  32.920  22.283  1.00  0.00    -0.072 C 
HETATM    9  C17 UNL     1      56.705  32.336  20.917  1.00  0.00     0.066 C 
HETATM   10  C18 UNL     1      55.314  32.569  20.363  1.00  0.00     0.122 C 
HETATM   11  C19 UNL     1      54.401  33.271  21.311  1.00  0.00     0.033 C 
HETATM   12  C20 UNL     1      54.343  32.729  22.695  1.00  0.00     0.016 C 
HETATM   13  C21 UNL     1      55.726  32.394  23.263  1.00  0.00    -0.017 C 
HETATM   14  C22 UNL     1      55.855  30.874  23.261  1.00  0.00     0.020 C 
HETATM   15  C23 UNL     1      55.878  32.959  24.644  1.00  0.00     0.003 C 
HETATM   16  C24 UNL     1      55.484  31.916  25.662  1.00  0.00     0.007 C 
HETATM   17  C25 UNL     1      55.678  32.355  27.095  1.00  0.00     0.010 C 
HETATM   18  C26 UNL     1      56.936  33.089  27.372  1.00  0.00    -0.036 C 
HETATM   19  C27 UNL     1      58.138  32.176  27.472  1.00  0.00     0.016 C 
ENDROOT
BRANCH   1  20
HETATM   20  C7  UNL     1      57.213  33.322  29.902  1.00  0.00    -0.014 C 
HETATM   21  C8  UNL     1      56.015  33.067  30.726  1.00  0.00     0.010 C 
BRANCH  20  22
HETATM   22  C6  UNL     1      58.204  34.198  30.625  1.00  0.00     0.005 C 
BRANCH  22  23
HETATM   23  C5  UNL     1      58.585  33.876  31.994  1.00  0.00     0.001 C 
BRANCH  23  24
HETATM   24  C4  UNL     1      58.415  34.784  33.133  1.00  0.00     0.004 C 
BRANCH  24  25
HETATM   25  C2  UNL     1      57.254  35.730  33.086  1.00  0.00    -0.023 C 
HETATM   26  C1  UNL     1      57.586  37.062  33.745  1.00  0.00     0.009 C 
HETATM   27  C3  UNL     1      56.149  35.110  33.952  1.00  0.00     0.009 C 
ENDBRANCH  24  25
ENDBRANCH  23  24
ENDBRANCH  22  23
ENDBRANCH  20  22
ENDBRANCH   1  20
BRANCH  10  28
HETATM   28  O1  UNL     1      54.720  31.438  19.846  1.00  0.00    -0.395 OA
ATOM     29  H1  UNL     1      54.771  31.373  18.899  1.00  0.00     0.210 HD
ENDBRANCH  10  28
TORSDOF 6
ENDMDL
