MODEL 3
REMARK VINA RESULT: -10.617101355      1.442      2.290
REMARK  6 active torsions:
REMARK  status: ('A' for Active; 'I' for Inactive)
REMARK    1  A    between atoms: C2_2  and  C4_4 
REMARK    2  A    between atoms: C4_4  and  C5_5 
REMARK    3  A    between atoms: C5_5  and  C6_6 
REMARK    4  A    between atoms: C6_6  and  C7_7 
REMARK    5  A    between atoms: C7_7  and  C9_9 
REMARK    6  A    between atoms: C18_18  and  O1_19 
ROOT
HETATM    1  C9  UNL     1      56.200  33.661  26.016  1.00  0.00    -0.002 C 
HETATM    2  C10 UNL     1      55.280  32.414  26.166  1.00  0.00     0.006 C 
HETATM    3  C11 UNL     1      55.166  32.131  27.633  1.00  0.00     0.006 C 
HETATM    4  C12 UNL     1      55.853  33.277  28.257  1.00  0.00    -0.001 C 
HETATM    5  C13 UNL     1      56.391  33.015  29.631  1.00  0.00    -0.001 C 
HETATM    6  C14 UNL     1      55.277  32.671  30.566  1.00  0.00     0.033 C 
HETATM    7  C15 UNL     1      55.810  32.567  31.942  1.00  0.00    -0.023 C 
HETATM    8  C16 UNL     1      56.807  33.316  32.361  1.00  0.00    -0.072 C 
HETATM    9  C17 UNL     1      57.283  33.150  33.758  1.00  0.00     0.066 C 
HETATM   10  C18 UNL     1      57.110  34.507  34.412  1.00  0.00     0.122 C 
HETATM   11  C19 UNL     1      56.551  35.545  33.500  1.00  0.00     0.033 C 
HETATM   12  C20 UNL     1      57.199  35.672  32.167  1.00  0.00     0.016 C 
HETATM   13  C21 UNL     1      57.475  34.317  31.507  1.00  0.00    -0.017 C 
HETATM   14  C22 UNL     1      58.977  34.070  31.604  1.00  0.00     0.020 C 
HETATM   15  C23 UNL     1      57.009  34.322  30.082  1.00  0.00     0.003 C 
HETATM   16  C24 UNL     1      58.152  34.714  29.177  1.00  0.00     0.007 C 
HETATM   17  C25 UNL     1      57.810  34.672  27.706  1.00  0.00     0.010 C 
HETATM   18  C26 UNL     1      57.011  33.502  27.271  1.00  0.00    -0.036 C 
HETATM   19  C27 UNL     1      57.839  32.244  27.131  1.00  0.00     0.016 C 
ENDROOT
BRANCH   1  20
HETATM   20  C7  UNL     1      56.952  33.449  24.716  1.00  0.00    -0.014 C 
HETATM   21  C8  UNL     1      57.425  34.683  24.059  1.00  0.00     0.010 C 
BRANCH  20  22
HETATM   22  C6  UNL     1      56.029  32.665  23.818  1.00  0.00     0.005 C 
BRANCH  22  23
HETATM   23  C5  UNL     1      56.588  31.737  22.844  1.00  0.00     0.001 C 
BRANCH  23  24
HETATM   24  C4  UNL     1      56.722  32.024  21.413  1.00  0.00     0.004 C 
BRANCH  24  25
HETATM   25  C2  UNL     1      56.126  33.305  20.914  1.00  0.00    -0.023 C 
HETATM   26  C1  UNL     1      55.033  33.054  19.884  1.00  0.00     0.009 C 
HETATM   27  C3  UNL     1      57.240  34.040  20.156  1.00  0.00     0.009 C 
ENDBRANCH  24  25
ENDBRANCH  23  24
ENDBRANCH  22  23
ENDBRANCH  20  22
ENDBRANCH   1  20
BRANCH  10  28
HETATM   28  O1  UNL     1      58.239  34.966  35.057  1.00  0.00    -0.395 OA
ATOM     29  H1  UNL     1      58.569  34.376  35.725  1.00  0.00     0.210 HD
ENDBRANCH  10  28
TORSDOF 6
ENDMDL
