MODEL 5
REMARK VINA RESULT: -6.736378941      1.290      1.591
REMARK  1 active torsions:
REMARK  status: ('A' for Active; 'I' for Inactive)
REMARK    1  A    between atoms: N1_2  and  C3_4 
ROOT
HETATM    1  C3  UNL     1      22.154   7.285  21.375  1.00  0.00     0.680 A 
HETATM    2  N2  UNL     1      22.126   7.981  20.230  1.00  0.00    -0.188 N 
ATOM      3  H2  UNL     1      21.601   8.841  20.070  1.00  0.00     0.184 HD
HETATM    4  C4  UNL     1      22.901   7.361  19.327  1.00  0.00     0.096 A 
HETATM    5  C5  UNL     1      23.234   7.626  18.004  1.00  0.00     0.059 A 
HETATM    6 BR1  UNL     1      22.478   9.184  17.201  1.00  0.00    -0.047 Br
HETATM    7  C6  UNL     1      24.074   6.804  17.284  1.00  0.00     0.049 A 
HETATM    8 BR2  UNL     1      24.499   7.220  15.451  1.00  0.00    -0.048 Br
HETATM    9  C7  UNL     1      24.614   5.676  17.881  1.00  0.00     0.049 A 
HETATM   10 BR3  UNL     1      25.776   4.518  16.930  1.00  0.00    -0.048 Br
HETATM   11  C8  UNL     1      24.288   5.402  19.201  1.00  0.00     0.059 A 
HETATM   12 BR4  UNL     1      24.991   3.874  20.086  1.00  0.00    -0.047 Br
HETATM   13  C9  UNL     1      23.440   6.238  19.915  1.00  0.00     0.096 A 
HETATM   14  N3  UNL     1      22.954   6.232  21.169  1.00  0.00    -0.188 N 
ATOM     15  H3  UNL     1      23.167   5.521  21.868  1.00  0.00     0.184 HD
ENDROOT
BRANCH   1  16
HETATM   16  N1  UNL     1      21.479   7.604  22.578  1.00  0.00    -0.226 N 
HETATM   17  C1  UNL     1      20.539   8.698  22.577  1.00  0.00     0.168 C 
HETATM   18  C2  UNL     1      21.714   6.843  23.773  1.00  0.00     0.168 C 
ENDBRANCH   1  16
TORSDOF 1
ENDMDL
