MODEL 4
REMARK VINA RESULT: -6.787666189      2.940      5.637
REMARK  1 active torsions:
REMARK  status: ('A' for Active; 'I' for Inactive)
REMARK    1  A    between atoms: N1_2  and  C3_4 
ROOT
HETATM    1  C3  UNL     1      24.874   5.156  18.438  1.00  0.00     0.680 A 
HETATM    2  N2  UNL     1      24.261   5.320  19.619  1.00  0.00    -0.188 N 
ATOM      3  H2  UNL     1      24.413   4.751  20.451  1.00  0.00     0.184 HD
HETATM    4  C4  UNL     1      23.414   6.357  19.526  1.00  0.00     0.096 A 
HETATM    5  C5  UNL     1      22.537   6.962  20.419  1.00  0.00     0.059 A 
HETATM    6 BR1  UNL     1      22.439   6.242  22.183  1.00  0.00    -0.047 Br
HETATM    7  C6  UNL     1      21.759   8.042  20.059  1.00  0.00     0.049 A 
HETATM    8 BR2  UNL     1      20.560   8.841  21.338  1.00  0.00    -0.048 Br
HETATM    9  C7  UNL     1      21.841   8.553  18.773  1.00  0.00     0.049 A 
HETATM   10 BR3  UNL     1      20.792  10.038  18.234  1.00  0.00    -0.048 Br
HETATM   11  C8  UNL     1      22.713   7.956  17.874  1.00  0.00     0.059 A 
HETATM   12 BR4  UNL     1      22.879   8.603  16.095  1.00  0.00    -0.047 Br
HETATM   13  C9  UNL     1      23.490   6.869  18.250  1.00  0.00     0.096 A 
HETATM   14  N3  UNL     1      24.396   6.101  17.619  1.00  0.00    -0.188 N 
ATOM     15  H3  UNL     1      24.682   6.223  16.647  1.00  0.00     0.184 HD
ENDROOT
BRANCH   1  16
HETATM   16  N1  UNL     1      25.848   4.179  18.116  1.00  0.00    -0.226 N 
HETATM   17  C1  UNL     1      26.163   3.167  19.094  1.00  0.00     0.168 C 
HETATM   18  C2  UNL     1      26.498   4.188  16.836  1.00  0.00     0.168 C 
ENDBRANCH   1  16
TORSDOF 1
ENDMDL
