MODEL 3
REMARK VINA RESULT: -6.799912269      2.937      5.165
REMARK  1 active torsions:
REMARK  status: ('A' for Active; 'I' for Inactive)
REMARK    1  A    between atoms: N1_2  and  C3_4 
ROOT
HETATM    1  C3  UNL     1      24.871   5.161  18.431  1.00  0.00     0.680 A 
HETATM    2  N2  UNL     1      24.412   6.100  17.591  1.00  0.00    -0.188 N 
ATOM      3  H2  UNL     1      24.704   6.224  16.622  1.00  0.00     0.184 HD
HETATM    4  C4  UNL     1      23.505   6.850  18.235  1.00  0.00     0.096 A 
HETATM    5  C5  UNL     1      22.725   7.940  17.865  1.00  0.00     0.059 A 
HETATM    6 BR1  UNL     1      22.908   8.590  16.081  1.00  0.00    -0.047 Br
HETATM    7  C6  UNL     1      21.850   8.542  18.744  1.00  0.00     0.049 A 
HETATM    8 BR2  UNL     1      20.796  10.053  18.178  1.00  0.00    -0.048 Br
HETATM    9  C7  UNL     1      21.729   8.059  20.037  1.00  0.00     0.049 A 
HETATM   10 BR3  UNL     1      20.536   8.854  21.279  1.00  0.00    -0.048 Br
HETATM   11  C8  UNL     1      22.503   6.971  20.416  1.00  0.00     0.059 A 
HETATM   12 BR4  UNL     1      22.389   6.254  22.172  1.00  0.00    -0.047 Br
HETATM   13  C9  UNL     1      23.381   6.375  19.521  1.00  0.00     0.096 A 
HETATM   14  N3  UNL     1      24.237   5.340  19.597  1.00  0.00    -0.188 N 
ATOM     15  H3  UNL     1      24.383   4.769  20.429  1.00  0.00     0.184 HD
ENDROOT
BRANCH   1  16
HETATM   16  N1  UNL     1      25.832   4.162  18.143  1.00  0.00    -0.226 N 
HETATM   17  C1  UNL     1      26.116   3.163  19.145  1.00  0.00     0.168 C 
HETATM   18  C2  UNL     1      26.501   4.134  16.872  1.00  0.00     0.168 C 
ENDBRANCH   1  16
TORSDOF 1
ENDMDL
