MODEL 1
REMARK VINA RESULT: -6.923494688      0.000      0.000
REMARK  1 active torsions:
REMARK  status: ('A' for Active; 'I' for Inactive)
REMARK    1  A    between atoms: N1_2  and  C3_4 
ROOT
HETATM    1  C3  UNL     1      21.459   7.610  22.363  1.00  0.00     0.680 A 
HETATM    2  N2  UNL     1      21.257   8.365  21.274  1.00  0.00    -0.188 N 
ATOM      3  H2  UNL     1      20.625   9.163  21.213  1.00  0.00     0.184 HD
HETATM    4  C4  UNL     1      22.022   7.898  20.276  1.00  0.00     0.096 A 
HETATM    5  C5  UNL     1      22.213   8.280  18.953  1.00  0.00     0.059 A 
HETATM    6 BR1  UNL     1      21.220   9.780  18.317  1.00  0.00    -0.047 Br
HETATM    7  C6  UNL     1      23.081   7.609  18.117  1.00  0.00     0.049 A 
HETATM    8 BR2  UNL     1      23.304   8.183  16.291  1.00  0.00    -0.048 Br
HETATM    9  C7  UNL     1      23.794   6.521  18.594  1.00  0.00     0.049 A 
HETATM   10 BR3  UNL     1      25.001   5.571  17.482  1.00  0.00    -0.048 Br
HETATM   11  C8  UNL     1      23.612   6.132  19.913  1.00  0.00     0.059 A 
HETATM   12 BR4  UNL     1      24.557   4.650  20.635  1.00  0.00    -0.047 Br
HETATM   13  C9  UNL     1      22.734   6.815  20.743  1.00  0.00     0.096 A 
HETATM   14  N3  UNL     1      22.356   6.675  22.026  1.00  0.00    -0.188 N 
ATOM     15  H3  UNL     1      22.706   5.955  22.657  1.00  0.00     0.184 HD
ENDROOT
BRANCH   1  16
HETATM   16  N1  UNL     1      20.852   7.773  23.632  1.00  0.00    -0.226 N 
HETATM   17  C1  UNL     1      20.264   6.622  24.273  1.00  0.00     0.168 C 
HETATM   18  C2  UNL     1      20.835   9.057  24.276  1.00  0.00     0.168 C 
ENDBRANCH   1  16
TORSDOF 1
ENDMDL
