MODEL 12
REMARK VINA RESULT: -6.332883514      2.537      4.840
REMARK  1 active torsions:
REMARK  status: ('A' for Active; 'I' for Inactive)
REMARK    1  A    between atoms: N1_2  and  C3_4 
ROOT
HETATM    1  C3  UNL     1      24.271   4.721  20.142  1.00  0.00     0.680 A 
HETATM    2  N2  UNL     1      23.425   5.238  21.044  1.00  0.00    -0.188 N 
ATOM      3  H2  UNL     1      23.241   4.857  21.973  1.00  0.00     0.184 HD
HETATM    4  C4  UNL     1      22.857   6.337  20.525  1.00  0.00     0.096 A 
HETATM    5  C5  UNL     1      21.924   7.251  21.001  1.00  0.00     0.059 A 
HETATM    6 BR1  UNL     1      21.237   6.974  22.759  1.00  0.00    -0.047 Br
HETATM    7  C6  UNL     1      21.498   8.321  20.243  1.00  0.00     0.049 A 
HETATM    8 BR2  UNL     1      20.200   9.555  20.954  1.00  0.00    -0.048 Br
HETATM    9  C7  UNL     1      22.006   8.508  18.967  1.00  0.00     0.049 A 
HETATM   10 BR3  UNL     1      21.452   9.967  17.890  1.00  0.00    -0.048 Br
HETATM   11  C8  UNL     1      22.938   7.601  18.483  1.00  0.00     0.059 A 
HETATM   12 BR4  UNL     1      23.679   7.795  16.744  1.00  0.00    -0.047 Br
HETATM   13  C9  UNL     1      23.357   6.528  19.257  1.00  0.00     0.096 A 
HETATM   14  N3  UNL     1      24.220   5.514  19.064  1.00  0.00    -0.188 N 
ATOM     15  H3  UNL     1      24.761   5.368  18.212  1.00  0.00     0.184 HD
ENDROOT
BRANCH   1  16
HETATM   16  N1  UNL     1      25.076   3.566  20.298  1.00  0.00    -0.226 N 
HETATM   17  C1  UNL     1      24.693   2.581  21.280  1.00  0.00     0.168 C 
HETATM   18  C2  UNL     1      26.243   3.373  19.483  1.00  0.00     0.168 C 
ENDBRANCH   1  16
TORSDOF 1
ENDMDL
