MODEL 9
REMARK VINA RESULT: -6.371428182      2.534      4.626
REMARK  1 active torsions:
REMARK  status: ('A' for Active; 'I' for Inactive)
REMARK    1  A    between atoms: N1_2  and  C3_4 
ROOT
HETATM    1  C3  UNL     1      24.270   4.754  20.113  1.00  0.00     0.680 A 
HETATM    2  N2  UNL     1      24.216   5.539  19.028  1.00  0.00    -0.188 N 
ATOM      3  H2  UNL     1      24.748   5.402  18.168  1.00  0.00     0.184 HD
HETATM    4  C4  UNL     1      23.348   6.535  19.257  1.00  0.00     0.096 A 
HETATM    5  C5  UNL     1      22.907   7.617  18.503  1.00  0.00     0.059 A 
HETATM    6 BR1  UNL     1      23.631   7.823  16.750  1.00  0.00    -0.047 Br
HETATM    7  C6  UNL     1      21.984   8.518  18.990  1.00  0.00     0.049 A 
HETATM    8 BR2  UNL     1      21.411  10.001  17.901  1.00  0.00    -0.048 Br
HETATM    9  C7  UNL     1      21.468   8.356  20.266  1.00  0.00     0.049 A 
HETATM   10 BR3  UNL     1      20.194   9.568  20.976  1.00  0.00    -0.048 Br
HETATM   11  C8  UNL     1      21.901   7.279  21.027  1.00  0.00     0.059 A 
HETATM   12 BR4  UNL     1      21.236   6.992  22.784  1.00  0.00    -0.047 Br
HETATM   13  C9  UNL     1      22.832   6.380  20.524  1.00  0.00     0.096 A 
HETATM   14  N3  UNL     1      23.426   5.276  21.011  1.00  0.00    -0.188 N 
ATOM     15  H3  UNL     1      23.256   4.888  21.939  1.00  0.00     0.184 HD
ENDROOT
BRANCH   1  16
HETATM   16  N1  UNL     1      25.058   3.588  20.278  1.00  0.00    -0.226 N 
HETATM   17  C1  UNL     1      24.680   2.634  21.292  1.00  0.00     0.168 C 
HETATM   18  C2  UNL     1      26.202   3.354  19.442  1.00  0.00     0.168 C 
ENDBRANCH   1  16
TORSDOF 1
ENDMDL
