MODEL 2
REMARK VINA RESULT: -6.906947579      0.074      2.957
REMARK  1 active torsions:
REMARK  status: ('A' for Active; 'I' for Inactive)
REMARK    1  A    between atoms: N1_2  and  C3_4 
ROOT
HETATM    1  C3  UNL     1      21.484   7.650  22.376  1.00  0.00     0.680 A 
HETATM    2  N2  UNL     1      22.378   6.710  22.037  1.00  0.00    -0.188 N 
ATOM      3  H2  UNL     1      22.744   5.988  22.657  1.00  0.00     0.184 HD
HETATM    4  C4  UNL     1      22.714   6.876  20.749  1.00  0.00     0.096 A 
HETATM    5  C5  UNL     1      23.579   6.209  19.889  1.00  0.00     0.059 A 
HETATM    6 BR1  UNL     1      24.548   4.723  20.592  1.00  0.00    -0.047 Br
HETATM    7  C6  UNL     1      23.745   6.596  18.576  1.00  0.00     0.049 A 
HETATM    8 BR2  UNL     1      24.960   5.635  17.430  1.00  0.00    -0.048 Br
HETATM    9  C7  UNL     1      23.035   7.679  18.081  1.00  0.00     0.049 A 
HETATM   10 BR3  UNL     1      23.229   8.244  16.282  1.00  0.00    -0.048 Br
HETATM   11  C8  UNL     1      22.169   8.351  18.931  1.00  0.00     0.059 A 
HETATM   12 BR4  UNL     1      21.163   9.843  18.322  1.00  0.00    -0.047 Br
HETATM   13  C9  UNL     1      22.013   7.951  20.251  1.00  0.00     0.096 A 
HETATM   14  N3  UNL     1      21.272   8.394  21.283  1.00  0.00    -0.188 N 
ATOM     15  H3  UNL     1      20.635   9.189  21.239  1.00  0.00     0.184 HD
ENDROOT
BRANCH   1  16
HETATM   16  N1  UNL     1      20.869   7.819  23.640  1.00  0.00    -0.226 N 
HETATM   17  C1  UNL     1      20.240   6.680  24.264  1.00  0.00     0.168 C 
HETATM   18  C2  UNL     1      20.884   9.097  24.295  1.00  0.00     0.168 C 
ENDBRANCH   1  16
TORSDOF 1
ENDMDL
