MODEL 14
REMARK VINA RESULT: -6.307104155      2.277      4.028
REMARK  1 active torsions:
REMARK  status: ('A' for Active; 'I' for Inactive)
REMARK    1  A    between atoms: S1_2  and  C2_3 
ROOT
HETATM    1  C2  UNL     1      21.181   8.668  18.855  1.00  0.00     0.145 A 
HETATM    2  N1  UNL     1      21.443   7.788  19.844  1.00  0.00    -0.334 N 
ATOM      3  H1  UNL     1      21.031   7.807  20.776  1.00  0.00     0.168 HD
HETATM    4  C3  UNL     1      22.336   6.878  19.402  1.00  0.00     0.081 A 
HETATM    5  C4  UNL     1      22.952   5.774  19.966  1.00  0.00     0.058 A 
HETATM    6 BR1  UNL     1      22.543   5.308  21.772  1.00  0.00    -0.047 Br
HETATM    7  C5  UNL     1      23.857   4.990  19.269  1.00  0.00     0.049 A 
HETATM    8 BR2  UNL     1      24.671   3.473  20.120  1.00  0.00    -0.048 Br
HETATM    9  C6  UNL     1      24.135   5.344  17.974  1.00  0.00     0.049 A 
HETATM   10 BR3  UNL     1      25.376   4.287  16.984  1.00  0.00    -0.048 Br
HETATM   11  C7  UNL     1      23.527   6.445  17.398  1.00  0.00     0.058 A 
HETATM   12 BR4  UNL     1      23.917   6.938  15.583  1.00  0.00    -0.047 Br
HETATM   13  C8  UNL     1      22.619   7.229  18.097  1.00  0.00     0.081 A 
HETATM   14  N2  UNL     1      21.904   8.332  17.772  1.00  0.00    -0.334 N 
ATOM     15  H2  UNL     1      21.911   8.816  16.875  1.00  0.00     0.168 HD
ENDROOT
BRANCH   1  16
HETATM   16  S1  UNL     1      20.073  10.076  18.893  1.00  0.00    -0.098 SA
HETATM   17  C1  UNL     1      19.635  10.495  17.171  1.00  0.00     0.099 C 
ENDBRANCH   1  16
TORSDOF 1
ENDMDL
