MODEL 12
REMARK VINA RESULT: -6.377737154      4.758      6.310
REMARK  1 active torsions:
REMARK  status: ('A' for Active; 'I' for Inactive)
REMARK    1  A    between atoms: S1_2  and  C2_3 
ROOT
HETATM    1  C2  UNL     1      25.530   2.241  17.192  1.00  0.00     0.145 A 
HETATM    2  N1  UNL     1      25.205   3.438  16.659  1.00  0.00    -0.334 N 
ATOM      3  H1  UNL     1      25.426   3.742  15.711  1.00  0.00     0.168 HD
HETATM    4  C3  UNL     1      24.542   4.167  17.580  1.00  0.00     0.081 A 
HETATM    5  C4  UNL     1      23.984   5.434  17.592  1.00  0.00     0.058 A 
HETATM    6 BR1  UNL     1      24.098   6.511  16.019  1.00  0.00    -0.047 Br
HETATM    7  C5  UNL     1      23.342   5.955  18.704  1.00  0.00     0.049 A 
HETATM    8 BR2  UNL     1      22.592   7.721  18.643  1.00  0.00    -0.048 Br
HETATM    9  C6  UNL     1      23.273   5.164  19.822  1.00  0.00     0.049 A 
HETATM   10 BR3  UNL     1      22.396   5.848  21.372  1.00  0.00    -0.048 Br
HETATM   11  C7  UNL     1      23.827   3.896  19.824  1.00  0.00     0.058 A 
HETATM   12 BR4  UNL     1      23.727   2.790  21.391  1.00  0.00    -0.047 Br
HETATM   13  C8  UNL     1      24.469   3.375  18.709  1.00  0.00     0.081 A 
HETATM   14  N2  UNL     1      25.080   2.194  18.458  1.00  0.00    -0.334 N 
ATOM     15  H2  UNL     1      25.181   1.414  19.107  1.00  0.00     0.168 HD
ENDROOT
BRANCH   1  16
HETATM   16  S1  UNL     1      26.411   0.888  16.416  1.00  0.00    -0.098 SA
HETATM   17  C1  UNL     1      28.079   1.482  15.971  1.00  0.00     0.099 C 
ENDBRANCH   1  16
TORSDOF 1
ENDMDL
