MODEL 10
REMARK VINA RESULT: -6.727565222      2.276      3.203
REMARK  1 active torsions:
REMARK  status: ('A' for Active; 'I' for Inactive)
REMARK    1  A    between atoms: S1_2  and  C2_3 
ROOT
HETATM    1  C2  UNL     1      22.833   5.384  20.762  1.00  0.00     0.145 A 
HETATM    2  N1  UNL     1      22.002   6.442  20.856  1.00  0.00    -0.334 N 
ATOM      3  H1  UNL     1      21.460   6.696  21.682  1.00  0.00     0.168 HD
HETATM    4  C3  UNL     1      22.002   7.111  19.685  1.00  0.00     0.081 A 
HETATM    5  C4  UNL     1      21.356   8.243  19.216  1.00  0.00     0.058 A 
HETATM    6 BR1  UNL     1      20.164   9.176  20.380  1.00  0.00    -0.047 Br
HETATM    7  C5  UNL     1      21.542   8.728  17.932  1.00  0.00     0.049 A 
HETATM    8 BR2  UNL     1      20.610  10.304  17.355  1.00  0.00    -0.048 Br
HETATM    9  C6  UNL     1      22.402   8.041  17.115  1.00  0.00     0.049 A 
HETATM   10 BR3  UNL     1      22.682   8.680  15.340  1.00  0.00    -0.048 Br
HETATM   11  C7  UNL     1      23.054   6.909  17.570  1.00  0.00     0.058 A 
HETATM   12 BR4  UNL     1      24.260   5.950  16.423  1.00  0.00    -0.047 Br
HETATM   13  C8  UNL     1      22.868   6.424  18.857  1.00  0.00     0.081 A 
HETATM   14  N2  UNL     1      23.372   5.364  19.531  1.00  0.00    -0.334 N 
ATOM     15  H2  UNL     1      24.037   4.678  19.172  1.00  0.00     0.168 HD
ENDROOT
BRANCH   1  16
HETATM   16  S1  UNL     1      23.212   4.160  22.015  1.00  0.00    -0.098 SA
HETATM   17  C1  UNL     1      21.640   3.609  22.760  1.00  0.00     0.099 C 
ENDBRANCH   1  16
TORSDOF 1
ENDMDL
