MODEL 11
REMARK VINA RESULT: -6.629362001      2.209      3.592
REMARK  1 active torsions:
REMARK  status: ('A' for Active; 'I' for Inactive)
REMARK    1  A    between atoms: S1_2  and  C2_3 
ROOT
HETATM    1  C2  UNL     1      22.709   5.445  20.832  1.00  0.00     0.145 A 
HETATM    2  N1  UNL     1      23.261   5.433  19.601  1.00  0.00    -0.334 N 
ATOM      3  H1  UNL     1      23.927   4.741  19.259  1.00  0.00     0.168 HD
HETATM    4  C3  UNL     1      22.791   6.482  18.895  1.00  0.00     0.081 A 
HETATM    5  C4  UNL     1      23.003   6.958  17.612  1.00  0.00     0.058 A 
HETATM    6 BR1  UNL     1      24.206   6.019  16.464  1.00  0.00    -0.047 Br
HETATM    7  C5  UNL     1      22.374   8.092  17.125  1.00  0.00     0.049 A 
HETATM    8 BR2  UNL     1      22.719   8.690  15.334  1.00  0.00    -0.048 Br
HETATM    9  C6  UNL     1      21.515   8.750  17.968  1.00  0.00     0.049 A 
HETATM   10 BR3  UNL     1      20.631  10.315  17.332  1.00  0.00    -0.048 Br
HETATM   11  C7  UNL     1      21.295   8.286  19.253  1.00  0.00     0.058 A 
HETATM   12 BR4  UNL     1      20.090   9.208  20.431  1.00  0.00    -0.047 Br
HETATM   13  C8  UNL     1      21.925   7.148  19.739  1.00  0.00     0.081 A 
HETATM   14  N2  UNL     1      21.883   6.501  20.927  1.00  0.00    -0.334 N 
ATOM     15  H2  UNL     1      21.329   6.766  21.742  1.00  0.00     0.168 HD
ENDROOT
BRANCH   1  16
HETATM   16  S1  UNL     1      22.977   4.290  22.176  1.00  0.00    -0.098 SA
HETATM   17  C1  UNL     1      21.348   3.676  22.726  1.00  0.00     0.099 C 
ENDBRANCH   1  16
TORSDOF 1
ENDMDL
