MODEL 13
REMARK VINA RESULT: -6.327370459      4.756      6.887
REMARK  1 active torsions:
REMARK  status: ('A' for Active; 'I' for Inactive)
REMARK    1  A    between atoms: S1_2  and  C2_3 
ROOT
HETATM    1  C2  UNL     1      25.513   2.207  17.257  1.00  0.00     0.145 A 
HETATM    2  N1  UNL     1      25.049   2.197  18.524  1.00  0.00    -0.334 N 
ATOM      3  H1  UNL     1      25.144   1.424  19.182  1.00  0.00     0.168 HD
HETATM    4  C3  UNL     1      24.439   3.372  18.781  1.00  0.00     0.081 A 
HETATM    5  C4  UNL     1      23.796   3.908  19.884  1.00  0.00     0.058 A 
HETATM    6 BR1  UNL     1      23.666   2.863  21.477  1.00  0.00    -0.047 Br
HETATM    7  C5  UNL     1      23.241   5.177  19.878  1.00  0.00     0.049 A 
HETATM    8 BR2  UNL     1      22.365   5.851  21.448  1.00  0.00    -0.048 Br
HETATM    9  C6  UNL     1      23.347   5.909  18.723  1.00  0.00     0.049 A 
HETATM   10 BR3  UNL     1      22.595   7.661  18.680  1.00  0.00    -0.048 Br
HETATM   11  C7  UNL     1      23.986   5.385  17.614  1.00  0.00     0.058 A 
HETATM   12 BR4  UNL     1      24.134   6.413  15.997  1.00  0.00    -0.047 Br
HETATM   13  C8  UNL     1      24.542   4.113  17.621  1.00  0.00     0.081 A 
HETATM   14  N2  UNL     1      25.204   3.386  16.691  1.00  0.00    -0.334 N 
ATOM     15  H2  UNL     1      25.427   3.678  15.739  1.00  0.00     0.168 HD
ENDROOT
BRANCH   1  16
HETATM   16  S1  UNL     1      26.400   0.910  16.394  1.00  0.00    -0.098 SA
HETATM   17  C1  UNL     1      28.063   1.541  15.983  1.00  0.00     0.099 C 
ENDBRANCH   1  16
TORSDOF 1
ENDMDL
