MODEL 9
REMARK VINA RESULT: -6.385889350      2.730      3.881
REMARK  0 active torsions:
REMARK  status: ('A' for Active; 'I' for Inactive)
ROOT
HETATM    1  C1  UNL     1      25.863   0.202  22.633  1.00  0.00     0.168 C 
HETATM    2  N1  UNL     1      25.858   1.456  21.920  1.00  0.00    -0.220 N 
HETATM    3  C2  UNL     1      26.782   1.819  20.868  1.00  0.00     0.161 C 
HETATM    4  C3  UNL     1      25.895   2.628  19.951  1.00  0.00     0.168 C 
HETATM    5  N2  UNL     1      25.024   3.300  20.889  1.00  0.00    -0.178 N 
HETATM    6  C4  UNL     1      25.013   2.590  22.042  1.00  0.00     0.683 A 
HETATM    7  N3  UNL     1      24.204   3.188  22.947  1.00  0.00    -0.188 N 
ATOM      8  H3  UNL     1      24.010   2.869  23.897  1.00  0.00     0.184 HD
HETATM    9  C5  UNL     1      23.703   4.286  22.350  1.00  0.00     0.097 A 
HETATM   10  C6  UNL     1      22.837   5.280  22.754  1.00  0.00     0.059 A 
HETATM   11 BR1  UNL     1      22.149   5.147  24.540  1.00  0.00    -0.047 Br
HETATM   12  C7  UNL     1      22.488   6.308  21.919  1.00  0.00     0.049 A 
HETATM   13 BR2  UNL     1      21.291   7.639  22.546  1.00  0.00    -0.048 Br
HETATM   14  C8  UNL     1      22.986   6.392  20.647  1.00  0.00     0.049 A 
HETATM   15 BR3  UNL     1      22.512   7.824  19.456  1.00  0.00    -0.048 Br
HETATM   16  C9  UNL     1      23.849   5.407  20.235  1.00  0.00     0.059 A 
HETATM   17 BR4  UNL     1      24.554   5.512  18.452  1.00  0.00    -0.047 Br
HETATM   18  C10 UNL     1      24.206   4.367  21.068  1.00  0.00     0.099 A 
ENDROOT
TORSDOF 0
ENDMDL
