MODEL 8
REMARK VINA RESULT: -6.416734537      3.375      5.000
REMARK  0 active torsions:
REMARK  status: ('A' for Active; 'I' for Inactive)
ROOT
HETATM    1  C1  UNL     1      27.946   1.705  17.538  1.00  0.00     0.168 C 
HETATM    2  N1  UNL     1      26.828   1.853  18.438  1.00  0.00    -0.220 N 
HETATM    3  C2  UNL     1      26.306   0.813  19.295  1.00  0.00     0.161 C 
HETATM    4  C3  UNL     1      25.897   1.603  20.516  1.00  0.00     0.168 C 
HETATM    5  N2  UNL     1      25.432   2.841  19.932  1.00  0.00    -0.178 N 
HETATM    6  C4  UNL     1      25.996   2.972  18.708  1.00  0.00     0.683 A 
HETATM    7  N3  UNL     1      25.587   4.124  18.128  1.00  0.00    -0.188 N 
ATOM      8  H3  UNL     1      25.856   4.473  17.209  1.00  0.00     0.184 HD
HETATM    9  C5  UNL     1      24.756   4.720  19.004  1.00  0.00     0.097 A 
HETATM   10  C6  UNL     1      24.036   5.897  18.985  1.00  0.00     0.059 A 
HETATM   11 BR1  UNL     1      24.196   6.978  17.409  1.00  0.00    -0.047 Br
HETATM   12  C7  UNL     1      23.248   6.270  20.041  1.00  0.00     0.049 A 
HETATM   13 BR2  UNL     1      22.287   7.903  19.943  1.00  0.00    -0.048 Br
HETATM   14  C8  UNL     1      23.141   5.489  21.160  1.00  0.00     0.049 A 
HETATM   15 BR3  UNL     1      22.042   5.991  22.656  1.00  0.00    -0.048 Br
HETATM   16  C9  UNL     1      23.853   4.316  21.189  1.00  0.00     0.059 A 
HETATM   17 BR4  UNL     1      23.713   3.212  22.754  1.00  0.00    -0.047 Br
HETATM   18  C10 UNL     1      24.651   3.932  20.130  1.00  0.00     0.099 A 
ENDROOT
TORSDOF 0
ENDMDL
