MODEL 6
REMARK VINA RESULT: -6.772442194      2.677      5.876
REMARK  0 active torsions:
REMARK  status: ('A' for Active; 'I' for Inactive)
ROOT
HETATM    1  C1  UNL     1      23.511   7.880  15.312  1.00  0.00     0.168 C 
HETATM    2  N1  UNL     1      23.124   8.298  16.637  1.00  0.00    -0.220 N 
HETATM    3  C2  UNL     1      22.612   9.606  16.981  1.00  0.00     0.161 C 
HETATM    4  C3  UNL     1      21.609   9.265  18.057  1.00  0.00     0.168 C 
HETATM    5  N2  UNL     1      22.251   8.158  18.729  1.00  0.00    -0.178 N 
HETATM    6  C4  UNL     1      23.138   7.599  17.872  1.00  0.00     0.683 A 
HETATM    7  N3  UNL     1      23.760   6.553  18.465  1.00  0.00    -0.188 N 
ATOM      8  H3  UNL     1      24.473   5.953  18.051  1.00  0.00     0.184 HD
HETATM    9  C5  UNL     1      23.253   6.459  19.709  1.00  0.00     0.097 A 
HETATM   10  C6  UNL     1      23.484   5.610  20.771  1.00  0.00     0.059 A 
HETATM   11 BR1  UNL     1      24.794   4.235  20.503  1.00  0.00    -0.047 Br
HETATM   12  C7  UNL     1      22.808   5.744  21.954  1.00  0.00     0.049 A 
HETATM   13 BR2  UNL     1      23.179   4.538  23.370  1.00  0.00    -0.048 Br
HETATM   14  C8  UNL     1      21.875   6.730  22.134  1.00  0.00     0.049 A 
HETATM   15 BR3  UNL     1      20.913   6.940  23.784  1.00  0.00    -0.048 Br
HETATM   16  C9  UNL     1      21.638   7.581  21.082  1.00  0.00     0.059 A 
HETATM   17 BR4  UNL     1      20.331   8.967  21.320  1.00  0.00    -0.047 Br
HETATM   18  C10 UNL     1      22.313   7.453  19.886  1.00  0.00     0.099 A 
ENDROOT
TORSDOF 0
ENDMDL
