MODEL 4
REMARK VINA RESULT: -6.919893545      1.005      3.298
REMARK  0 active torsions:
REMARK  status: ('A' for Active; 'I' for Inactive)
ROOT
HETATM    1  C1  UNL     1      22.817   4.598  24.505  1.00  0.00     0.168 C 
HETATM    2  N1  UNL     1      22.083   5.364  23.528  1.00  0.00    -0.220 N 
HETATM    3  C2  UNL     1      20.746   5.883  23.711  1.00  0.00     0.161 C 
HETATM    4  C3  UNL     1      20.826   7.197  22.969  1.00  0.00     0.168 C 
HETATM    5  N2  UNL     1      21.705   6.869  21.870  1.00  0.00    -0.178 N 
HETATM    6  C4  UNL     1      22.441   5.788  22.221  1.00  0.00     0.683 A 
HETATM    7  N3  UNL     1      23.281   5.450  21.216  1.00  0.00    -0.188 N 
ATOM      8  H3  UNL     1      23.947   4.678  21.210  1.00  0.00     0.184 HD
HETATM    9  C5  UNL     1      23.066   6.334  20.223  1.00  0.00     0.097 A 
HETATM   10  C6  UNL     1      23.606   6.505  18.965  1.00  0.00     0.059 A 
HETATM   11 BR1  UNL     1      24.966   5.260  18.437  1.00  0.00    -0.047 Br
HETATM   12  C7  UNL     1      23.191   7.516  18.140  1.00  0.00     0.049 A 
HETATM   13 BR2  UNL     1      23.982   7.689  16.424  1.00  0.00    -0.048 Br
HETATM   14  C8  UNL     1      22.220   8.399  18.528  1.00  0.00     0.049 A 
HETATM   15 BR3  UNL     1      21.620   9.825  17.388  1.00  0.00    -0.048 Br
HETATM   16  C9  UNL     1      21.675   8.236  19.777  1.00  0.00     0.059 A 
HETATM   17 BR4  UNL     1      20.312   9.469  20.335  1.00  0.00    -0.047 Br
HETATM   18  C10 UNL     1      22.087   7.222  20.617  1.00  0.00     0.099 A 
ENDROOT
TORSDOF 0
ENDMDL
