MODEL 3
REMARK VINA RESULT: -5.084002028      4.625      6.933
REMARK  6 active torsions:
REMARK  status: ('A' for Active; 'I' for Inactive)
REMARK    1  A    between atoms: S1_2  and  C2_3 
REMARK    2  A    between atoms: C2_3  and  C3_4 
REMARK    3  A    between atoms: C4_8  and  C5_9 
REMARK    4  A    between atoms: C10_20  and  N5_21 
REMARK    5  A    between atoms: C11_25  and  O1_26 
REMARK    6  A    between atoms: C12_28  and  O2_29 
ROOT
HETATM    1  C5  UNL     1      23.866   9.596  23.373  1.00  0.00     0.019 A 
HETATM    2  C6  UNL     1      22.562   9.167  23.253  1.00  0.00     0.100 A 
HETATM    3  N2  UNL     1      22.517   7.840  23.433  1.00  0.00    -0.364 N 
ATOM      4  H2  UNL     1      21.668   7.275  23.395  1.00  0.00     0.165 HD
HETATM    5  C7  UNL     1      23.753   7.355  23.671  1.00  0.00     0.087 A 
HETATM    6  C8  UNL     1      24.598   8.440  23.637  1.00  0.00     0.069 A 
HETATM    7  N3  UNL     1      25.982   8.243  23.858  1.00  0.00    -0.350 N 
ATOM      8  H3  UNL     1      26.620   9.039  23.835  1.00  0.00     0.166 HD
HETATM    9  C9  UNL     1      26.439   7.060  24.088  1.00  0.00     0.178 A 
HETATM   10  N4  UNL     1      25.625   5.897  24.138  1.00  0.00    -0.354 N 
ATOM     11  H4  UNL     1      26.059   4.994  24.330  1.00  0.00     0.162 HD
HETATM   12  C10 UNL     1      24.197   5.960  23.921  1.00  0.00     0.335 A 
ENDROOT
BRANCH   1  13
HETATM   13  C4  UNL     1      24.457  10.952  23.267  1.00  0.00     0.254 C 
HETATM   14  N1  UNL     1      24.650  11.555  24.586  1.00  0.00    -0.057 N 
HETATM   15  C3  UNL     1      24.692  12.955  24.212  1.00  0.00     0.227 C 
ATOM     16  H12 UNL     1      25.447  11.212  25.121  1.00  0.00     0.278 HD
ATOM     17  H11 UNL     1      23.963  11.304  25.297  1.00  0.00     0.278 HD
HETATM   18  C12 UNL     1      23.392  13.049  23.432  1.00  0.00     0.180 C 
HETATM   19  C11 UNL     1      23.626  11.889  22.454  1.00  0.00     0.184 C 
BRANCH  15  20
HETATM   20  C2  UNL     1      24.738  13.884  25.384  1.00  0.00     0.109 C 
BRANCH  20  21
HETATM   21  S1  UNL     1      26.374  14.647  25.571  1.00  0.00    -0.171 SA
HETATM   22  C1  UNL     1      27.111  14.075  27.136  1.00  0.00     0.089 C 
ENDBRANCH  20  21
ENDBRANCH  15  20
BRANCH  18  23
HETATM   23  O2  UNL     1      23.223  14.250  22.791  1.00  0.00    -0.391 OA
ATOM     24  H2  UNL     1      22.429  14.295  22.271  1.00  0.00     0.210 HD
ENDBRANCH  18  23
BRANCH  19  25
HETATM   25  O1  UNL     1      24.375  12.470  21.408  1.00  0.00    -0.390 OA
ATOM     26  H1  UNL     1      23.964  13.263  21.084  1.00  0.00     0.210 HD
ENDBRANCH  19  25
ENDBRANCH   1  13
BRANCH  12  27
HETATM   27  N5  UNL     1      23.423   5.375  24.995  1.00  0.00    -0.053 N 
ATOM     28  H53 UNL     1      23.652   5.789  25.900  1.00  0.00     0.277 HD
ATOM     29  H52 UNL     1      22.441   5.647  24.950  1.00  0.00     0.277 HD
ATOM     30  H51 UNL     1      23.539   4.362  25.000  1.00  0.00     0.277 HD
ENDBRANCH  12  27
TORSDOF 6
ENDMDL
