MODEL 1
REMARK VINA RESULT: -7.054616896      0.000      0.000
REMARK  6 active torsions:
REMARK  status: ('A' for Active; 'I' for Inactive)
REMARK    1  A    between atoms: S1_2  and  C2_3 
REMARK    2  A    between atoms: C2_3  and  C3_4 
REMARK    3  A    between atoms: C4_8  and  C5_9 
REMARK    4  A    between atoms: C10_20  and  N5_21 
REMARK    5  A    between atoms: C11_25  and  O1_26 
REMARK    6  A    between atoms: C12_28  and  O2_29 
ROOT
HETATM    1  C5  UNL     1      23.897   4.682  26.870  1.00  0.00     0.019 A 
HETATM    2  C6  UNL     1      23.730   4.845  28.229  1.00  0.00     0.100 A 
HETATM    3  N2  UNL     1      22.532   4.362  28.586  1.00  0.00    -0.364 N 
ATOM      4  H2  UNL     1      22.165   4.362  29.538  1.00  0.00     0.165 HD
HETATM    5  C7  UNL     1      21.880   3.877  27.510  1.00  0.00     0.087 A 
HETATM    6  C8  UNL     1      22.721   4.071  26.439  1.00  0.00     0.069 A 
HETATM    7  N3  UNL     1      22.306   3.653  25.152  1.00  0.00    -0.350 N 
ATOM      8  H3  UNL     1      22.921   3.792  24.349  1.00  0.00     0.166 HD
HETATM    9  C9  UNL     1      21.154   3.099  24.991  1.00  0.00     0.178 A 
HETATM   10  N4  UNL     1      20.236   2.869  26.051  1.00  0.00    -0.354 N 
ATOM     11  H4  UNL     1      19.343   2.420  25.847  1.00  0.00     0.162 HD
HETATM   12  C10 UNL     1      20.536   3.255  27.411  1.00  0.00     0.335 A 
ENDROOT
BRANCH   1  13
HETATM   13  C4  UNL     1      25.028   5.039  25.981  1.00  0.00     0.254 C 
HETATM   14  N1  UNL     1      24.903   6.409  25.481  1.00  0.00    -0.057 N 
HETATM   15  C3  UNL     1      25.737   6.317  24.300  1.00  0.00     0.227 C 
ATOM     16  H12 UNL     1      25.144   7.148  26.142  1.00  0.00     0.278 HD
ATOM     17  H11 UNL     1      23.951   6.744  25.331  1.00  0.00     0.278 HD
HETATM   18  C12 UNL     1      25.090   5.120  23.624  1.00  0.00     0.180 C 
HETATM   19  C11 UNL     1      25.149   4.133  24.800  1.00  0.00     0.184 C 
BRANCH  15  20
HETATM   20  C2  UNL     1      25.708   7.550  23.453  1.00  0.00     0.109 C 
BRANCH  20  21
HETATM   21  S1  UNL     1      24.390   8.686  23.969  1.00  0.00    -0.171 SA
HETATM   22  C1  UNL     1      23.019   8.572  22.774  1.00  0.00     0.089 C 
ENDBRANCH  20  21
ENDBRANCH  15  20
BRANCH  18  23
HETATM   23  O2  UNL     1      25.780   4.670  22.527  1.00  0.00    -0.391 OA
ATOM     24  H2  UNL     1      25.415   3.880  22.147  1.00  0.00     0.210 HD
ENDBRANCH  18  23
BRANCH  19  25
HETATM   25  O1  UNL     1      26.443   3.572  24.709  1.00  0.00    -0.390 OA
ATOM     26  H1  UNL     1      26.956   3.988  24.027  1.00  0.00     0.210 HD
ENDBRANCH  19  25
ENDBRANCH   1  13
BRANCH  12  27
HETATM   27  N5  UNL     1      20.418   2.168  28.360  1.00  0.00    -0.053 N 
ATOM     28  H53 UNL     1      21.015   2.307  29.175  1.00  0.00     0.277 HD
ATOM     29  H52 UNL     1      19.514   2.170  28.832  1.00  0.00     0.277 HD
ATOM     30  H51 UNL     1      20.605   1.277  27.898  1.00  0.00     0.277 HD
ENDBRANCH  12  27
TORSDOF 6
ENDMDL
