MODEL 2
REMARK VINA RESULT: -5.568982646      2.814      5.991
REMARK  6 active torsions:
REMARK  status: ('A' for Active; 'I' for Inactive)
REMARK    1  A    between atoms: S1_2  and  C2_3 
REMARK    2  A    between atoms: C2_3  and  C3_4 
REMARK    3  A    between atoms: C4_8  and  C5_9 
REMARK    4  A    between atoms: C10_20  and  N5_21 
REMARK    5  A    between atoms: C11_25  and  O1_26 
REMARK    6  A    between atoms: C12_28  and  O2_29 
ROOT
HETATM    1  C5  UNL     1      24.617   7.279  23.785  1.00  0.00     0.019 A 
HETATM    2  C6  UNL     1      25.799   7.926  24.076  1.00  0.00     0.100 A 
HETATM    3  N2  UNL     1      25.655   9.236  23.832  1.00  0.00    -0.364 N 
ATOM      4  H2  UNL     1      26.385   9.937  23.967  1.00  0.00     0.165 HD
HETATM    5  C7  UNL     1      24.410   9.498  23.384  1.00  0.00     0.087 A 
HETATM    6  C8  UNL     1      23.758   8.287  23.352  1.00  0.00     0.069 A 
HETATM    7  N3  UNL     1      22.411   8.241  22.920  1.00  0.00    -0.350 N 
ATOM      8  H3  UNL     1      21.916   7.349  22.891  1.00  0.00     0.166 HD
HETATM    9  C9  UNL     1      21.809   9.323  22.562  1.00  0.00     0.178 A 
HETATM   10  N4  UNL     1      22.421  10.605  22.569  1.00  0.00    -0.354 N 
ATOM     11  H4  UNL     1      21.878  11.416  22.276  1.00  0.00     0.162 HD
HETATM   12  C10 UNL     1      23.794  10.787  22.982  1.00  0.00     0.335 A 
ENDROOT
BRANCH   1  13
HETATM   13  C4  UNL     1      24.245   5.847  23.879  1.00  0.00     0.254 C 
HETATM   14  N1  UNL     1      23.425   5.586  25.063  1.00  0.00    -0.057 N 
HETATM   15  C3  UNL     1      23.661   4.164  25.215  1.00  0.00     0.227 C 
ATOM     16  H12 UNL     1      22.448   5.872  25.000  1.00  0.00     0.278 HD
ATOM     17  H11 UNL     1      23.624   6.162  25.880  1.00  0.00     0.278 HD
HETATM   18  C12 UNL     1      25.180   4.159  25.235  1.00  0.00     0.180 C 
HETATM   19  C11 UNL     1      25.428   4.938  23.935  1.00  0.00     0.184 C 
BRANCH  15  20
HETATM   20  C2  UNL     1      23.060   3.591  26.461  1.00  0.00     0.109 C 
BRANCH  20  21
HETATM   21  S1  UNL     1      21.265   3.377  26.302  1.00  0.00    -0.171 SA
HETATM   22  C1  UNL     1      20.514   3.487  27.958  1.00  0.00     0.089 C 
ENDBRANCH  20  21
ENDBRANCH  15  20
BRANCH  18  23
HETATM   23  O2  UNL     1      25.724   2.900  25.203  1.00  0.00    -0.391 OA
ATOM     24  H2  UNL     1      25.758   2.523  24.332  1.00  0.00     0.210 HD
ENDBRANCH  18  23
BRANCH  19  25
HETATM   25  O1  UNL     1      25.369   3.950  22.927  1.00  0.00    -0.390 OA
ATOM     26  H1  UNL     1      25.442   3.076  23.292  1.00  0.00     0.210 HD
ENDBRANCH  19  25
ENDBRANCH   1  13
BRANCH  12  27
HETATM   27  N5  UNL     1      23.956  11.767  24.034  1.00  0.00    -0.053 N 
ATOM     28  H53 UNL     1      23.563  11.445  24.919  1.00  0.00     0.277 HD
ATOM     29  H52 UNL     1      24.929  11.856  24.326  1.00  0.00     0.277 HD
ATOM     30  H51 UNL     1      23.561  12.662  23.745  1.00  0.00     0.277 HD
ENDBRANCH  12  27
TORSDOF 6
ENDMDL
