MODEL 4
REMARK VINA RESULT: -5.076758035      3.253      6.695
REMARK  6 active torsions:
REMARK  status: ('A' for Active; 'I' for Inactive)
REMARK    1  A    between atoms: S1_2  and  C2_3 
REMARK    2  A    between atoms: C2_3  and  C3_4 
REMARK    3  A    between atoms: C4_8  and  C5_9 
REMARK    4  A    between atoms: C10_20  and  N5_21 
REMARK    5  A    between atoms: C11_25  and  O1_26 
REMARK    6  A    between atoms: C12_28  and  O2_29 
ROOT
HETATM    1  C5  UNL     1      23.595   8.206  23.041  1.00  0.00     0.019 A 
HETATM    2  C6  UNL     1      22.415   8.460  22.376  1.00  0.00     0.100 A 
HETATM    3  N2  UNL     1      22.217   9.785  22.319  1.00  0.00    -0.364 N 
ATOM      4  H2  UNL     1      21.415  10.235  21.878  1.00  0.00     0.165 HD
HETATM    5  C7  UNL     1      23.228  10.438  22.927  1.00  0.00     0.087 A 
HETATM    6  C8  UNL     1      24.089   9.465  23.379  1.00  0.00     0.069 A 
HETATM    7  N3  UNL     1      25.265   9.850  24.067  1.00  0.00    -0.350 N 
ATOM      8  H3  UNL     1      25.912   9.138  24.407  1.00  0.00     0.166 HD
HETATM    9  C9  UNL     1      25.520  11.097  24.265  1.00  0.00     0.178 A 
HETATM   10  N4  UNL     1      24.676  12.153  23.828  1.00  0.00    -0.354 N 
ATOM     11  H4  UNL     1      24.947  13.118  24.018  1.00  0.00     0.162 HD
HETATM   12  C10 UNL     1      23.442  11.894  23.120  1.00  0.00     0.335 A 
ENDROOT
BRANCH   1  13
HETATM   13  C4  UNL     1      24.269   6.928  23.371  1.00  0.00     0.254 C 
HETATM   14  N1  UNL     1      23.906   6.463  24.710  1.00  0.00    -0.057 N 
HETATM   15  C3  UNL     1      25.032   5.592  24.981  1.00  0.00     0.227 C 
ATOM     16  H12 UNL     1      22.982   6.039  24.799  1.00  0.00     0.278 HD
ATOM     17  H11 UNL     1      23.727   7.190  25.402  1.00  0.00     0.278 HD
HETATM   18  C12 UNL     1      26.172   6.560  24.715  1.00  0.00     0.180 C 
HETATM   19  C11 UNL     1      25.758   7.020  23.309  1.00  0.00     0.184 C 
BRANCH  15  20
HETATM   20  C2  UNL     1      25.043   5.049  26.375  1.00  0.00     0.109 C 
BRANCH  20  21
HETATM   21  S1  UNL     1      23.918   3.635  26.552  1.00  0.00    -0.171 SA
HETATM   22  C1  UNL     1      22.565   4.102  27.680  1.00  0.00     0.089 C 
ENDBRANCH  20  21
ENDBRANCH  15  20
BRANCH  18  23
HETATM   23  O2  UNL     1      27.409   5.968  24.729  1.00  0.00    -0.391 OA
ATOM     24  H2  UNL     1      28.044   6.429  25.266  1.00  0.00     0.210 HD
ENDBRANCH  18  23
BRANCH  19  25
HETATM   25  O1  UNL     1      26.303   6.037  22.454  1.00  0.00    -0.390 OA
ATOM     26  H1  UNL     1      27.063   6.364  21.988  1.00  0.00     0.210 HD
ENDBRANCH  19  25
ENDBRANCH   1  13
BRANCH  12  27
HETATM   27  N5  UNL     1      23.347  12.585  21.852  1.00  0.00    -0.053 N 
ATOM     28  H53 UNL     1      24.192  12.471  21.292  1.00  0.00     0.277 HD
ATOM     29  H52 UNL     1      22.686  12.132  21.220  1.00  0.00     0.277 HD
ATOM     30  H51 UNL     1      23.119  13.567  22.003  1.00  0.00     0.277 HD
ENDBRANCH  12  27
TORSDOF 6
ENDMDL
