MODEL 2
REMARK VINA RESULT: -9.355489066      2.612     11.403
REMARK  17 active torsions:
REMARK  status: ('A' for Active; 'I' for Inactive)
REMARK    1  A    between atoms: O1_2  and  C2_3 
REMARK    2  A    between atoms: C5_6  and  S1_7 
REMARK    3  A    between atoms: S1_7  and  N1_10 
REMARK    4  A    between atoms: N1_10  and  C6_11 
REMARK    5  A    between atoms: N1_10  and  C10_15 
REMARK    6  A    between atoms: C6_11  and  C7_12 
REMARK    7  A    between atoms: C10_15  and  C11_16 
REMARK    8  A    between atoms: C11_16  and  O4_17 
REMARK    9  A    between atoms: C11_16  and  C12_19 
REMARK   10  A    between atoms: C12_19  and  C13_20 
REMARK   11  A    between atoms: C12_19  and  N2_27 
REMARK   12  A    between atoms: C13_20  and  C14_21 
REMARK   13  A    between atoms: C21_29  and  C22_30 
REMARK   14  A    between atoms: C22_30  and  O5_31 
REMARK   15  A    between atoms: O5_31  and  C23_32 
REMARK       I    between atoms: C23_32  and  N3_34 
REMARK   16  A    between atoms: N3_34  and  C24_36 
REMARK   17  A    between atoms: C32_44  and  O7_45 
ROOT
HETATM    1  C12 UNL     1     -10.374  16.120  25.256  1.00  0.00     0.147 C 
ENDROOT
BRANCH   1   2
HETATM    2  C11 UNL     1     -11.204  15.369  26.221  1.00  0.00     0.182 C 
BRANCH   2   3
HETATM    3  C10 UNL     1     -10.482  14.541  27.252  1.00  0.00     0.110 C 
BRANCH   3   4
HETATM    4  N1  UNL     1     -10.829  14.725  28.597  1.00  0.00    -0.283 N 
BRANCH   4   5
HETATM    5  S1  UNL     1      -9.963  15.828  29.510  1.00  0.00     0.264 S 
HETATM    6  O2  UNL     1      -8.485  15.816  29.120  1.00  0.00    -0.200 OA
HETATM    7  O3  UNL     1     -10.383  17.277  29.306  1.00  0.00    -0.200 OA
BRANCH   5   8
HETATM    8  C5  UNL     1     -10.053  15.499  31.239  1.00  0.00     0.080 A 
HETATM    9  C4  UNL     1     -11.176  15.784  31.978  1.00  0.00     0.028 A 
HETATM   10  C3  UNL     1     -11.203  15.515  33.352  1.00  0.00     0.038 A 
HETATM   11  C2  UNL     1     -10.108  14.968  33.966  1.00  0.00     0.068 A 
HETATM   12  C34 UNL     1      -8.991  14.687  33.216  1.00  0.00     0.038 A 
HETATM   13  C33 UNL     1      -8.969  14.952  31.867  1.00  0.00     0.028 A 
BRANCH  11  14
HETATM   14  O1  UNL     1     -10.110  14.689  35.345  1.00  0.00    -0.356 OA
HETATM   15  C1  UNL     1     -11.087  13.792  35.887  1.00  0.00     0.210 C 
ENDBRANCH  11  14
ENDBRANCH   5   8
ENDBRANCH   4   5
BRANCH   4  16
HETATM   16  C6  UNL     1     -11.311  13.622  29.334  1.00  0.00     0.144 C 
BRANCH  16  17
HETATM   17  C7  UNL     1     -12.752  13.262  29.193  1.00  0.00    -0.004 C 
HETATM   18  C8  UNL     1     -13.741  14.303  29.581  1.00  0.00     0.011 C 
HETATM   19  C9  UNL     1     -13.065  11.985  29.994  1.00  0.00     0.011 C 
ENDBRANCH  16  17
ENDBRANCH   4  16
ENDBRANCH   3   4
ENDBRANCH   2   3
BRANCH   2  20
HETATM   20  O4  UNL     1     -12.134  16.161  26.895  1.00  0.00    -0.388 OA
ATOM     21  H4  UNL     1     -12.991  15.779  26.752  1.00  0.00     0.210 HD
ENDBRANCH   2  20
ENDBRANCH   1   2
BRANCH   1  22
HETATM   22  C13 UNL     1      -9.288  15.261  24.632  1.00  0.00     0.068 C 
BRANCH  22  23
HETATM   23  C14 UNL     1      -9.063  15.477  23.211  1.00  0.00    -0.056 A 
HETATM   24  C15 UNL     1      -9.923  16.198  22.398  1.00  0.00     0.007 A 
HETATM   25  C16 UNL     1      -9.726  16.395  21.052  1.00  0.00     0.001 A 
HETATM   26  C17 UNL     1      -8.596  15.837  20.479  1.00  0.00     0.000 A 
HETATM   27  C18 UNL     1      -7.712  15.111  21.250  1.00  0.00     0.001 A 
HETATM   28  C19 UNL     1      -7.943  14.929  22.620  1.00  0.00     0.007 A 
ENDBRANCH  22  23
ENDBRANCH   1  22
BRANCH   1  29
HETATM   29  N2  UNL     1      -9.680  17.250  25.874  1.00  0.00    -0.279 N 
HETATM   30  C20 UNL     1      -8.344  17.299  26.022  1.00  0.00     0.141 A 
HETATM   31  C21 UNL     1      -8.017  18.484  26.644  1.00  0.00     0.068 A 
HETATM   32  N4  UNL     1      -9.187  19.108  26.848  1.00  0.00    -0.287 N 
HETATM   33  N5  UNL     1     -10.161  18.348  26.378  1.00  0.00    -0.240 N 
ATOM     34  H4  UNL     1      -9.305  20.019  27.292  1.00  0.00     0.188 HD
ATOM     35  H5  UNL     1     -11.152  18.588  26.407  1.00  0.00     0.208 HD
BRANCH  31  36
HETATM   36  C22 UNL     1      -6.642  18.904  26.977  1.00  0.00     0.240 C 
BRANCH  36  37
HETATM   37  O5  UNL     1      -5.687  18.286  26.131  1.00  0.00    -0.298 OA
BRANCH  37  38
HETATM   38  C23 UNL     1      -5.230  18.876  24.987  1.00  0.00     0.361 C 
HETATM   39  O6  UNL     1      -4.953  20.105  24.989  1.00  0.00    -0.238 OA
HETATM   40  N3  UNL     1      -5.030  18.198  23.757  1.00  0.00    -0.326 N 
ATOM     41  H3  UNL     1      -5.238  17.201  23.697  1.00  0.00     0.165 HD
BRANCH  40  42
HETATM   42  C24 UNL     1      -4.537  18.892  22.582  1.00  0.00     0.149 C 
HETATM   43  C25 UNL     1      -4.937  18.286  21.310  1.00  0.00    -0.026 A 
HETATM   44  C26 UNL     1      -6.008  18.472  20.464  1.00  0.00     0.010 A 
HETATM   45  C30 UNL     1      -4.014  17.337  20.906  1.00  0.00    -0.047 A 
HETATM   46  C27 UNL     1      -6.162  17.768  19.292  1.00  0.00     0.001 A 
HETATM   47  C28 UNL     1      -5.237  16.825  18.900  1.00  0.00     0.001 A 
HETATM   48  C29 UNL     1      -4.150  16.621  19.738  1.00  0.00     0.008 A 
HETATM   49  C31 UNL     1      -2.951  17.283  21.939  1.00  0.00     0.073 C 
HETATM   50  C32 UNL     1      -3.005  18.676  22.525  1.00  0.00     0.149 C 
BRANCH  50  51
HETATM   51  O7  UNL     1      -2.461  19.631  21.675  1.00  0.00    -0.393 OA
ATOM     52  H7  UNL     1      -2.277  19.217  20.840  1.00  0.00     0.210 HD
ENDBRANCH  50  51
ENDBRANCH  40  42
ENDBRANCH  37  38
ENDBRANCH  36  37
ENDBRANCH  31  36
ENDBRANCH   1  29
TORSDOF 17
ENDMDL
