MODEL 5
REMARK VINA RESULT: -9.072416992      3.085     11.098
REMARK  17 active torsions:
REMARK  status: ('A' for Active; 'I' for Inactive)
REMARK    1  A    between atoms: O1_2  and  C2_3 
REMARK    2  A    between atoms: C5_6  and  S1_7 
REMARK    3  A    between atoms: S1_7  and  N1_10 
REMARK    4  A    between atoms: N1_10  and  C6_11 
REMARK    5  A    between atoms: N1_10  and  C10_15 
REMARK    6  A    between atoms: C6_11  and  C7_12 
REMARK    7  A    between atoms: C10_15  and  C11_16 
REMARK    8  A    between atoms: C11_16  and  O4_17 
REMARK    9  A    between atoms: C11_16  and  C12_19 
REMARK   10  A    between atoms: C12_19  and  C13_20 
REMARK   11  A    between atoms: C12_19  and  N2_27 
REMARK   12  A    between atoms: C13_20  and  C14_21 
REMARK   13  A    between atoms: C21_29  and  C22_30 
REMARK   14  A    between atoms: C22_30  and  O5_31 
REMARK   15  A    between atoms: O5_31  and  C23_32 
REMARK       I    between atoms: C23_32  and  N3_34 
REMARK   16  A    between atoms: N3_34  and  C24_36 
REMARK   17  A    between atoms: C32_44  and  O7_45 
ROOT
HETATM    1  C12 UNL     1     -10.070  16.187  24.957  1.00  0.00     0.147 C 
ENDROOT
BRANCH   1   2
HETATM    2  C11 UNL     1      -9.453  17.371  25.589  1.00  0.00     0.182 C 
BRANCH   2   3
HETATM    3  C10 UNL     1      -8.015  17.663  25.251  1.00  0.00     0.110 C 
BRANCH   3   4
HETATM    4  N1  UNL     1      -7.023  16.978  25.965  1.00  0.00    -0.283 N 
BRANCH   4   5
HETATM    5  S1  UNL     1      -6.781  17.359  27.576  1.00  0.00     0.264 S 
HETATM    6  O2  UNL     1      -5.397  16.905  28.041  1.00  0.00    -0.200 OA
HETATM    7  O3  UNL     1      -6.795  18.851  27.876  1.00  0.00    -0.200 OA
BRANCH   5   8
HETATM    8  C5  UNL     1      -7.967  16.604  28.639  1.00  0.00     0.080 A 
HETATM    9  C4  UNL     1      -9.014  17.309  29.181  1.00  0.00     0.028 A 
HETATM   10  C3  UNL     1      -9.930  16.673  30.029  1.00  0.00     0.038 A 
HETATM   11  C2  UNL     1      -9.783  15.344  30.323  1.00  0.00     0.068 A 
HETATM   12  C34 UNL     1      -8.732  14.649  29.775  1.00  0.00     0.038 A 
HETATM   13  C33 UNL     1      -7.836  15.277  28.942  1.00  0.00     0.028 A 
BRANCH  11  14
HETATM   14  O1  UNL     1     -10.689  14.681  31.172  1.00  0.00    -0.356 OA
HETATM   15  C1  UNL     1     -11.675  15.437  31.887  1.00  0.00     0.210 C 
ENDBRANCH  11  14
ENDBRANCH   5   8
ENDBRANCH   4   5
BRANCH   4  16
HETATM   16  C6  UNL     1      -5.853  16.571  25.288  1.00  0.00     0.144 C 
BRANCH  16  17
HETATM   17  C7  UNL     1      -5.000  17.627  24.669  1.00  0.00    -0.004 C 
HETATM   18  C8  UNL     1      -5.108  17.794  23.196  1.00  0.00     0.011 C 
HETATM   19  C9  UNL     1      -3.519  17.388  25.015  1.00  0.00     0.011 C 
ENDBRANCH  16  17
ENDBRANCH   4  16
ENDBRANCH   3   4
ENDBRANCH   2   3
BRANCH   2  20
HETATM   20  O4  UNL     1     -10.176  18.549  25.396  1.00  0.00    -0.388 OA
ATOM     21  H4  UNL     1     -11.093  18.312  25.320  1.00  0.00     0.210 HD
ENDBRANCH   2  20
ENDBRANCH   1   2
BRANCH   1  22
HETATM   22  C13 UNL     1      -9.929  14.936  25.806  1.00  0.00     0.068 C 
BRANCH  22  23
HETATM   23  C14 UNL     1     -11.004  14.705  26.758  1.00  0.00    -0.056 A 
HETATM   24  C15 UNL     1     -11.925  15.672  27.126  1.00  0.00     0.007 A 
HETATM   25  C16 UNL     1     -12.935  15.467  28.035  1.00  0.00     0.001 A 
HETATM   26  C17 UNL     1     -13.034  14.213  28.615  1.00  0.00     0.000 A 
HETATM   27  C18 UNL     1     -12.139  13.219  28.279  1.00  0.00     0.001 A 
HETATM   28  C19 UNL     1     -11.120  13.462  27.348  1.00  0.00     0.007 A 
ENDBRANCH  22  23
ENDBRANCH   1  22
BRANCH   1  29
HETATM   29  N2  UNL     1      -9.463  15.861  23.666  1.00  0.00    -0.279 N 
HETATM   30  C20 UNL     1      -9.831  16.447  22.513  1.00  0.00     0.141 A 
HETATM   31  C21 UNL     1      -9.078  15.910  21.491  1.00  0.00     0.068 A 
HETATM   32  N4  UNL     1      -8.277  15.010  22.081  1.00  0.00    -0.287 N 
HETATM   33  N5  UNL     1      -8.530  15.003  23.378  1.00  0.00    -0.240 N 
ATOM     34  H4  UNL     1      -7.587  14.428  21.606  1.00  0.00     0.188 HD
ATOM     35  H5  UNL     1      -8.058  14.407  24.059  1.00  0.00     0.208 HD
BRANCH  31  36
HETATM   36  C22 UNL     1      -9.189  16.303  20.073  1.00  0.00     0.240 C 
BRANCH  36  37
HETATM   37  O5  UNL     1      -8.752  17.634  19.863  1.00  0.00    -0.298 OA
BRANCH  37  38
HETATM   38  C23 UNL     1      -7.439  17.953  19.664  1.00  0.00     0.361 C 
HETATM   39  O6  UNL     1      -6.865  18.746  20.459  1.00  0.00    -0.238 OA
HETATM   40  N3  UNL     1      -6.640  17.449  18.607  1.00  0.00    -0.326 N 
ATOM     41  H3  UNL     1      -7.052  16.803  17.933  1.00  0.00     0.165 HD
BRANCH  40  42
HETATM   42  C24 UNL     1      -5.247  17.833  18.462  1.00  0.00     0.149 C 
HETATM   43  C25 UNL     1      -4.609  17.337  17.240  1.00  0.00    -0.026 A 
HETATM   44  C26 UNL     1      -4.455  17.853  15.972  1.00  0.00     0.010 A 
HETATM   45  C30 UNL     1      -4.048  16.089  17.450  1.00  0.00    -0.047 A 
HETATM   46  C27 UNL     1      -3.791  17.182  14.971  1.00  0.00     0.001 A 
HETATM   47  C28 UNL     1      -3.238  15.940  15.191  1.00  0.00     0.001 A 
HETATM   48  C29 UNL     1      -3.381  15.401  16.461  1.00  0.00     0.008 A 
HETATM   49  C31 UNL     1      -4.320  15.711  18.858  1.00  0.00     0.073 C 
HETATM   50  C32 UNL     1      -4.440  17.059  19.532  1.00  0.00     0.149 C 
BRANCH  50  51
HETATM   51  O7  UNL     1      -3.210  17.686  19.689  1.00  0.00    -0.393 OA
ATOM     52  H7  UNL     1      -2.795  17.746  18.836  1.00  0.00     0.210 HD
ENDBRANCH  50  51
ENDBRANCH  40  42
ENDBRANCH  37  38
ENDBRANCH  36  37
ENDBRANCH  31  36
ENDBRANCH   1  29
TORSDOF 17
ENDMDL
