MODEL 3
REMARK VINA RESULT: -9.224943402      2.908     11.984
REMARK  17 active torsions:
REMARK  status: ('A' for Active; 'I' for Inactive)
REMARK    1  A    between atoms: O1_2  and  C2_3 
REMARK    2  A    between atoms: C5_6  and  S1_7 
REMARK    3  A    between atoms: S1_7  and  N1_10 
REMARK    4  A    between atoms: N1_10  and  C6_11 
REMARK    5  A    between atoms: N1_10  and  C10_15 
REMARK    6  A    between atoms: C6_11  and  C7_12 
REMARK    7  A    between atoms: C10_15  and  C11_16 
REMARK    8  A    between atoms: C11_16  and  O4_17 
REMARK    9  A    between atoms: C11_16  and  C12_19 
REMARK   10  A    between atoms: C12_19  and  C13_20 
REMARK   11  A    between atoms: C12_19  and  N2_27 
REMARK   12  A    between atoms: C13_20  and  C14_21 
REMARK   13  A    between atoms: C21_29  and  C22_30 
REMARK   14  A    between atoms: C22_30  and  O5_31 
REMARK   15  A    between atoms: O5_31  and  C23_32 
REMARK       I    between atoms: C23_32  and  N3_34 
REMARK   16  A    between atoms: N3_34  and  C24_36 
REMARK   17  A    between atoms: C32_44  and  O7_45 
ROOT
HETATM    1  C12 UNL     1      -9.458  16.662  24.339  1.00  0.00     0.147 C 
ENDROOT
BRANCH   1   2
HETATM    2  C11 UNL     1     -10.406  16.166  25.358  1.00  0.00     0.182 C 
BRANCH   2   3
HETATM    3  C10 UNL     1     -10.031  14.906  26.093  1.00  0.00     0.110 C 
BRANCH   3   4
HETATM    4  N1  UNL     1     -10.043  14.939  27.494  1.00  0.00    -0.283 N 
BRANCH   4   5
HETATM    5  S1  UNL     1      -8.584  14.998  28.312  1.00  0.00     0.264 S 
HETATM    6  O2  UNL     1      -7.798  13.702  28.117  1.00  0.00    -0.200 OA
HETATM    7  O3  UNL     1      -7.633  16.080  27.819  1.00  0.00    -0.200 OA
BRANCH   5   8
HETATM    8  C5  UNL     1      -8.787  15.234  30.047  1.00  0.00     0.080 A 
HETATM    9  C4  UNL     1      -9.165  16.444  30.579  1.00  0.00     0.028 A 
HETATM   10  C3  UNL     1      -9.305  16.592  31.964  1.00  0.00     0.038 A 
HETATM   11  C2  UNL     1      -9.065  15.531  32.795  1.00  0.00     0.068 A 
HETATM   12  C34 UNL     1      -8.688  14.326  32.252  1.00  0.00     0.038 A 
HETATM   13  C33 UNL     1      -8.552  14.185  30.891  1.00  0.00     0.028 A 
BRANCH  11  14
HETATM   14  O1  UNL     1      -9.199  15.654  34.191  1.00  0.00    -0.356 OA
HETATM   15  C1  UNL     1     -10.474  15.987  34.755  1.00  0.00     0.210 C 
ENDBRANCH  11  14
ENDBRANCH   5   8
ENDBRANCH   4   5
BRANCH   4  16
HETATM   16  C6  UNL     1     -11.061  14.245  28.183  1.00  0.00     0.144 C 
BRANCH  16  17
HETATM   17  C7  UNL     1     -12.137  15.048  28.834  1.00  0.00    -0.004 C 
HETATM   18  C8  UNL     1     -12.694  14.512  30.104  1.00  0.00     0.011 C 
HETATM   19  C9  UNL     1     -13.306  15.268  27.856  1.00  0.00     0.011 C 
ENDBRANCH  16  17
ENDBRANCH   4  16
ENDBRANCH   3   4
ENDBRANCH   2   3
BRANCH   2  20
HETATM   20  O4  UNL     1     -10.751  17.122  26.314  1.00  0.00    -0.388 OA
ATOM     21  H4  UNL     1     -10.621  17.978  25.922  1.00  0.00     0.210 HD
ENDBRANCH   2  20
ENDBRANCH   1   2
BRANCH   1  22
HETATM   22  C13 UNL     1      -8.813  15.536  23.550  1.00  0.00     0.068 C 
BRANCH  22  23
HETATM   23  C14 UNL     1      -8.605  15.806  22.135  1.00  0.00    -0.056 A 
HETATM   24  C15 UNL     1      -9.559  16.389  21.317  1.00  0.00     0.007 A 
HETATM   25  C16 UNL     1      -9.377  16.635  19.977  1.00  0.00     0.001 A 
HETATM   26  C17 UNL     1      -8.162  16.277  19.416  1.00  0.00     0.000 A 
HETATM   27  C18 UNL     1      -7.183  15.693  20.193  1.00  0.00     0.001 A 
HETATM   28  C19 UNL     1      -7.402  15.456  21.557  1.00  0.00     0.007 A 
ENDBRANCH  22  23
ENDBRANCH   1  22
BRANCH   1  29
HETATM   29  N2  UNL     1      -8.352  17.420  24.924  1.00  0.00    -0.279 N 
HETATM   30  C20 UNL     1      -7.063  17.195  24.614  1.00  0.00     0.141 A 
HETATM   31  C21 UNL     1      -6.281  18.066  25.341  1.00  0.00     0.068 A 
HETATM   32  N4  UNL     1      -7.145  18.790  26.069  1.00  0.00    -0.287 N 
HETATM   33  N5  UNL     1      -8.373  18.382  25.798  1.00  0.00    -0.240 N 
ATOM     34  H4  UNL     1      -6.895  19.533  26.722  1.00  0.00     0.188 HD
ATOM     35  H5  UNL     1      -9.219  18.768  26.217  1.00  0.00     0.208 HD
BRANCH  31  36
HETATM   36  C22 UNL     1      -4.809  18.127  25.272  1.00  0.00     0.240 C 
BRANCH  36  37
HETATM   37  O5  UNL     1      -4.294  17.251  24.285  1.00  0.00    -0.298 OA
BRANCH  37  38
HETATM   38  C23 UNL     1      -3.711  17.701  23.134  1.00  0.00     0.361 C 
HETATM   39  O6  UNL     1      -3.282  18.885  23.078  1.00  0.00    -0.238 OA
HETATM   40  N3  UNL     1      -3.540  16.923  21.961  1.00  0.00    -0.326 N 
ATOM     41  H3  UNL     1      -3.868  15.957  21.950  1.00  0.00     0.165 HD
BRANCH  40  42
HETATM   42  C24 UNL     1      -2.906  17.471  20.776  1.00  0.00     0.149 C 
HETATM   43  C25 UNL     1      -3.625  17.202  19.528  1.00  0.00    -0.026 A 
HETATM   44  C26 UNL     1      -4.594  17.884  18.824  1.00  0.00     0.010 A 
HETATM   45  C30 UNL     1      -3.209  16.007  18.969  1.00  0.00    -0.047 A 
HETATM   46  C27 UNL     1      -5.121  17.417  17.642  1.00  0.00     0.001 A 
HETATM   47  C28 UNL     1      -4.700  16.225  17.095  1.00  0.00     0.001 A 
HETATM   48  C29 UNL     1      -3.725  15.522  17.788  1.00  0.00     0.008 A 
HETATM   49  C31 UNL     1      -2.179  15.431  19.866  1.00  0.00     0.073 C 
HETATM   50  C32 UNL     1      -1.608  16.665  20.529  1.00  0.00     0.149 C 
BRANCH  50  51
HETATM   51  O7  UNL     1      -0.795  17.399  19.674  1.00  0.00    -0.393 OA
ATOM     52  H7  UNL     1      -0.603  18.232  20.088  1.00  0.00     0.210 HD
ENDBRANCH  50  51
ENDBRANCH  40  42
ENDBRANCH  37  38
ENDBRANCH  36  37
ENDBRANCH  31  36
ENDBRANCH   1  29
TORSDOF 17
ENDMDL
