MODEL 20
REMARK VINA RESULT: -8.692042922      2.149      3.652
REMARK  17 active torsions:
REMARK  status: ('A' for Active; 'I' for Inactive)
REMARK    1  A    between atoms: O1_2  and  C2_3 
REMARK    2  A    between atoms: C5_6  and  S1_7 
REMARK    3  A    between atoms: S1_7  and  N1_10 
REMARK    4  A    between atoms: N1_10  and  C6_11 
REMARK    5  A    between atoms: N1_10  and  C10_15 
REMARK    6  A    between atoms: C6_11  and  C7_12 
REMARK    7  A    between atoms: C10_15  and  C11_16 
REMARK    8  A    between atoms: C11_16  and  O4_17 
REMARK    9  A    between atoms: C11_16  and  C12_19 
REMARK   10  A    between atoms: C12_19  and  C13_20 
REMARK   11  A    between atoms: C12_19  and  N2_27 
REMARK   12  A    between atoms: C13_20  and  C14_21 
REMARK   13  A    between atoms: C21_29  and  C22_30 
REMARK   14  A    between atoms: C22_30  and  O5_31 
REMARK   15  A    between atoms: O5_31  and  C23_32 
REMARK       I    between atoms: C23_32  and  N3_34 
REMARK   16  A    between atoms: N3_34  and  C24_36 
REMARK   17  A    between atoms: C32_44  and  O7_45 
ROOT
HETATM    1  C12 UNL     1      -9.985  16.295  26.806  1.00  0.00     0.147 C 
ENDROOT
BRANCH   1   2
HETATM    2  C11 UNL     1      -9.520  17.387  25.927  1.00  0.00     0.182 C 
BRANCH   2   3
HETATM    3  C10 UNL     1      -9.634  17.172  24.440  1.00  0.00     0.110 C 
BRANCH   3   4
HETATM    4  N1  UNL     1      -8.457  16.916  23.724  1.00  0.00    -0.283 N 
BRANCH   4   5
HETATM    5  S1  UNL     1      -8.513  15.849  22.436  1.00  0.00     0.264 S 
HETATM    6  O2  UNL     1      -7.994  14.472  22.847  1.00  0.00    -0.200 OA
HETATM    7  O3  UNL     1      -9.915  15.571  21.914  1.00  0.00    -0.200 OA
BRANCH   5   8
HETATM    8  C5  UNL     1      -7.545  16.389  21.065  1.00  0.00     0.080 A 
HETATM    9  C4  UNL     1      -6.457  15.679  20.617  1.00  0.00     0.028 A 
HETATM   10  C3  UNL     1      -5.708  16.148  19.530  1.00  0.00     0.038 A 
HETATM   11  C2  UNL     1      -6.057  17.317  18.910  1.00  0.00     0.068 A 
HETATM   12  C34 UNL     1      -7.147  18.018  19.367  1.00  0.00     0.038 A 
HETATM   13  C33 UNL     1      -7.880  17.554  20.434  1.00  0.00     0.028 A 
BRANCH  11  14
HETATM   14  O1  UNL     1      -5.321  17.810  17.816  1.00  0.00    -0.356 OA
HETATM   15  C1  UNL     1      -4.609  16.897  16.971  1.00  0.00     0.210 C 
ENDBRANCH  11  14
ENDBRANCH   5   8
ENDBRANCH   4   5
BRANCH   4  16
HETATM   16  C6  UNL     1      -7.225  16.922  24.413  1.00  0.00     0.144 C 
BRANCH  16  17
HETATM   17  C7  UNL     1      -6.300  18.068  24.181  1.00  0.00    -0.004 C 
HETATM   18  C8  UNL     1      -5.036  17.770  23.456  1.00  0.00     0.011 C 
HETATM   19  C9  UNL     1      -5.935  18.740  25.518  1.00  0.00     0.011 C 
ENDBRANCH  16  17
ENDBRANCH   4  16
ENDBRANCH   3   4
ENDBRANCH   2   3
BRANCH   2  20
HETATM   20  O4  UNL     1     -10.098  18.624  26.217  1.00  0.00    -0.388 OA
ATOM     21  H4  UNL     1     -10.272  19.058  25.390  1.00  0.00     0.210 HD
ENDBRANCH   2  20
ENDBRANCH   1   2
BRANCH   1  22
HETATM   22  C13 UNL     1     -11.437  15.927  26.557  1.00  0.00     0.068 C 
BRANCH  22  23
HETATM   23  C14 UNL     1     -11.967  14.871  27.405  1.00  0.00    -0.056 A 
HETATM   24  C15 UNL     1     -12.866  15.092  28.435  1.00  0.00     0.007 A 
HETATM   25  C16 UNL     1     -13.361  14.103  29.251  1.00  0.00     0.001 A 
HETATM   26  C17 UNL     1     -12.931  12.807  29.024  1.00  0.00     0.000 A 
HETATM   27  C18 UNL     1     -12.035  12.539  28.009  1.00  0.00     0.001 A 
HETATM   28  C19 UNL     1     -11.550  13.572  27.196  1.00  0.00     0.007 A 
ENDBRANCH  22  23
ENDBRANCH   1  22
BRANCH   1  29
HETATM   29  N2  UNL     1      -9.902  16.642  28.224  1.00  0.00    -0.279 N 
HETATM   30  C20 UNL     1      -9.346  15.836  29.146  1.00  0.00     0.141 A 
HETATM   31  C21 UNL     1      -9.438  16.450  30.376  1.00  0.00     0.068 A 
HETATM   32  N4  UNL     1     -10.055  17.618  30.140  1.00  0.00    -0.287 N 
HETATM   33  N5  UNL     1     -10.319  17.704  28.847  1.00  0.00    -0.240 N 
ATOM     34  H4  UNL     1     -10.282  18.323  30.841  1.00  0.00     0.188 HD
ATOM     35  H5  UNL     1     -10.785  18.494  28.401  1.00  0.00     0.208 HD
BRANCH  31  36
HETATM   36  C22 UNL     1      -8.935  15.877  31.639  1.00  0.00     0.240 C 
BRANCH  36  37
HETATM   37  O5  UNL     1      -9.440  16.571  32.767  1.00  0.00    -0.298 OA
BRANCH  37  38
HETATM   38  C23 UNL     1     -10.521  16.132  33.476  1.00  0.00     0.361 C 
HETATM   39  O6  UNL     1     -10.847  16.721  34.541  1.00  0.00    -0.238 OA
HETATM   40  N3  UNL     1     -11.337  15.033  33.102  1.00  0.00    -0.326 N 
ATOM     41  H3  UNL     1     -11.121  14.519  32.248  1.00  0.00     0.165 HD
BRANCH  40  42
HETATM   42  C24 UNL     1     -12.473  14.626  33.908  1.00  0.00     0.149 C 
HETATM   43  C25 UNL     1     -12.202  13.504  34.810  1.00  0.00    -0.026 A 
HETATM   44  C26 UNL     1     -11.769  13.419  36.115  1.00  0.00     0.010 A 
HETATM   45  C30 UNL     1     -12.453  12.297  34.182  1.00  0.00    -0.047 A 
HETATM   46  C27 UNL     1     -11.594  12.217  36.764  1.00  0.00     0.001 A 
HETATM   47  C28 UNL     1     -11.846  11.021  36.128  1.00  0.00     0.001 A 
HETATM   48  C29 UNL     1     -12.283  11.085  34.813  1.00  0.00     0.008 A 
HETATM   49  C31 UNL     1     -12.901  12.598  32.802  1.00  0.00     0.073 C 
HETATM   50  C32 UNL     1     -13.507  13.975  32.956  1.00  0.00     0.149 C 
BRANCH  50  51
HETATM   51  O7  UNL     1     -14.736  13.945  33.602  1.00  0.00    -0.393 OA
ATOM     52  H7  UNL     1     -14.656  13.392  34.371  1.00  0.00     0.210 HD
ENDBRANCH  50  51
ENDBRANCH  40  42
ENDBRANCH  37  38
ENDBRANCH  36  37
ENDBRANCH  31  36
ENDBRANCH   1  29
TORSDOF 17
ENDMDL
