MODEL 2
REMARK VINA RESULT: -10.423784831      0.362      1.205
REMARK  7 active torsions:
REMARK  status: ('A' for Active; 'I' for Inactive)
REMARK    1  A    between atoms: O1_2  and  C2_3 
REMARK    2  A    between atoms: C5_6  and  C6_7 
REMARK    3  A    between atoms: C9_10  and  S1_11 
REMARK    4  A    between atoms: S1_11  and  N1_14 
REMARK    5  A    between atoms: N1_14  and  C10_16 
REMARK    6  A    between atoms: C10_16  and  C11_17 
REMARK    7  A    between atoms: C10_16  and  P1_20 
ROOT
HETATM    1  C6  UNL     1       9.204  20.253  12.103  1.00  0.00    -0.026 A 
HETATM    2  C7  UNL     1       8.636  21.489  11.881  1.00  0.00     0.014 A 
HETATM    3  C8  UNL     1       9.106  22.660  12.488  1.00  0.00     0.026 A 
HETATM    4  C9  UNL     1      10.178  22.552  13.337  1.00  0.00     0.079 A 
HETATM    5  C14 UNL     1      10.755  21.325  13.571  1.00  0.00     0.026 A 
HETATM    6  C15 UNL     1      10.280  20.166  12.960  1.00  0.00     0.014 A 
ENDROOT
BRANCH   4   7
HETATM    7  S1  UNL     1      10.820  23.955  14.130  1.00  0.00     0.259 S 
HETATM    8  O2  UNL     1       9.865  25.119  13.959  1.00  0.00    -0.201 OA
HETATM    9  O3  UNL     1      12.077  24.354  13.373  1.00  0.00    -0.201 OA
BRANCH   7  10
HETATM   10  N1  UNL     1      11.262  23.698  15.739  1.00  0.00    -0.297 N 
ATOM     11  H1  UNL     1      11.507  22.779  16.106  1.00  0.00     0.173 HD
BRANCH  10  12
HETATM   12  C10 UNL     1      11.263  24.909  16.562  1.00  0.00     0.226 C 
BRANCH  12  13
HETATM   13  C11 UNL     1      12.727  25.334  16.733  1.00  0.00     0.014 C 
HETATM   14  C12 UNL     1      13.084  26.536  15.933  1.00  0.00     0.012 C 
HETATM   15  C13 UNL     1      13.665  24.189  16.556  1.00  0.00     0.012 C 
ENDBRANCH  12  13
BRANCH  12  16
HETATM   16  P1  UNL     1      10.605  24.738  18.152  1.00  0.00     0.283 P 
HETATM   17  O4  UNL     1       9.207  25.294  17.875  1.00  0.00    -0.638 OA
HETATM   18  O5  UNL     1       9.886  23.269  18.577  1.00  0.00    -0.638 OA
HETATM   19  O6  UNL     1      10.867  25.922  19.283  1.00  0.00    -0.638 OA
ENDBRANCH  12  16
ENDBRANCH  10  12
ENDBRANCH   7  10
ENDBRANCH   4   7
BRANCH   1  20
HETATM   20  C5  UNL     1       8.733  19.023  11.478  1.00  0.00    -0.026 A 
HETATM   21  C4  UNL     1       9.417  17.852  11.718  1.00  0.00     0.015 A 
HETATM   22  C3  UNL     1       9.032  16.628  11.158  1.00  0.00     0.037 A 
HETATM   23  C2  UNL     1       7.925  16.630  10.345  1.00  0.00     0.068 A 
HETATM   24  C17 UNL     1       7.234  17.796  10.100  1.00  0.00     0.037 A 
HETATM   25  C16 UNL     1       7.634  18.989  10.662  1.00  0.00     0.015 A 
BRANCH  23  26
HETATM   26  O1  UNL     1       7.512  15.449   9.775  1.00  0.00    -0.356 OA
HETATM   27  C1  UNL     1       7.649  14.182  10.364  1.00  0.00     0.210 C 
ENDBRANCH  23  26
ENDBRANCH   1  20
TORSDOF 7
ENDMDL
