MODEL 3
REMARK VINA RESULT: -10.377598369      0.138      1.325
REMARK  7 active torsions:
REMARK  status: ('A' for Active; 'I' for Inactive)
REMARK    1  A    between atoms: O1_2  and  C2_3 
REMARK    2  A    between atoms: C5_6  and  C6_7 
REMARK    3  A    between atoms: C9_10  and  S1_11 
REMARK    4  A    between atoms: S1_11  and  N1_14 
REMARK    5  A    between atoms: N1_14  and  C10_16 
REMARK    6  A    between atoms: C10_16  and  C11_17 
REMARK    7  A    between atoms: C10_16  and  P1_20 
ROOT
HETATM    1  C6  UNL     1       9.319  20.235  12.215  1.00  0.00    -0.026 A 
HETATM    2  C7  UNL     1      10.391  20.183  13.080  1.00  0.00     0.014 A 
HETATM    3  C8  UNL     1      10.903  21.318  13.721  1.00  0.00     0.026 A 
HETATM    4  C9  UNL     1      10.298  22.523  13.463  1.00  0.00     0.079 A 
HETATM    5  C14 UNL     1       9.229  22.591  12.601  1.00  0.00     0.026 A 
HETATM    6  C15 UNL     1       8.726  21.454  11.969  1.00  0.00     0.014 A 
ENDROOT
BRANCH   4   7
HETATM    7  S1  UNL     1      10.872  23.976  14.217  1.00  0.00     0.259 S 
HETATM    8  O2  UNL     1       9.884  25.099  13.977  1.00  0.00    -0.201 OA
HETATM    9  O3  UNL     1      12.135  24.389  13.477  1.00  0.00    -0.201 OA
BRANCH   7  10
HETATM   10  N1  UNL     1      11.280  23.796  15.845  1.00  0.00    -0.297 N 
ATOM     11  H1  UNL     1      11.603  22.913  16.241  1.00  0.00     0.173 HD
BRANCH  10  12
HETATM   12  C10 UNL     1      11.130  25.016  16.640  1.00  0.00     0.226 C 
BRANCH  12  13
HETATM   13  C11 UNL     1      12.543  25.548  16.914  1.00  0.00     0.014 C 
HETATM   14  C12 UNL     1      12.885  26.745  16.099  1.00  0.00     0.012 C 
HETATM   15  C13 UNL     1      13.567  24.467  16.860  1.00  0.00     0.012 C 
ENDBRANCH  12  13
BRANCH  12  16
HETATM   16  P1  UNL     1      10.364  24.822  18.179  1.00  0.00     0.283 P 
HETATM   17  O4  UNL     1      10.055  23.327  18.085  1.00  0.00    -0.638 OA
HETATM   18  O5  UNL     1      11.328  24.491  19.527  1.00  0.00    -0.638 OA
HETATM   19  O6  UNL     1       8.749  25.161  18.343  1.00  0.00    -0.638 OA
ENDBRANCH  12  16
ENDBRANCH  10  12
ENDBRANCH   7  10
ENDBRANCH   4   7
BRANCH   1  20
HETATM   20  C5  UNL     1       8.769  19.065  11.540  1.00  0.00    -0.026 A 
HETATM   21  C4  UNL     1       9.372  17.842  11.733  1.00  0.00     0.015 A 
HETATM   22  C3  UNL     1       8.908  16.670  11.124  1.00  0.00     0.037 A 
HETATM   23  C2  UNL     1       7.808  16.778  10.310  1.00  0.00     0.068 A 
HETATM   24  C17 UNL     1       7.196  17.997  10.111  1.00  0.00     0.037 A 
HETATM   25  C16 UNL     1       7.673  19.137  10.722  1.00  0.00     0.015 A 
BRANCH  23  26
HETATM   26  O1  UNL     1       7.318  15.652   9.693  1.00  0.00    -0.356 OA
HETATM   27  C1  UNL     1       7.501  14.339  10.155  1.00  0.00     0.210 C 
ENDBRANCH  23  26
ENDBRANCH   1  20
TORSDOF 7
ENDMDL
