MODEL 1
REMARK VINA RESULT: -10.539953096      0.000      0.000
REMARK  7 active torsions:
REMARK  status: ('A' for Active; 'I' for Inactive)
REMARK    1  A    between atoms: O1_2  and  C2_3 
REMARK    2  A    between atoms: C5_6  and  C6_7 
REMARK    3  A    between atoms: C9_10  and  S1_11 
REMARK    4  A    between atoms: S1_11  and  N1_14 
REMARK    5  A    between atoms: N1_14  and  C10_16 
REMARK    6  A    between atoms: C10_16  and  C11_17 
REMARK    7  A    between atoms: C10_16  and  P1_20 
ROOT
HETATM    1  C6  UNL     1       9.237  20.205  12.149  1.00  0.00    -0.026 A 
HETATM    2  C7  UNL     1       8.643  21.426  11.913  1.00  0.00     0.014 A 
HETATM    3  C8  UNL     1       9.085  22.613  12.511  1.00  0.00     0.026 A 
HETATM    4  C9  UNL     1      10.156  22.535  13.365  1.00  0.00     0.079 A 
HETATM    5  C14 UNL     1      10.759  21.324  13.612  1.00  0.00     0.026 A 
HETATM    6  C15 UNL     1      10.311  20.149  13.011  1.00  0.00     0.014 A 
ENDROOT
BRANCH   4   7
HETATM    7  S1  UNL     1      10.765  23.960  14.148  1.00  0.00     0.259 S 
HETATM    8  O2  UNL     1       9.816  25.116  13.911  1.00  0.00    -0.201 OA
HETATM    9  O3  UNL     1      12.050  24.343  13.430  1.00  0.00    -0.201 OA
BRANCH   7  10
HETATM   10  N1  UNL     1      11.145  23.743  15.778  1.00  0.00    -0.297 N 
ATOM     11  H1  UNL     1      11.391  22.837  16.174  1.00  0.00     0.173 HD
BRANCH  10  12
HETATM   12  C10 UNL     1      11.091  24.971  16.575  1.00  0.00     0.226 C 
BRANCH  12  13
HETATM   13  C11 UNL     1      12.539  25.425  16.795  1.00  0.00     0.014 C 
HETATM   14  C12 UNL     1      12.906  26.621  15.990  1.00  0.00     0.012 C 
HETATM   15  C13 UNL     1      13.504  24.296  16.676  1.00  0.00     0.012 C 
ENDBRANCH  12  13
BRANCH  12  16
HETATM   16  P1  UNL     1      10.372  24.820  18.140  1.00  0.00     0.283 P 
HETATM   17  O4  UNL     1      10.020  23.332  18.080  1.00  0.00    -0.638 OA
HETATM   18  O5  UNL     1      11.370  24.483  19.461  1.00  0.00    -0.638 OA
HETATM   19  O6  UNL     1       8.772  25.203  18.352  1.00  0.00    -0.638 OA
ENDBRANCH  12  16
ENDBRANCH  10  12
ENDBRANCH   7  10
ENDBRANCH   4   7
BRANCH   1  20
HETATM   20  C5  UNL     1       8.794  18.960  11.534  1.00  0.00    -0.026 A 
HETATM   21  C4  UNL     1       7.694  18.982  10.706  1.00  0.00     0.015 A 
HETATM   22  C3  UNL     1       7.204  17.832  10.075  1.00  0.00     0.037 A 
HETATM   23  C2  UNL     1       7.867  16.654  10.313  1.00  0.00     0.068 A 
HETATM   24  C17 UNL     1       8.969  16.621  11.140  1.00  0.00     0.037 A 
HETATM   25  C16 UNL     1       9.432  17.768  11.750  1.00  0.00     0.015 A 
BRANCH  23  26
HETATM   26  O1  UNL     1       7.420  15.501   9.714  1.00  0.00    -0.356 OA
HETATM   27  C1  UNL     1       7.559  14.211  10.249  1.00  0.00     0.210 C 
ENDBRANCH  23  26
ENDBRANCH   1  20
TORSDOF 7
ENDMDL
