MODEL 4
REMARK VINA RESULT: -10.283653218      0.411      1.194
REMARK  7 active torsions:
REMARK  status: ('A' for Active; 'I' for Inactive)
REMARK    1  A    between atoms: O1_2  and  C2_3 
REMARK    2  A    between atoms: C5_6  and  C6_7 
REMARK    3  A    between atoms: C9_10  and  S1_11 
REMARK    4  A    between atoms: S1_11  and  N1_14 
REMARK    5  A    between atoms: N1_14  and  C10_16 
REMARK    6  A    between atoms: C10_16  and  C11_17 
REMARK    7  A    between atoms: C10_16  and  P1_20 
ROOT
HETATM    1  C6  UNL     1       9.160  20.150  12.040  1.00  0.00    -0.026 A 
HETATM    2  C7  UNL     1       8.580  21.374  11.785  1.00  0.00     0.014 A 
HETATM    3  C8  UNL     1       9.023  22.562  12.381  1.00  0.00     0.026 A 
HETATM    4  C9  UNL     1      10.080  22.482  13.253  1.00  0.00     0.079 A 
HETATM    5  C14 UNL     1      10.667  21.267  13.519  1.00  0.00     0.026 A 
HETATM    6  C15 UNL     1      10.219  20.091  12.919  1.00  0.00     0.014 A 
ENDROOT
BRANCH   4   7
HETATM    7  S1  UNL     1      10.688  23.907  14.034  1.00  0.00     0.259 S 
HETATM    8  O2  UNL     1       9.794  25.086  13.710  1.00  0.00    -0.201 OA
HETATM    9  O3  UNL     1      12.026  24.229  13.387  1.00  0.00    -0.201 OA
BRANCH   7  10
HETATM   10  N1  UNL     1      10.960  23.724  15.690  1.00  0.00    -0.297 N 
ATOM     11  H1  UNL     1      11.231  22.837  16.112  1.00  0.00     0.173 HD
BRANCH  10  12
HETATM   12  C10 UNL     1      10.774  24.951  16.468  1.00  0.00     0.226 C 
BRANCH  12  13
HETATM   13  C11 UNL     1      12.111  25.703  16.443  1.00  0.00     0.014 C 
HETATM   14  C12 UNL     1      13.287  24.812  16.633  1.00  0.00     0.012 C 
HETATM   15  C13 UNL     1      12.100  26.891  17.343  1.00  0.00     0.012 C 
ENDBRANCH  12  13
BRANCH  12  16
HETATM   16  P1  UNL     1      10.357  24.730  18.131  1.00  0.00     0.283 P 
HETATM   17  O4  UNL     1       9.765  23.324  18.027  1.00  0.00    -0.638 OA
HETATM   18  O5  UNL     1      11.524  24.111  19.184  1.00  0.00    -0.638 OA
HETATM   19  O6  UNL     1       8.911  25.311  18.701  1.00  0.00    -0.638 OA
ENDBRANCH  12  16
ENDBRANCH  10  12
ENDBRANCH   7  10
ENDBRANCH   4   7
BRANCH   1  20
HETATM   20  C5  UNL     1       8.717  18.903  11.427  1.00  0.00    -0.026 A 
HETATM   21  C4  UNL     1       9.433  17.753  11.670  1.00  0.00     0.015 A 
HETATM   22  C3  UNL     1       9.077  16.515  11.122  1.00  0.00     0.037 A 
HETATM   23  C2  UNL     1       7.965  16.481  10.317  1.00  0.00     0.068 A 
HETATM   24  C17 UNL     1       7.241  17.627  10.069  1.00  0.00     0.037 A 
HETATM   25  C16 UNL     1       7.613  18.835  10.620  1.00  0.00     0.015 A 
BRANCH  23  26
HETATM   26  O1  UNL     1       7.579  15.286   9.759  1.00  0.00    -0.356 OA
HETATM   27  C1  UNL     1       7.640  14.041  10.405  1.00  0.00     0.210 C 
ENDBRANCH  23  26
ENDBRANCH   1  20
TORSDOF 7
ENDMDL
