MODEL 7
REMARK VINA RESULT: -9.806845127      1.135      1.611
REMARK  7 active torsions:
REMARK  status: ('A' for Active; 'I' for Inactive)
REMARK    1  A    between atoms: O1_2  and  C2_3 
REMARK    2  A    between atoms: C5_6  and  C6_7 
REMARK    3  A    between atoms: C9_10  and  S1_11 
REMARK    4  A    between atoms: S1_11  and  N1_14 
REMARK    5  A    between atoms: N1_14  and  C10_16 
REMARK    6  A    between atoms: C10_16  and  C11_17 
REMARK    7  A    between atoms: C10_16  and  P1_20 
ROOT
HETATM    1  C6  UNL     1       9.685  21.232  12.504  1.00  0.00    -0.026 A 
HETATM    2  C7  UNL     1       9.012  22.432  12.579  1.00  0.00     0.014 A 
HETATM    3  C8  UNL     1       9.586  23.592  13.115  1.00  0.00     0.026 A 
HETATM    4  C9  UNL     1      10.875  23.508  13.579  1.00  0.00     0.079 A 
HETATM    5  C14 UNL     1      11.560  22.318  13.513  1.00  0.00     0.026 A 
HETATM    6  C15 UNL     1      10.978  21.169  12.977  1.00  0.00     0.014 A 
ENDROOT
BRANCH   4   7
HETATM    7  S1  UNL     1      11.659  24.900  14.259  1.00  0.00     0.259 S 
HETATM    8  O2  UNL     1      10.751  26.106  14.137  1.00  0.00    -0.201 OA
HETATM    9  O3  UNL     1      12.856  25.209  13.373  1.00  0.00    -0.201 OA
BRANCH   7  10
HETATM   10  N1  UNL     1      12.240  24.668  15.826  1.00  0.00    -0.297 N 
ATOM     11  H1  UNL     1      13.060  24.100  16.035  1.00  0.00     0.173 HD
BRANCH  10  12
HETATM   12  C10 UNL     1      11.464  25.356  16.861  1.00  0.00     0.226 C 
BRANCH  12  13
HETATM   13  C11 UNL     1      12.400  26.380  17.515  1.00  0.00     0.014 C 
HETATM   14  C12 UNL     1      11.735  27.679  17.805  1.00  0.00     0.012 C 
HETATM   15  C13 UNL     1      13.689  26.511  16.778  1.00  0.00     0.012 C 
ENDBRANCH  12  13
BRANCH  12  16
HETATM   16  P1  UNL     1      10.854  24.355  18.132  1.00  0.00     0.283 P 
HETATM   17  O4  UNL     1      11.243  22.995  17.551  1.00  0.00    -0.638 OA
HETATM   18  O5  UNL     1      11.853  24.025  19.454  1.00  0.00    -0.638 OA
HETATM   19  O6  UNL     1       9.255  23.912  18.135  1.00  0.00    -0.638 OA
ENDBRANCH  12  16
ENDBRANCH  10  12
ENDBRANCH   7  10
ENDBRANCH   4   7
BRANCH   1  20
HETATM   20  C5  UNL     1       9.107  20.015  11.947  1.00  0.00    -0.026 A 
HETATM   21  C4  UNL     1       9.681  18.803  12.261  1.00  0.00     0.015 A 
HETATM   22  C3  UNL     1       9.188  17.588  11.770  1.00  0.00     0.037 A 
HETATM   23  C2  UNL     1       8.091  17.642  10.947  1.00  0.00     0.068 A 
HETATM   24  C17 UNL     1       7.509  18.849  10.628  1.00  0.00     0.037 A 
HETATM   25  C16 UNL     1       8.013  20.033  11.124  1.00  0.00     0.015 A 
BRANCH  23  26
HETATM   26  O1  UNL     1       7.574  16.472  10.443  1.00  0.00    -0.356 OA
HETATM   27  C1  UNL     1       8.124  15.197  10.647  1.00  0.00     0.210 C 
ENDBRANCH  23  26
ENDBRANCH   1  20
TORSDOF 7
ENDMDL
