MODEL 1
REMARK VINA RESULT: -10.524180426      0.000      0.000
REMARK  7 active torsions:
REMARK  status: ('A' for Active; 'I' for Inactive)
REMARK    1  A    between atoms: O1_2  and  C2_3 
REMARK    2  A    between atoms: C5_6  and  C6_7 
REMARK    3  A    between atoms: C9_10  and  S1_11 
REMARK    4  A    between atoms: S1_11  and  N1_14 
REMARK    5  A    between atoms: N1_14  and  C10_16 
REMARK    6  A    between atoms: C10_16  and  C11_17 
REMARK    7  A    between atoms: C10_16  and  P1_20 
ROOT
HETATM    1  C6  UNL     1      -1.041  22.036   5.946  1.00  0.00    -0.026 A 
HETATM    2  C7  UNL     1      -0.383  21.508   7.037  1.00  0.00     0.014 A 
HETATM    3  C8  UNL     1      -0.604  21.945   8.334  1.00  0.00     0.026 A 
HETATM    4  C9  UNL     1      -1.521  22.955   8.566  1.00  0.00     0.079 A 
HETATM    5  C14 UNL     1      -2.180  23.490   7.499  1.00  0.00     0.026 A 
HETATM    6  C15 UNL     1      -1.957  23.050   6.199  1.00  0.00     0.014 A 
ENDROOT
BRANCH   4   7
HETATM    7  S1  UNL     1      -1.790  23.499  10.221  1.00  0.00     0.259 S 
HETATM    8  O2  UNL     1      -3.002  22.841  10.744  1.00  0.00    -0.201 OA
HETATM    9  O3  UNL     1      -0.618  22.927  11.013  1.00  0.00    -0.201 OA
BRANCH   7  10
HETATM   10  N1  UNL     1      -1.733  25.166  10.385  1.00  0.00    -0.297 N 
ATOM     11  H1  UNL     1      -0.852  25.661  10.526  1.00  0.00     0.173 HD
BRANCH  10  12
HETATM   12  C10 UNL     1      -3.006  25.871  10.317  1.00  0.00     0.226 C 
BRANCH  12  13
HETATM   13  C11 UNL     1      -3.430  26.180  11.721  1.00  0.00     0.014 C 
HETATM   14  C12 UNL     1      -4.922  25.948  11.836  1.00  0.00     0.012 C 
HETATM   15  C13 UNL     1      -3.128  27.568  12.165  1.00  0.00     0.012 C 
ENDBRANCH  12  13
BRANCH  12  16
HETATM   16  P1  UNL     1      -3.016  27.324   9.389  1.00  0.00     0.283 P 
HETATM   17  O4  UNL     1      -1.539  28.153   9.180  1.00  0.00    -0.638 OA
HETATM   18  O5  UNL     1      -2.798  26.793   7.976  1.00  0.00    -0.638 OA
HETATM   19  O6  UNL     1      -4.433  28.023   8.946  1.00  0.00    -0.638 OA
ENDBRANCH  12  16
ENDBRANCH  10  12
ENDBRANCH   7  10
ENDBRANCH   4   7
BRANCH   1  20
HETATM   20  C5  UNL     1      -0.762  21.532   4.613  1.00  0.00    -0.026 A 
HETATM   21  C4  UNL     1      -1.344  22.085   3.495  1.00  0.00     0.015 A 
HETATM   22  C3  UNL     1      -1.065  21.586   2.217  1.00  0.00     0.037 A 
HETATM   23  C2  UNL     1      -0.202  20.528   2.045  1.00  0.00     0.068 A 
HETATM   24  C17 UNL     1       0.380  19.976   3.166  1.00  0.00     0.037 A 
HETATM   25  C16 UNL     1       0.097  20.477   4.418  1.00  0.00     0.015 A 
BRANCH  23  26
HETATM   26  O1  UNL     1       0.071  20.037   0.781  1.00  0.00    -0.356 OA
HETATM   27  C1  UNL     1      -0.779  20.405  -0.286  1.00  0.00     0.210 C 
ENDBRANCH  23  26
ENDBRANCH   1  20
TORSDOF 7
ENDMDL
