MODEL 6
REMARK VINA RESULT: -9.878302545      0.755      1.336
REMARK  7 active torsions:
REMARK  status: ('A' for Active; 'I' for Inactive)
REMARK    1  A    between atoms: O1_2  and  C2_3 
REMARK    2  A    between atoms: C5_6  and  C6_7 
REMARK    3  A    between atoms: C9_10  and  S1_11 
REMARK    4  A    between atoms: S1_11  and  N1_14 
REMARK    5  A    between atoms: N1_14  and  C10_16 
REMARK    6  A    between atoms: C10_16  and  C11_17 
REMARK    7  A    between atoms: C10_16  and  P1_20 
ROOT
HETATM    1  C6  UNL     1      -0.993  21.999   6.031  1.00  0.00    -0.026 A 
HETATM    2  C7  UNL     1      -1.919  22.999   6.245  1.00  0.00     0.014 A 
HETATM    3  C8  UNL     1      -2.203  23.505   7.505  1.00  0.00     0.026 A 
HETATM    4  C9  UNL     1      -1.539  22.999   8.608  1.00  0.00     0.079 A 
HETATM    5  C14 UNL     1      -0.622  22.009   8.416  1.00  0.00     0.026 A 
HETATM    6  C15 UNL     1      -0.338  21.503   7.152  1.00  0.00     0.014 A 
ENDROOT
BRANCH   4   7
HETATM    7  S1  UNL     1      -1.912  23.653  10.202  1.00  0.00     0.259 S 
HETATM    8  O2  UNL     1      -3.255  23.191  10.602  1.00  0.00    -0.201 OA
HETATM    9  O3  UNL     1      -0.927  22.968  11.143  1.00  0.00    -0.201 OA
BRANCH   7  10
HETATM   10  N1  UNL     1      -1.641  25.303  10.318  1.00  0.00    -0.297 N 
ATOM     11  H1  UNL     1      -0.717  25.707  10.167  1.00  0.00     0.173 HD
BRANCH  10  12
HETATM   12  C10 UNL     1      -2.795  26.130  10.645  1.00  0.00     0.226 C 
BRANCH  12  13
HETATM   13  C11 UNL     1      -2.330  27.213  11.572  1.00  0.00     0.014 C 
HETATM   14  C12 UNL     1      -3.477  27.589  12.486  1.00  0.00     0.012 C 
HETATM   15  C13 UNL     1      -1.841  28.442  10.890  1.00  0.00     0.012 C 
ENDBRANCH  12  13
BRANCH  12  16
HETATM   16  P1  UNL     1      -3.616  26.845   9.307  1.00  0.00     0.283 P 
HETATM   17  O4  UNL     1      -2.885  26.740   7.768  1.00  0.00    -0.638 OA
HETATM   18  O5  UNL     1      -4.512  25.700   8.844  1.00  0.00    -0.638 OA
HETATM   19  O6  UNL     1      -4.918  27.815   9.547  1.00  0.00    -0.638 OA
ENDBRANCH  12  16
ENDBRANCH  10  12
ENDBRANCH   7  10
ENDBRANCH   4   7
BRANCH   1  20
HETATM   20  C5  UNL     1      -0.744  21.515   4.685  1.00  0.00    -0.026 A 
HETATM   21  C4  UNL     1      -1.358  22.078   3.589  1.00  0.00     0.015 A 
HETATM   22  C3  UNL     1      -1.106  21.597   2.299  1.00  0.00     0.037 A 
HETATM   23  C2  UNL     1      -0.239  20.548   2.091  1.00  0.00     0.068 A 
HETATM   24  C17 UNL     1       0.373  19.986   3.190  1.00  0.00     0.037 A 
HETATM   25  C16 UNL     1       0.118  20.468   4.455  1.00  0.00     0.015 A 
BRANCH  23  26
HETATM   26  O1  UNL     1       0.005  20.077   0.814  1.00  0.00    -0.356 OA
HETATM   27  C1  UNL     1      -0.911  20.394  -0.212  1.00  0.00     0.210 C 
ENDBRANCH  23  26
ENDBRANCH   1  20
TORSDOF 7
ENDMDL
