MODEL 3
REMARK VINA RESULT: -10.270066165      1.203      1.628
REMARK  7 active torsions:
REMARK  status: ('A' for Active; 'I' for Inactive)
REMARK    1  A    between atoms: O1_2  and  C2_3 
REMARK    2  A    between atoms: C5_6  and  C6_7 
REMARK    3  A    between atoms: C9_10  and  S1_11 
REMARK    4  A    between atoms: S1_11  and  N1_14 
REMARK    5  A    between atoms: N1_14  and  C10_16 
REMARK    6  A    between atoms: C10_16  and  C11_17 
REMARK    7  A    between atoms: C10_16  and  P1_20 
ROOT
HETATM    1  C6  UNL     1      -1.253  22.367   6.525  1.00  0.00    -0.026 A 
HETATM    2  C7  UNL     1      -2.167  23.401   6.526  1.00  0.00     0.014 A 
HETATM    3  C8  UNL     1      -2.587  24.033   7.687  1.00  0.00     0.026 A 
HETATM    4  C9  UNL     1      -2.079  23.625   8.908  1.00  0.00     0.079 A 
HETATM    5  C14 UNL     1      -1.175  22.604   8.926  1.00  0.00     0.026 A 
HETATM    6  C15 UNL     1      -0.755  21.972   7.761  1.00  0.00     0.014 A 
ENDROOT
BRANCH   4   7
HETATM    7  S1  UNL     1      -2.623  24.439  10.373  1.00  0.00     0.259 S 
HETATM    8  O2  UNL     1      -4.098  24.447  10.390  1.00  0.00    -0.201 OA
HETATM    9  O3  UNL     1      -2.189  23.521  11.512  1.00  0.00    -0.201 OA
BRANCH   7  10
HETATM   10  N1  UNL     1      -1.879  25.920  10.620  1.00  0.00    -0.297 N 
ATOM     11  H1  UNL     1      -0.866  26.006  10.693  1.00  0.00     0.173 HD
BRANCH  10  12
HETATM   12  C10 UNL     1      -2.757  27.079  10.726  1.00  0.00     0.226 C 
BRANCH  12  13
HETATM   13  C11 UNL     1      -3.437  27.014  12.060  1.00  0.00     0.014 C 
HETATM   14  C12 UNL     1      -4.894  27.378  11.876  1.00  0.00     0.012 C 
HETATM   15  C13 UNL     1      -2.850  27.907  13.096  1.00  0.00     0.012 C 
ENDBRANCH  12  13
BRANCH  12  16
HETATM   16  P1  UNL     1      -1.998  28.618  10.550  1.00  0.00     0.283 P 
HETATM   17  O4  UNL     1      -0.343  28.747  10.943  1.00  0.00    -0.638 OA
HETATM   18  O5  UNL     1      -1.544  28.577   9.095  1.00  0.00    -0.638 OA
HETATM   19  O6  UNL     1      -2.895  29.964  10.269  1.00  0.00    -0.638 OA
ENDBRANCH  12  16
ENDBRANCH  10  12
ENDBRANCH   7  10
ENDBRANCH   4   7
BRANCH   1  20
HETATM   20  C5  UNL     1      -0.856  21.749   5.273  1.00  0.00    -0.026 A 
HETATM   21  C4  UNL     1      -1.365  22.170   4.065  1.00  0.00     0.015 A 
HETATM   22  C3  UNL     1      -0.972  21.562   2.868  1.00  0.00     0.037 A 
HETATM   23  C2  UNL     1      -0.066  20.525   2.865  1.00  0.00     0.068 A 
HETATM   24  C17 UNL     1       0.442  20.105   4.075  1.00  0.00     0.037 A 
HETATM   25  C16 UNL     1       0.047  20.712   5.247  1.00  0.00     0.015 A 
BRANCH  23  26
HETATM   26  O1  UNL     1       0.319  19.927   1.679  1.00  0.00    -0.356 OA
HETATM   27  C1  UNL     1      -0.242  20.396   0.470  1.00  0.00     0.210 C 
ENDBRANCH  23  26
ENDBRANCH   1  20
TORSDOF 7
ENDMDL
