MODEL 2
REMARK VINA RESULT: -10.291530647      1.307      1.934
REMARK  7 active torsions:
REMARK  status: ('A' for Active; 'I' for Inactive)
REMARK    1  A    between atoms: O1_2  and  C2_3 
REMARK    2  A    between atoms: C5_6  and  C6_7 
REMARK    3  A    between atoms: C9_10  and  S1_11 
REMARK    4  A    between atoms: S1_11  and  N1_14 
REMARK    5  A    between atoms: N1_14  and  C10_16 
REMARK    6  A    between atoms: C10_16  and  C11_17 
REMARK    7  A    between atoms: C10_16  and  P1_20 
ROOT
HETATM    1  C6  UNL     1      -1.258  22.405   6.500  1.00  0.00    -0.026 A 
HETATM    2  C7  UNL     1      -2.204  23.408   6.535  1.00  0.00     0.014 A 
HETATM    3  C8  UNL     1      -2.613  24.017   7.711  1.00  0.00     0.026 A 
HETATM    4  C9  UNL     1      -2.060  23.617   8.914  1.00  0.00     0.079 A 
HETATM    5  C14 UNL     1      -1.123  22.627   8.900  1.00  0.00     0.026 A 
HETATM    6  C15 UNL     1      -0.714  22.017   7.719  1.00  0.00     0.014 A 
ENDROOT
BRANCH   4   7
HETATM    7  S1  UNL     1      -2.590  24.402  10.400  1.00  0.00     0.259 S 
HETATM    8  O2  UNL     1      -4.065  24.397  10.438  1.00  0.00    -0.201 OA
HETATM    9  O3  UNL     1      -2.131  23.470  11.517  1.00  0.00    -0.201 OA
BRANCH   7  10
HETATM   10  N1  UNL     1      -1.856  25.886  10.661  1.00  0.00    -0.297 N 
ATOM     11  H1  UNL     1      -0.845  25.975  10.759  1.00  0.00     0.173 HD
BRANCH  10  12
HETATM   12  C10 UNL     1      -2.739  27.043  10.741  1.00  0.00     0.226 C 
BRANCH  12  13
HETATM   13  C11 UNL     1      -3.452  26.981  12.058  1.00  0.00     0.014 C 
HETATM   14  C12 UNL     1      -4.903  27.351  11.838  1.00  0.00     0.012 C 
HETATM   15  C13 UNL     1      -2.887  27.872  13.108  1.00  0.00     0.012 C 
ENDBRANCH  12  13
BRANCH  12  16
HETATM   16  P1  UNL     1      -1.980  28.584  10.579  1.00  0.00     0.283 P 
HETATM   17  O4  UNL     1      -0.333  28.717  11.006  1.00  0.00    -0.638 OA
HETATM   18  O5  UNL     1      -1.495  28.542   9.133  1.00  0.00    -0.638 OA
HETATM   19  O6  UNL     1      -2.874  29.927  10.278  1.00  0.00    -0.638 OA
ENDBRANCH  12  16
ENDBRANCH  10  12
ENDBRANCH   7  10
ENDBRANCH   4   7
BRANCH   1  20
HETATM   20  C5  UNL     1      -0.875  21.808   5.233  1.00  0.00    -0.026 A 
HETATM   21  C4  UNL     1       0.063  20.803   5.162  1.00  0.00     0.015 A 
HETATM   22  C3  UNL     1       0.422  20.240   3.932  1.00  0.00     0.037 A 
HETATM   23  C2  UNL     1      -0.153  20.678   2.760  1.00  0.00     0.068 A 
HETATM   24  C17 UNL     1      -1.090  21.685   2.834  1.00  0.00     0.037 A 
HETATM   25  C16 UNL     1      -1.435  22.230   4.051  1.00  0.00     0.015 A 
BRANCH  23  26
HETATM   26  O1  UNL     1       0.205  20.119   1.547  1.00  0.00    -0.356 OA
HETATM   27  C1  UNL     1       0.870  18.872   1.544  1.00  0.00     0.210 C 
ENDBRANCH  23  26
ENDBRANCH   1  20
TORSDOF 7
ENDMDL
