MODEL 19
REMARK VINA RESULT: -8.842240738      1.872      2.746
REMARK  7 active torsions:
REMARK  status: ('A' for Active; 'I' for Inactive)
REMARK    1  A    between atoms: O1_2  and  C2_3 
REMARK    2  A    between atoms: C5_6  and  C6_7 
REMARK    3  A    between atoms: C9_10  and  S1_11 
REMARK    4  A    between atoms: S1_11  and  N1_14 
REMARK    5  A    between atoms: N1_14  and  C10_16 
REMARK    6  A    between atoms: C10_16  and  C11_17 
REMARK    7  A    between atoms: C10_16  and  P1_20 
ROOT
HETATM    1  C6  UNL     1      -1.826  22.989   7.563  1.00  0.00    -0.026 A 
HETATM    2  C7  UNL     1      -2.517  24.168   7.370  1.00  0.00     0.014 A 
HETATM    3  C8  UNL     1      -3.115  24.868   8.407  1.00  0.00     0.026 A 
HETATM    4  C9  UNL     1      -3.026  24.380   9.699  1.00  0.00     0.079 A 
HETATM    5  C14 UNL     1      -2.348  23.217   9.908  1.00  0.00     0.026 A 
HETATM    6  C15 UNL     1      -1.748  22.516   8.867  1.00  0.00     0.014 A 
ENDROOT
BRANCH   4   7
HETATM    7  S1  UNL     1      -3.792  25.283  11.005  1.00  0.00     0.259 S 
HETATM    8  O2  UNL     1      -5.099  25.779  10.535  1.00  0.00    -0.201 OA
HETATM    9  O3  UNL     1      -4.092  24.237  12.075  1.00  0.00    -0.201 OA
BRANCH   7  10
HETATM   10  N1  UNL     1      -2.781  26.425  11.700  1.00  0.00    -0.297 N 
ATOM     11  H1  UNL     1      -2.216  26.213  12.522  1.00  0.00     0.173 HD
BRANCH  10  12
HETATM   12  C10 UNL     1      -2.751  27.738  11.067  1.00  0.00     0.226 C 
BRANCH  12  13
HETATM   13  C11 UNL     1      -3.143  28.750  12.100  1.00  0.00     0.014 C 
HETATM   14  C12 UNL     1      -2.955  28.136  13.471  1.00  0.00     0.012 C 
HETATM   15  C13 UNL     1      -4.545  29.238  11.985  1.00  0.00     0.012 C 
ENDBRANCH  12  13
BRANCH  12  16
HETATM   16  P1  UNL     1      -1.246  28.202  10.363  1.00  0.00     0.283 P 
HETATM   17  O4  UNL     1      -0.673  27.306   9.028  1.00  0.00    -0.638 OA
HETATM   18  O5  UNL     1      -1.689  29.244   9.341  1.00  0.00    -0.638 OA
HETATM   19  O6  UNL     1      -0.276  29.294  11.111  1.00  0.00    -0.638 OA
ENDBRANCH  12  16
ENDBRANCH  10  12
ENDBRANCH   7  10
ENDBRANCH   4   7
BRANCH   1  20
HETATM   20  C5  UNL     1      -1.223  22.306   6.432  1.00  0.00    -0.026 A 
HETATM   21  C4  UNL     1      -1.567  22.613   5.135  1.00  0.00     0.015 A 
HETATM   22  C3  UNL     1      -0.976  21.944   4.057  1.00  0.00     0.037 A 
HETATM   23  C2  UNL     1      -0.037  20.960   4.265  1.00  0.00     0.068 A 
HETATM   24  C17 UNL     1       0.305  20.654   5.564  1.00  0.00     0.037 A 
HETATM   25  C16 UNL     1      -0.283  21.320   6.617  1.00  0.00     0.015 A 
BRANCH  23  26
HETATM   26  O1  UNL     1       0.544  20.301   3.196  1.00  0.00    -0.356 OA
HETATM   27  C1  UNL     1      -0.275  19.917   2.111  1.00  0.00     0.210 C 
ENDBRANCH  23  26
ENDBRANCH   1  20
TORSDOF 7
ENDMDL
