MODEL 16
REMARK VINA RESULT: -9.072436347      2.835      9.386
REMARK  14 active torsions:
REMARK  status: ('A' for Active; 'I' for Inactive)
REMARK    1  A    between atoms: C3_3  and  C5_5 
REMARK    2  A    between atoms: C6_6  and  C7_7 
REMARK    3  A    between atoms: C8_8  and  C9_9 
REMARK    4  A    between atoms: C9_9  and  O1_10 
REMARK    5  A    between atoms: C9_9  and  C11_12 
REMARK    6  A    between atoms: C11_12  and  C13_14 
REMARK    7  A    between atoms: C13_14  and  O2_15 
REMARK    8  A    between atoms: C13_14  and  C15_17 
REMARK    9  A    between atoms: C15_17  and  C17_19 
REMARK   10  A    between atoms: C17_19  and  C18_20 
REMARK   11  A    between atoms: C18_20  and  C19_21 
REMARK   12  A    between atoms: C21_24  and  O4_25 
REMARK   13  A    between atoms: C22_27  and  O5_28 
REMARK   14  A    between atoms: C25_31  and  O6_32 
ROOT
HETATM    1  C17 UNL     1      62.532  86.009  63.452  1.00  0.00    -0.015 C 
ENDROOT
BRANCH   1   2
HETATM    2  C15 UNL     1      62.449  86.251  62.005  1.00  0.00    -0.058 C 
HETATM    3  C16 UNL     1      63.253  87.494  61.640  1.00  0.00     0.046 C 
BRANCH   2   4
HETATM    4  C13 UNL     1      61.255  85.999  61.232  1.00  0.00     0.155 C 
BRANCH   4   5
HETATM    5  C11 UNL     1      61.432  85.471  59.814  1.00  0.00     0.047 C 
HETATM    6  C12 UNL     1      62.180  84.159  59.800  1.00  0.00     0.016 C 
BRANCH   5   7
HETATM    7  C9  UNL     1      61.931  86.375  58.778  1.00  0.00     0.150 C 
BRANCH   7   8
HETATM    8  C8  UNL     1      61.146  86.387  57.522  1.00  0.00     0.005 C 
HETATM    9  C7  UNL     1      61.548  85.637  56.518  1.00  0.00    -0.001 C 
BRANCH   9  10
HETATM   10  C6  UNL     1      60.827  85.595  55.246  1.00  0.00     0.000 C 
HETATM   11  C5  UNL     1      61.254  84.799  54.291  1.00  0.00     0.006 C 
BRANCH  11  12
HETATM   12  C3  UNL     1      60.586  84.714  53.013  1.00  0.00    -0.066 C 
HETATM   13  C2  UNL     1      61.300  84.692  51.882  1.00  0.00    -0.024 C 
HETATM   14  C1  UNL     1      60.584  84.604  50.589  1.00  0.00     0.036 C 
HETATM   15  C4  UNL     1      59.112  84.648  52.908  1.00  0.00     0.048 C 
ENDBRANCH  11  12
ENDBRANCH   9  10
ENDBRANCH   7   8
BRANCH   7  16
HETATM   16  O1  UNL     1      63.214  85.888  58.417  1.00  0.00    -0.386 OA
HETATM   17  C10 UNL     1      64.020  86.899  57.951  1.00  0.00     0.202 C 
ENDBRANCH   7  16
ENDBRANCH   5   7
ENDBRANCH   4   5
BRANCH   4  18
HETATM   18  O2  UNL     1      60.464  84.965  61.805  1.00  0.00    -0.386 OA
HETATM   19  C14 UNL     1      59.113  85.145  61.584  1.00  0.00     0.202 C 
ENDBRANCH   4  18
ENDBRANCH   2   4
ENDBRANCH   1   2
BRANCH   1  20
HETATM   20  C18 UNL     1      63.540  85.183  64.122  1.00  0.00     0.093 C 
BRANCH  20  21
HETATM   21  C19 UNL     1      63.526  83.732  63.867  1.00  0.00     0.067 A 
HETATM   22  O3  UNL     1      62.338  83.133  63.631  1.00  0.00    -0.310 OA
HETATM   23  C20 UNL     1      62.216  81.860  63.403  1.00  0.00     0.128 A 
HETATM   24  C21 UNL     1      60.962  81.297  63.166  1.00  0.00     0.134 A 
HETATM   25  C27 UNL     1      63.292  81.003  63.382  1.00  0.00     0.085 A 
HETATM   26  C22 UNL     1      60.825  79.944  62.922  1.00  0.00     0.106 A 
HETATM   27  C24 UNL     1      61.939  79.122  62.911  1.00  0.00     0.077 A 
HETATM   28  C25 UNL     1      63.180  79.648  63.141  1.00  0.00     0.088 A 
HETATM   29  C28 UNL     1      64.519  81.543  63.612  1.00  0.00     0.196 A 
HETATM   30  O7  UNL     1      65.541  80.811  63.605  1.00  0.00    -0.287 OA
HETATM   31  C29 UNL     1      64.599  82.923  63.852  1.00  0.00     0.019 A 
HETATM   32  C30 UNL     1      65.979  83.420  64.035  1.00  0.00     0.055 C 
BRANCH  24  33
HETATM   33  O4  UNL     1      59.839  82.107  63.174  1.00  0.00    -0.356 OA
ATOM     34  H4  UNL     1      58.987  81.726  63.000  1.00  0.00     0.218 HD
ENDBRANCH  24  33
BRANCH  26  35
HETATM   35  O5  UNL     1      59.597  79.348  62.683  1.00  0.00    -0.353 OA
HETATM   36  C23 UNL     1      59.126  78.257  63.411  1.00  0.00     0.210 C 
ENDBRANCH  26  35
BRANCH  28  37
HETATM   37  O6  UNL     1      64.342  78.895  63.147  1.00  0.00    -0.355 OA
HETATM   38  C26 UNL     1      64.306  77.527  62.877  1.00  0.00     0.210 C 
ENDBRANCH  28  37
ENDBRANCH  20  21
ENDBRANCH   1  20
TORSDOF 14
ENDMDL
