MODEL 15
REMARK VINA RESULT: -9.073318168      2.839      9.512
REMARK  14 active torsions:
REMARK  status: ('A' for Active; 'I' for Inactive)
REMARK    1  A    between atoms: C3_3  and  C5_5 
REMARK    2  A    between atoms: C6_6  and  C7_7 
REMARK    3  A    between atoms: C8_8  and  C9_9 
REMARK    4  A    between atoms: C9_9  and  O1_10 
REMARK    5  A    between atoms: C9_9  and  C11_12 
REMARK    6  A    between atoms: C11_12  and  C13_14 
REMARK    7  A    between atoms: C13_14  and  O2_15 
REMARK    8  A    between atoms: C13_14  and  C15_17 
REMARK    9  A    between atoms: C15_17  and  C17_19 
REMARK   10  A    between atoms: C17_19  and  C18_20 
REMARK   11  A    between atoms: C18_20  and  C19_21 
REMARK   12  A    between atoms: C21_24  and  O4_25 
REMARK   13  A    between atoms: C22_27  and  O5_28 
REMARK   14  A    between atoms: C25_31  and  O6_32 
ROOT
HETATM    1  C17 UNL     1      61.159  85.383  63.719  1.00  0.00    -0.015 C 
ENDROOT
BRANCH   1   2
HETATM    2  C15 UNL     1      60.935  85.817  62.333  1.00  0.00    -0.058 C 
HETATM    3  C16 UNL     1      59.575  85.326  61.848  1.00  0.00     0.046 C 
BRANCH   2   4
HETATM    4  C13 UNL     1      61.990  85.884  61.349  1.00  0.00     0.155 C 
BRANCH   4   5
HETATM    5  C11 UNL     1      61.661  85.433  59.932  1.00  0.00     0.047 C 
HETATM    6  C12 UNL     1      62.137  84.022  59.673  1.00  0.00     0.016 C 
BRANCH   5   7
HETATM    7  C9  UNL     1      61.991  86.315  58.812  1.00  0.00     0.150 C 
BRANCH   7   8
HETATM    8  C8  UNL     1      61.111  86.187  57.629  1.00  0.00     0.005 C 
HETATM    9  C7  UNL     1      61.638  85.794  56.489  1.00  0.00    -0.001 C 
BRANCH   9  10
HETATM   10  C6  UNL     1      60.833  85.643  55.275  1.00  0.00     0.000 C 
HETATM   11  C5  UNL     1      61.314  84.950  54.267  1.00  0.00     0.006 C 
BRANCH  11  12
HETATM   12  C3  UNL     1      60.569  84.766  53.044  1.00  0.00    -0.066 C 
HETATM   13  C2  UNL     1      61.211  84.686  51.873  1.00  0.00    -0.024 C 
HETATM   14  C1  UNL     1      60.416  84.497  50.637  1.00  0.00     0.036 C 
HETATM   15  C4  UNL     1      59.094  84.661  53.038  1.00  0.00     0.048 C 
ENDBRANCH  11  12
ENDBRANCH   9  10
ENDBRANCH   7   8
BRANCH   7  16
HETATM   16  O1  UNL     1      63.280  85.920  58.368  1.00  0.00    -0.386 OA
HETATM   17  C10 UNL     1      64.086  87.011  58.139  1.00  0.00     0.202 C 
ENDBRANCH   7  16
ENDBRANCH   5   7
ENDBRANCH   4   5
BRANCH   4  18
HETATM   18  O2  UNL     1      62.406  87.224  61.113  1.00  0.00    -0.386 OA
HETATM   19  C14 UNL     1      63.574  87.542  61.778  1.00  0.00     0.202 C 
ENDBRANCH   4  18
ENDBRANCH   2   4
ENDBRANCH   1   2
BRANCH   1  20
HETATM   20  C18 UNL     1      62.408  84.832  64.249  1.00  0.00     0.093 C 
BRANCH  20  21
HETATM   21  C19 UNL     1      62.728  83.426  63.942  1.00  0.00     0.067 A 
HETATM   22  O3  UNL     1      61.720  82.527  63.924  1.00  0.00    -0.310 OA
HETATM   23  C20 UNL     1      61.897  81.265  63.673  1.00  0.00     0.128 A 
HETATM   24  C21 UNL     1      60.817  80.383  63.668  1.00  0.00     0.134 A 
HETATM   25  C27 UNL     1      63.134  80.728  63.401  1.00  0.00     0.085 A 
HETATM   26  C22 UNL     1      60.997  79.039  63.401  1.00  0.00     0.106 A 
HETATM   27  C24 UNL     1      62.263  78.547  63.133  1.00  0.00     0.077 A 
HETATM   28  C25 UNL     1      63.339  79.390  63.131  1.00  0.00     0.088 A 
HETATM   29  C28 UNL     1      64.194  81.581  63.402  1.00  0.00     0.196 A 
HETATM   30  O7  UNL     1      65.349  81.151  63.161  1.00  0.00    -0.287 OA
HETATM   31  C29 UNL     1      63.952  82.935  63.679  1.00  0.00     0.019 A 
HETATM   32  C30 UNL     1      65.157  83.787  63.602  1.00  0.00     0.055 C 
BRANCH  24  33
HETATM   33  O4  UNL     1      59.545  80.862  63.935  1.00  0.00    -0.356 OA
ATOM     34  H4  UNL     1      58.835  80.663  63.335  1.00  0.00     0.218 HD
ENDBRANCH  24  33
BRANCH  26  35
HETATM   35  O5  UNL     1      59.950  78.132  63.388  1.00  0.00    -0.353 OA
HETATM   36  C23 UNL     1      58.948  78.141  62.418  1.00  0.00     0.210 C 
ENDBRANCH  26  35
BRANCH  28  37
HETATM   37  O6  UNL     1      64.636  78.976  62.873  1.00  0.00    -0.355 OA
HETATM   38  C26 UNL     1      64.959  77.620  62.846  1.00  0.00     0.210 C 
ENDBRANCH  28  37
ENDBRANCH  20  21
ENDBRANCH   1  20
TORSDOF 14
ENDMDL
