MODEL 2
REMARK VINA RESULT: -10.683605916      1.115      1.751
REMARK  14 active torsions:
REMARK  status: ('A' for Active; 'I' for Inactive)
REMARK    1  A    between atoms: C3_3  and  C5_5 
REMARK    2  A    between atoms: C6_6  and  C7_7 
REMARK    3  A    between atoms: C8_8  and  C9_9 
REMARK    4  A    between atoms: C9_9  and  O1_10 
REMARK    5  A    between atoms: C9_9  and  C11_12 
REMARK    6  A    between atoms: C11_12  and  C13_14 
REMARK    7  A    between atoms: C13_14  and  O2_15 
REMARK    8  A    between atoms: C13_14  and  C15_17 
REMARK    9  A    between atoms: C15_17  and  C17_19 
REMARK   10  A    between atoms: C17_19  and  C18_20 
REMARK   11  A    between atoms: C18_20  and  C19_21 
REMARK   12  A    between atoms: C21_24  and  O4_25 
REMARK   13  A    between atoms: C22_27  and  O5_28 
REMARK   14  A    between atoms: C25_31  and  O6_32 
ROOT
HETATM    1  C17 UNL     1      61.600  86.333  59.697  1.00  0.00    -0.015 C 
ENDROOT
BRANCH   1   2
HETATM    2  C15 UNL     1      61.273  85.558  60.902  1.00  0.00    -0.058 C 
HETATM    3  C16 UNL     1      59.764  85.360  60.998  1.00  0.00     0.046 C 
BRANCH   2   4
HETATM    4  C13 UNL     1      61.990  85.699  62.148  1.00  0.00     0.155 C 
BRANCH   4   5
HETATM    5  C11 UNL     1      61.730  84.661  63.232  1.00  0.00     0.047 C 
HETATM    6  C12 UNL     1      62.311  85.087  64.560  1.00  0.00     0.016 C 
BRANCH   5   7
HETATM    7  C9  UNL     1      62.023  83.255  62.954  1.00  0.00     0.150 C 
BRANCH   7   8
HETATM    8  C8  UNL     1      60.847  82.358  62.938  1.00  0.00     0.005 C 
HETATM    9  C7  UNL     1      59.771  82.713  63.607  1.00  0.00    -0.001 C 
BRANCH   9  10
HETATM   10  C6  UNL     1      58.569  81.879  63.640  1.00  0.00     0.000 C 
HETATM   11  C5  UNL     1      58.666  80.599  63.362  1.00  0.00     0.006 C 
BRANCH  11  12
HETATM   12  C3  UNL     1      57.518  79.724  63.376  1.00  0.00    -0.066 C 
HETATM   13  C2  UNL     1      57.407  78.745  62.471  1.00  0.00    -0.024 C 
HETATM   14  C1  UNL     1      56.215  77.866  62.514  1.00  0.00     0.036 C 
HETATM   15  C4  UNL     1      56.436  79.875  64.374  1.00  0.00     0.048 C 
ENDBRANCH  11  12
ENDBRANCH   9  10
ENDBRANCH   7   8
BRANCH   7  16
HETATM   16  O1  UNL     1      62.829  82.802  64.031  1.00  0.00    -0.386 OA
HETATM   17  C10 UNL     1      63.564  81.696  63.675  1.00  0.00     0.202 C 
ENDBRANCH   7  16
ENDBRANCH   5   7
ENDBRANCH   4   5
BRANCH   4  18
HETATM   18  O2  UNL     1      63.394  85.550  61.968  1.00  0.00    -0.386 OA
HETATM   19  C14 UNL     1      64.083  86.729  62.170  1.00  0.00     0.202 C 
ENDBRANCH   4  18
ENDBRANCH   2   4
ENDBRANCH   1   2
BRANCH   1  20
HETATM   20  C18 UNL     1      62.649  86.003  58.730  1.00  0.00     0.093 C 
BRANCH  20  21
HETATM   21  C19 UNL     1      62.244  85.705  57.345  1.00  0.00     0.067 A 
HETATM   22  O3  UNL     1      61.026  86.118  56.929  1.00  0.00    -0.310 OA
HETATM   23  C20 UNL     1      60.571  85.900  55.733  1.00  0.00     0.128 A 
HETATM   24  C21 UNL     1      59.305  86.351  55.360  1.00  0.00     0.134 A 
HETATM   25  C27 UNL     1      61.293  85.224  54.776  1.00  0.00     0.085 A 
HETATM   26  C22 UNL     1      58.814  86.123  54.089  1.00  0.00     0.106 A 
HETATM   27  C24 UNL     1      59.580  85.437  53.160  1.00  0.00     0.077 A 
HETATM   28  C25 UNL     1      60.824  84.984  53.500  1.00  0.00     0.088 A 
HETATM   29  C28 UNL     1      62.529  84.780  55.129  1.00  0.00     0.196 A 
HETATM   30  O7  UNL     1      63.236  84.157  54.299  1.00  0.00    -0.287 OA
HETATM   31  C29 UNL     1      62.976  85.041  56.433  1.00  0.00     0.019 A 
HETATM   32  C30 UNL     1      64.351  84.569  56.701  1.00  0.00     0.055 C 
BRANCH  24  33
HETATM   33  O4  UNL     1      58.529  87.038  56.279  1.00  0.00    -0.356 OA
ATOM     34  H4  UNL     1      57.625  87.240  56.069  1.00  0.00     0.218 HD
ENDBRANCH  24  33
BRANCH  26  35
HETATM   35  O5  UNL     1      57.562  86.554  53.682  1.00  0.00    -0.353 OA
HETATM   36  C23 UNL     1      57.194  86.665  52.342  1.00  0.00     0.210 C 
ENDBRANCH  26  35
BRANCH  28  37
HETATM   37  O6  UNL     1      61.650  84.291  52.630  1.00  0.00    -0.355 OA
HETATM   38  C26 UNL     1      61.330  84.183  51.276  1.00  0.00     0.210 C 
ENDBRANCH  28  37
ENDBRANCH  20  21
ENDBRANCH   1  20
TORSDOF 14
ENDMDL
