MODEL 14
REMARK VINA RESULT: -9.189335822      1.224      1.915
REMARK  14 active torsions:
REMARK  status: ('A' for Active; 'I' for Inactive)
REMARK    1  A    between atoms: C3_3  and  C5_5 
REMARK    2  A    between atoms: C6_6  and  C7_7 
REMARK    3  A    between atoms: C8_8  and  C9_9 
REMARK    4  A    between atoms: C9_9  and  O1_10 
REMARK    5  A    between atoms: C9_9  and  C11_12 
REMARK    6  A    between atoms: C11_12  and  C13_14 
REMARK    7  A    between atoms: C13_14  and  O2_15 
REMARK    8  A    between atoms: C13_14  and  C15_17 
REMARK    9  A    between atoms: C15_17  and  C17_19 
REMARK   10  A    between atoms: C17_19  and  C18_20 
REMARK   11  A    between atoms: C18_20  and  C19_21 
REMARK   12  A    between atoms: C21_24  and  O4_25 
REMARK   13  A    between atoms: C22_27  and  O5_28 
REMARK   14  A    between atoms: C25_31  and  O6_32 
ROOT
HETATM    1  C17 UNL     1      62.068  85.210  59.842  1.00  0.00    -0.015 C 
ENDROOT
BRANCH   1   2
HETATM    2  C15 UNL     1      62.689  84.976  61.153  1.00  0.00    -0.058 C 
HETATM    3  C16 UNL     1      62.792  83.478  61.418  1.00  0.00     0.046 C 
BRANCH   2   4
HETATM    4  C13 UNL     1      62.453  85.823  62.299  1.00  0.00     0.155 C 
BRANCH   4   5
HETATM    5  C11 UNL     1      61.808  85.189  63.524  1.00  0.00     0.047 C 
HETATM    6  C12 UNL     1      62.510  83.912  63.923  1.00  0.00     0.016 C 
BRANCH   5   7
HETATM    7  C9  UNL     1      60.355  85.024  63.555  1.00  0.00     0.150 C 
BRANCH   7   8
HETATM    8  C8  UNL     1      59.870  83.655  63.266  1.00  0.00     0.005 C 
HETATM    9  C7  UNL     1      59.315  82.963  64.238  1.00  0.00    -0.001 C 
BRANCH   9  10
HETATM   10  C6  UNL     1      58.811  81.604  64.030  1.00  0.00     0.000 C 
HETATM   11  C5  UNL     1      59.426  80.814  63.178  1.00  0.00     0.006 C 
BRANCH  11  12
HETATM   12  C3  UNL     1      58.977  79.464  62.929  1.00  0.00    -0.066 C 
HETATM   13  C2  UNL     1      57.673  79.206  62.783  1.00  0.00    -0.024 C 
HETATM   14  C1  UNL     1      57.248  77.810  62.529  1.00  0.00     0.036 C 
HETATM   15  C4  UNL     1      59.927  78.335  62.828  1.00  0.00     0.048 C 
ENDBRANCH  11  12
ENDBRANCH   9  10
ENDBRANCH   7   8
BRANCH   7  16
HETATM   16  O1  UNL     1      59.846  85.834  62.507  1.00  0.00    -0.386 OA
HETATM   17  C10 UNL     1      59.081  85.098  61.633  1.00  0.00     0.202 C 
ENDBRANCH   7  16
ENDBRANCH   5   7
ENDBRANCH   4   5
BRANCH   4  18
HETATM   18  O2  UNL     1      63.670  86.304  62.857  1.00  0.00    -0.386 OA
HETATM   19  C14 UNL     1      64.262  87.280  62.079  1.00  0.00     0.202 C 
ENDBRANCH   4  18
ENDBRANCH   2   4
ENDBRANCH   1   2
BRANCH   1  20
HETATM   20  C18 UNL     1      62.623  86.042  58.772  1.00  0.00     0.093 C 
BRANCH  20  21
HETATM   21  C19 UNL     1      62.232  85.736  57.384  1.00  0.00     0.067 A 
HETATM   22  O3  UNL     1      61.013  86.135  56.958  1.00  0.00    -0.310 OA
HETATM   23  C20 UNL     1      60.570  85.909  55.759  1.00  0.00     0.128 A 
HETATM   24  C21 UNL     1      59.302  86.345  55.376  1.00  0.00     0.134 A 
HETATM   25  C27 UNL     1      61.306  85.239  54.809  1.00  0.00     0.085 A 
HETATM   26  C22 UNL     1      58.824  86.109  54.101  1.00  0.00     0.106 A 
HETATM   27  C24 UNL     1      59.603  85.430  53.180  1.00  0.00     0.077 A 
HETATM   28  C25 UNL     1      60.850  84.991  53.530  1.00  0.00     0.088 A 
HETATM   29  C28 UNL     1      62.544  84.810  55.173  1.00  0.00     0.196 A 
HETATM   30  O7  UNL     1      63.265  84.193  54.350  1.00  0.00    -0.287 OA
HETATM   31  C29 UNL     1      62.979  85.079  56.480  1.00  0.00     0.019 A 
HETATM   32  C30 UNL     1      64.356  84.622  56.760  1.00  0.00     0.055 C 
BRANCH  24  33
HETATM   33  O4  UNL     1      58.511  87.026  56.287  1.00  0.00    -0.356 OA
ATOM     34  H4  UNL     1      58.074  86.543  56.979  1.00  0.00     0.218 HD
ENDBRANCH  24  33
BRANCH  26  35
HETATM   35  O5  UNL     1      57.570  86.526  53.684  1.00  0.00    -0.353 OA
HETATM   36  C23 UNL     1      57.245  86.737  52.344  1.00  0.00     0.210 C 
ENDBRANCH  26  35
BRANCH  28  37
HETATM   37  O6  UNL     1      61.690  84.306  52.668  1.00  0.00    -0.355 OA
HETATM   38  C26 UNL     1      61.381  84.189  51.313  1.00  0.00     0.210 C 
ENDBRANCH  28  37
ENDBRANCH  20  21
ENDBRANCH   1  20
TORSDOF 14
ENDMDL
