MODEL 13
REMARK VINA RESULT: -9.550986463      2.923      4.780
REMARK  14 active torsions:
REMARK  status: ('A' for Active; 'I' for Inactive)
REMARK    1  A    between atoms: C3_3  and  C5_5 
REMARK    2  A    between atoms: C6_6  and  C7_7 
REMARK    3  A    between atoms: C8_8  and  C9_9 
REMARK    4  A    between atoms: C9_9  and  O1_10 
REMARK    5  A    between atoms: C9_9  and  C11_12 
REMARK    6  A    between atoms: C11_12  and  C13_14 
REMARK    7  A    between atoms: C13_14  and  O2_15 
REMARK    8  A    between atoms: C13_14  and  C15_17 
REMARK    9  A    between atoms: C15_17  and  C17_19 
REMARK   10  A    between atoms: C17_19  and  C18_20 
REMARK   11  A    between atoms: C18_20  and  C19_21 
REMARK   12  A    between atoms: C21_24  and  O4_25 
REMARK   13  A    between atoms: C22_27  and  O5_28 
REMARK   14  A    between atoms: C25_31  and  O6_32 
ROOT
HETATM    1  C17 UNL     1      61.840  86.122  59.806  1.00  0.00    -0.015 C 
ENDROOT
BRANCH   1   2
HETATM    2  C15 UNL     1      61.185  84.979  60.456  1.00  0.00    -0.058 C 
HETATM    3  C16 UNL     1      59.762  85.355  60.855  1.00  0.00     0.046 C 
BRANCH   2   4
HETATM    4  C13 UNL     1      61.882  84.061  61.326  1.00  0.00     0.155 C 
BRANCH   4   5
HETATM    5  C11 UNL     1      62.465  84.619  62.618  1.00  0.00     0.047 C 
HETATM    6  C12 UNL     1      61.508  85.576  63.291  1.00  0.00     0.016 C 
BRANCH   5   7
HETATM    7  C9  UNL     1      63.827  85.153  62.609  1.00  0.00     0.150 C 
BRANCH   7   8
HETATM    8  C8  UNL     1      64.721  84.613  63.658  1.00  0.00     0.005 C 
HETATM    9  C7  UNL     1      64.472  83.417  64.148  1.00  0.00    -0.001 C 
BRANCH   9  10
HETATM   10  C6  UNL     1      65.310  82.816  65.186  1.00  0.00     0.000 C 
HETATM   11  C5  UNL     1      64.810  81.867  65.946  1.00  0.00     0.006 C 
BRANCH  11  12
HETATM   12  C3  UNL     1      65.585  81.235  66.987  1.00  0.00    -0.066 C 
HETATM   13  C2  UNL     1      66.154  80.044  66.772  1.00  0.00    -0.024 C 
HETATM   14  C1  UNL     1      66.942  79.424  67.862  1.00  0.00     0.036 C 
HETATM   15  C4  UNL     1      65.776  81.870  68.310  1.00  0.00     0.048 C 
ENDBRANCH  11  12
ENDBRANCH   9  10
ENDBRANCH   7   8
BRANCH   7  16
HETATM   16  O1  UNL     1      63.707  86.539  62.892  1.00  0.00    -0.386 OA
HETATM   17  C10 UNL     1      64.643  87.273  62.203  1.00  0.00     0.202 C 
ENDBRANCH   7  16
ENDBRANCH   5   7
ENDBRANCH   4   5
BRANCH   4  18
HETATM   18  O2  UNL     1      61.013  83.057  61.837  1.00  0.00    -0.386 OA
HETATM   19  C14 UNL     1      61.664  82.161  62.662  1.00  0.00     0.202 C 
ENDBRANCH   4  18
ENDBRANCH   2   4
ENDBRANCH   1   2
BRANCH   1  20
HETATM   20  C18 UNL     1      62.859  86.038  58.757  1.00  0.00     0.093 C 
BRANCH  20  21
HETATM   21  C19 UNL     1      62.416  85.728  57.386  1.00  0.00     0.067 A 
HETATM   22  O3  UNL     1      61.191  86.147  56.997  1.00  0.00    -0.310 OA
HETATM   23  C20 UNL     1      60.704  85.919  55.815  1.00  0.00     0.128 A 
HETATM   24  C21 UNL     1      59.432  86.376  55.471  1.00  0.00     0.134 A 
HETATM   25  C27 UNL     1      61.396  85.229  54.847  1.00  0.00     0.085 A 
HETATM   26  C22 UNL     1      58.908  86.138  54.215  1.00  0.00     0.106 A 
HETATM   27  C24 UNL     1      59.644  85.438  53.274  1.00  0.00     0.077 A 
HETATM   28  C25 UNL     1      60.893  84.979  53.586  1.00  0.00     0.088 A 
HETATM   29  C28 UNL     1      62.638  84.780  55.174  1.00  0.00     0.196 A 
HETATM   30  O7  UNL     1      63.319  84.143  54.332  1.00  0.00    -0.287 OA
HETATM   31  C29 UNL     1      63.120  85.051  56.463  1.00  0.00     0.019 A 
HETATM   32  C30 UNL     1      64.498  84.571  56.701  1.00  0.00     0.055 C 
BRANCH  24  33
HETATM   33  O4  UNL     1      58.685  87.078  56.402  1.00  0.00    -0.356 OA
ATOM     34  H4  UNL     1      57.809  86.781  56.618  1.00  0.00     0.218 HD
ENDBRANCH  24  33
BRANCH  26  35
HETATM   35  O5  UNL     1      57.649  86.575  53.836  1.00  0.00    -0.353 OA
HETATM   36  C23 UNL     1      57.222  86.607  52.509  1.00  0.00     0.210 C 
ENDBRANCH  26  35
BRANCH  28  37
HETATM   37  O6  UNL     1      61.692  84.272  52.703  1.00  0.00    -0.355 OA
HETATM   38  C26 UNL     1      61.347  84.169  51.355  1.00  0.00     0.210 C 
ENDBRANCH  28  37
ENDBRANCH  20  21
ENDBRANCH   1  20
TORSDOF 14
ENDMDL
