MODEL 6
REMARK VINA RESULT: -7.199799469      1.948      6.983
REMARK  5 active torsions:
REMARK  status: ('A' for Active; 'I' for Inactive)
REMARK    1  A    between atoms: C4_9  and  C5_10 
REMARK    2  A    between atoms: C5_10  and  N3_11 
REMARK    3  A    between atoms: C7_13  and  O2_14 
REMARK    4  A    between atoms: C8_16  and  C9_17 
REMARK    5  A    between atoms: C9_17  and  O3_18 
ROOT
HETATM    1  O1  UNL     1       8.875  18.888  21.580  1.00  0.00    -0.266 OA
HETATM    2  C1  UNL     1       7.618  18.895  21.759  1.00  0.00     0.275 A 
HETATM    3  N1  UNL     1       6.841  19.654  20.956  1.00  0.00    -0.318 N 
ATOM      4  H1  UNL     1       7.255  20.218  20.213  1.00  0.00     0.169 HD
HETATM    5  C2  UNL     1       5.512  19.652  21.156  1.00  0.00     0.184 A 
HETATM    6  N2  UNL     1       4.921  18.917  22.130  1.00  0.00    -0.350 N 
ATOM      7  H2  UNL     1       3.908  18.949  22.241  1.00  0.00     0.166 HD
HETATM    8  C3  UNL     1       5.652  18.149  22.947  1.00  0.00     0.075 A 
HETATM    9  C4  UNL     1       5.387  17.296  24.015  1.00  0.00     0.015 A 
HETATM   10  C11 UNL     1       6.584  16.793  24.445  1.00  0.00     0.099 A 
HETATM   11  N4  UNL     1       7.569  17.301  23.688  1.00  0.00    -0.359 N 
ATOM     12  H4  UNL     1       8.561  17.091  23.794  1.00  0.00     0.165 HD
HETATM   13  C12 UNL     1       7.037  18.138  22.756  1.00  0.00     0.128 A 
ENDROOT
BRANCH   9  14
HETATM   14  C5  UNL     1       4.015  17.041  24.524  1.00  0.00     0.315 C 
BRANCH  14  15
HETATM   15  N3  UNL     1       3.789  17.539  25.827  1.00  0.00     0.095 N 
HETATM   16  C6  UNL     1       3.361  18.936  25.852  1.00  0.00     0.304 C 
HETATM   17  C7  UNL     1       2.694  19.131  27.212  1.00  0.00     0.154 C 
HETATM   18  C8  UNL     1       2.635  17.740  27.759  1.00  0.00     0.068 C 
HETATM   19  C10 UNL     1       2.637  16.907  26.492  1.00  0.00     0.282 C 
BRANCH  17  20
HETATM   20  O2  UNL     1       3.421  19.996  28.008  1.00  0.00    -0.393 OA
ATOM     21  H2  UNL     1       2.915  20.279  28.761  1.00  0.00     0.210 HD
ENDBRANCH  17  20
BRANCH  18  22
HETATM   22  C9  UNL     1       1.440  17.479  28.622  1.00  0.00     0.173 C 
BRANCH  22  23
HETATM   23  O3  UNL     1       0.938  18.605  29.230  1.00  0.00    -0.400 OA
ATOM     24  H3  UNL     1       0.261  18.426  29.872  1.00  0.00     0.209 HD
ENDBRANCH  22  23
ENDBRANCH  18  22
ENDBRANCH  14  15
ENDBRANCH   9  14
TORSDOF 5
ENDMDL
