MODEL 7
REMARK VINA RESULT: -7.193849781      2.452      2.981
REMARK  5 active torsions:
REMARK  status: ('A' for Active; 'I' for Inactive)
REMARK    1  A    between atoms: C4_9  and  C5_10 
REMARK    2  A    between atoms: C5_10  and  N3_11 
REMARK    3  A    between atoms: C7_13  and  O2_14 
REMARK    4  A    between atoms: C8_16  and  C9_17 
REMARK    5  A    between atoms: C9_17  and  O3_18 
ROOT
HETATM    1  O1  UNL     1       0.483  17.077  29.716  1.00  0.00    -0.266 OA
HETATM    2  C1  UNL     1       1.178  16.872  28.674  1.00  0.00     0.275 A 
HETATM    3  N1  UNL     1       1.134  15.660  28.079  1.00  0.00    -0.318 N 
ATOM      4  H1  UNL     1       0.549  14.915  28.459  1.00  0.00     0.169 HD
HETATM    5  C2  UNL     1       1.875  15.455  26.976  1.00  0.00     0.184 A 
HETATM    6  N2  UNL     1       2.664  16.417  26.438  1.00  0.00    -0.350 N 
ATOM      7  H2  UNL     1       3.207  16.213  25.600  1.00  0.00     0.166 HD
HETATM    8  C3  UNL     1       2.738  17.632  26.993  1.00  0.00     0.075 A 
HETATM    9  C4  UNL     1       3.419  18.815  26.717  1.00  0.00     0.015 A 
HETATM   10  C11 UNL     1       3.068  19.724  27.677  1.00  0.00     0.099 A 
HETATM   11  N4  UNL     1       2.203  19.150  28.528  1.00  0.00    -0.359 N 
ATOM     12  H4  UNL     1       1.783  19.607  29.337  1.00  0.00     0.165 HD
HETATM   13  C12 UNL     1       1.975  17.866  28.142  1.00  0.00     0.128 A 
ENDROOT
BRANCH   9  14
HETATM   14  C5  UNL     1       4.341  18.965  25.562  1.00  0.00     0.315 C 
BRANCH  14  15
HETATM   15  N3  UNL     1       3.680  19.098  24.320  1.00  0.00     0.095 N 
HETATM   16  C6  UNL     1       2.671  20.154  24.305  1.00  0.00     0.304 C 
HETATM   17  C7  UNL     1       2.454  20.486  22.831  1.00  0.00     0.154 C 
HETATM   18  C8  UNL     1       3.529  19.701  22.148  1.00  0.00     0.068 C 
HETATM   19  C10 UNL     1       4.567  19.576  23.245  1.00  0.00     0.282 C 
BRANCH  17  20
HETATM   20  O2  UNL     1       1.181  20.134  22.420  1.00  0.00    -0.393 OA
ATOM     21  H2  UNL     1       0.545  20.273  23.112  1.00  0.00     0.210 HD
ENDBRANCH  17  20
BRANCH  18  22
HETATM   22  C9  UNL     1       4.066  20.355  20.914  1.00  0.00     0.173 C 
BRANCH  22  23
HETATM   23  O3  UNL     1       4.938  19.566  20.201  1.00  0.00    -0.400 OA
ATOM     24  H3  UNL     1       4.879  19.682  19.260  1.00  0.00     0.209 HD
ENDBRANCH  22  23
ENDBRANCH  18  22
ENDBRANCH  14  15
ENDBRANCH   9  14
TORSDOF 5
ENDMDL
