MODEL 2
REMARK VINA RESULT: -7.536996770      2.352      2.963
REMARK  5 active torsions:
REMARK  status: ('A' for Active; 'I' for Inactive)
REMARK    1  A    between atoms: C4_9  and  C5_10 
REMARK    2  A    between atoms: C5_10  and  N3_11 
REMARK    3  A    between atoms: C7_13  and  O2_14 
REMARK    4  A    between atoms: C8_16  and  C9_17 
REMARK    5  A    between atoms: C9_17  and  O3_18 
ROOT
HETATM    1  O1  UNL     1       0.589  18.132  29.679  1.00  0.00    -0.266 OA
HETATM    2  C1  UNL     1       1.198  17.490  28.769  1.00  0.00     0.275 A 
HETATM    3  N1  UNL     1       0.866  16.201  28.534  1.00  0.00    -0.318 N 
ATOM      4  H1  UNL     1       0.133  15.745  29.079  1.00  0.00     0.169 HD
HETATM    5  C2  UNL     1       1.520  15.533  27.568  1.00  0.00     0.184 A 
HETATM    6  N2  UNL     1       2.498  16.101  26.820  1.00  0.00    -0.350 N 
ATOM      7  H2  UNL     1       2.964  15.552  26.099  1.00  0.00     0.166 HD
HETATM    8  C3  UNL     1       2.858  17.374  27.018  1.00  0.00     0.075 A 
HETATM    9  C4  UNL     1       3.787  18.246  26.456  1.00  0.00     0.015 A 
HETATM   10  C11 UNL     1       3.672  19.443  27.106  1.00  0.00     0.099 A 
HETATM   11  N4  UNL     1       2.715  19.343  28.042  1.00  0.00    -0.359 N 
ATOM     12  H4  UNL     1       2.425  20.091  28.671  1.00  0.00     0.165 HD
HETATM   13  C12 UNL     1       2.191  18.087  28.019  1.00  0.00     0.128 A 
ENDROOT
BRANCH   9  14
HETATM   14  C5  UNL     1       4.696  17.853  25.349  1.00  0.00     0.315 C 
BRANCH  14  15
HETATM   15  N3  UNL     1       4.339  18.400  24.096  1.00  0.00     0.095 N 
HETATM   16  C6  UNL     1       4.984  17.740  22.964  1.00  0.00     0.304 C 
HETATM   17  C7  UNL     1       4.127  18.088  21.749  1.00  0.00     0.154 C 
HETATM   18  C8  UNL     1       2.942  18.768  22.358  1.00  0.00     0.068 C 
HETATM   19  C10 UNL     1       2.924  18.173  23.752  1.00  0.00     0.282 C 
BRANCH  17  20
HETATM   20  O2  UNL     1       4.818  18.892  20.862  1.00  0.00    -0.393 OA
ATOM     21  H2  UNL     1       5.081  18.406  20.089  1.00  0.00     0.210 HD
ENDBRANCH  17  20
BRANCH  18  22
HETATM   22  C9  UNL     1       1.664  18.539  21.614  1.00  0.00     0.173 C 
BRANCH  22  23
HETATM   23  O3  UNL     1       1.612  19.168  20.392  1.00  0.00    -0.400 OA
ATOM     24  H3  UNL     1       0.731  19.299  20.064  1.00  0.00     0.209 HD
ENDBRANCH  22  23
ENDBRANCH  18  22
ENDBRANCH  14  15
ENDBRANCH   9  14
TORSDOF 5
ENDMDL
