MODEL 4
REMARK VINA RESULT: -7.331569286      2.035      6.722
REMARK  5 active torsions:
REMARK  status: ('A' for Active; 'I' for Inactive)
REMARK    1  A    between atoms: C4_9  and  C5_10 
REMARK    2  A    between atoms: C5_10  and  N3_11 
REMARK    3  A    between atoms: C7_13  and  O2_14 
REMARK    4  A    between atoms: C8_16  and  C9_17 
REMARK    5  A    between atoms: C9_17  and  O3_18 
ROOT
HETATM    1  O1  UNL     1       8.159  19.274  21.184  1.00  0.00    -0.266 OA
HETATM    2  C1  UNL     1       7.482  18.653  22.061  1.00  0.00     0.275 A 
HETATM    3  N1  UNL     1       8.114  17.809  22.905  1.00  0.00    -0.318 N 
ATOM      4  H1  UNL     1       9.123  17.670  22.844  1.00  0.00     0.169 HD
HETATM    5  C2  UNL     1       7.386  17.158  23.829  1.00  0.00     0.184 A 
HETATM    6  N2  UNL     1       6.044  17.315  23.946  1.00  0.00    -0.350 N 
ATOM      7  H2  UNL     1       5.537  16.798  24.664  1.00  0.00     0.166 HD
HETATM    8  C3  UNL     1       5.379  18.142  23.131  1.00  0.00     0.075 A 
HETATM    9  C4  UNL     1       4.051  18.531  22.974  1.00  0.00     0.015 A 
HETATM   10  C11 UNL     1       4.006  19.425  21.941  1.00  0.00     0.099 A 
HETATM   11  N4  UNL     1       5.245  19.600  21.458  1.00  0.00    -0.359 N 
ATOM     12  H4  UNL     1       5.495  20.215  20.684  1.00  0.00     0.165 HD
HETATM   13  C12 UNL     1       6.117  18.828  22.163  1.00  0.00     0.128 A 
ENDROOT
BRANCH   9  14
HETATM   14  C5  UNL     1       2.951  18.013  23.828  1.00  0.00     0.315 C 
BRANCH  14  15
HETATM   15  N3  UNL     1       3.159  18.216  25.210  1.00  0.00     0.095 N 
HETATM   16  C6  UNL     1       2.800  19.557  25.664  1.00  0.00     0.304 C 
HETATM   17  C7  UNL     1       2.598  19.434  27.173  1.00  0.00     0.154 C 
HETATM   18  C8  UNL     1       2.675  17.958  27.402  1.00  0.00     0.068 C 
HETATM   19  C10 UNL     1       2.256  17.411  26.052  1.00  0.00     0.282 C 
BRANCH  17  20
HETATM   20  O2  UNL     1       3.561  20.142  27.867  1.00  0.00    -0.393 OA
ATOM     21  H2  UNL     1       3.178  20.870  28.343  1.00  0.00     0.210 HD
ENDBRANCH  17  20
BRANCH  18  22
HETATM   22  C9  UNL     1       1.804  17.472  28.519  1.00  0.00     0.173 C 
BRANCH  22  23
HETATM   23  O3  UNL     1       1.381  18.469  29.367  1.00  0.00    -0.400 OA
ATOM     24  H3  UNL     1       1.140  19.273  28.924  1.00  0.00     0.209 HD
ENDBRANCH  22  23
ENDBRANCH  18  22
ENDBRANCH  14  15
ENDBRANCH   9  14
TORSDOF 5
ENDMDL
