MODEL 5
REMARK VINA RESULT: -7.217220035      2.755      3.552
REMARK  5 active torsions:
REMARK  status: ('A' for Active; 'I' for Inactive)
REMARK    1  A    between atoms: C4_9  and  C5_10 
REMARK    2  A    between atoms: C5_10  and  N3_11 
REMARK    3  A    between atoms: C7_13  and  O2_14 
REMARK    4  A    between atoms: C8_16  and  C9_17 
REMARK    5  A    between atoms: C9_17  and  O3_18 
ROOT
HETATM    1  O1  UNL     1       0.472  17.575  29.855  1.00  0.00    -0.266 OA
HETATM    2  C1  UNL     1       1.131  17.187  28.841  1.00  0.00     0.275 A 
HETATM    3  N1  UNL     1       0.967  15.924  28.391  1.00  0.00    -0.318 N 
ATOM      4  H1  UNL     1       0.321  15.286  28.857  1.00  0.00     0.169 HD
HETATM    5  C2  UNL     1       1.671  15.526  27.317  1.00  0.00     0.184 A 
HETATM    6  N2  UNL     1       2.537  16.342  26.668  1.00  0.00    -0.350 N 
ATOM      7  H2  UNL     1       3.047  15.993  25.858  1.00  0.00     0.166 HD
HETATM    8  C3  UNL     1       2.730  17.601  27.079  1.00  0.00     0.075 A 
HETATM    9  C4  UNL     1       3.513  18.675  26.665  1.00  0.00     0.015 A 
HETATM   10  C11 UNL     1       3.261  19.718  27.514  1.00  0.00     0.099 A 
HETATM   11  N4  UNL     1       2.359  19.329  28.428  1.00  0.00    -0.359 N 
ATOM     12  H4  UNL     1       1.993  19.913  29.181  1.00  0.00     0.165 HD
HETATM   13  C12 UNL     1       2.008  18.035  28.195  1.00  0.00     0.128 A 
ENDROOT
BRANCH   9  14
HETATM   14  C5  UNL     1       4.428  18.605  25.497  1.00  0.00     0.315 C 
BRANCH  14  15
HETATM   15  N3  UNL     1       3.854  19.075  24.295  1.00  0.00     0.095 N 
HETATM   16  C6  UNL     1       3.219  18.026  23.501  1.00  0.00     0.304 C 
HETATM   17  C7  UNL     1       2.254  18.752  22.567  1.00  0.00     0.154 C 
HETATM   18  C8  UNL     1       2.296  20.161  23.069  1.00  0.00     0.068 C 
HETATM   19  C10 UNL     1       2.699  19.962  24.517  1.00  0.00     0.282 C 
BRANCH  17  20
HETATM   20  O2  UNL     1       2.650  18.635  21.247  1.00  0.00    -0.393 OA
ATOM     21  H2  UNL     1       2.055  19.095  20.667  1.00  0.00     0.210 HD
ENDBRANCH  17  20
BRANCH  18  22
HETATM   22  C9  UNL     1       1.000  20.895  22.924  1.00  0.00     0.173 C 
BRANCH  22  23
HETATM   23  O3  UNL     1       0.101  20.275  22.088  1.00  0.00    -0.400 OA
ATOM     24  H3  UNL     1       0.329  20.333  21.167  1.00  0.00     0.209 HD
ENDBRANCH  22  23
ENDBRANCH  18  22
ENDBRANCH  14  15
ENDBRANCH   9  14
TORSDOF 5
ENDMDL
