MODEL 10
REMARK VINA RESULT: -6.947375257      2.086      6.792
REMARK  5 active torsions:
REMARK  status: ('A' for Active; 'I' for Inactive)
REMARK    1  A    between atoms: C4_9  and  C5_10 
REMARK    2  A    between atoms: C5_10  and  N3_11 
REMARK    3  A    between atoms: C7_13  and  O2_14 
REMARK    4  A    between atoms: C8_16  and  C9_17 
REMARK    5  A    between atoms: C9_17  and  O3_18 
ROOT
HETATM    1  O1  UNL     1       5.118  19.388  20.544  1.00  0.00    -0.266 OA
HETATM    2  C1  UNL     1       5.414  19.203  21.764  1.00  0.00     0.275 A 
HETATM    3  N1  UNL     1       6.681  18.870  22.093  1.00  0.00    -0.318 N 
ATOM      4  H1  UNL     1       7.396  18.768  21.372  1.00  0.00     0.169 HD
HETATM    5  C2  UNL     1       6.982  18.676  23.389  1.00  0.00     0.184 A 
HETATM    6  N2  UNL     1       6.064  18.802  24.378  1.00  0.00    -0.350 N 
ATOM      7  H2  UNL     1       6.341  18.645  25.347  1.00  0.00     0.166 HD
HETATM    8  C3  UNL     1       4.797  19.131  24.099  1.00  0.00     0.075 A 
HETATM    9  C4  UNL     1       3.635  19.340  24.837  1.00  0.00     0.015 A 
HETATM   10  C11 UNL     1       2.640  19.660  23.955  1.00  0.00     0.099 A 
HETATM   11  N4  UNL     1       3.142  19.657  22.710  1.00  0.00    -0.359 N 
ATOM     12  H4  UNL     1       2.614  19.862  21.862  1.00  0.00     0.165 HD
HETATM   13  C12 UNL     1       4.463  19.337  22.756  1.00  0.00     0.128 A 
ENDROOT
BRANCH   9  14
HETATM   14  C5  UNL     1       3.585  19.213  26.316  1.00  0.00     0.315 C 
BRANCH  14  15
HETATM   15  N3  UNL     1       2.523  18.407  26.783  1.00  0.00     0.095 N 
HETATM   16  C6  UNL     1       2.833  16.979  26.789  1.00  0.00     0.304 C 
HETATM   17  C7  UNL     1       1.836  16.351  27.759  1.00  0.00     0.154 C 
HETATM   18  C8  UNL     1       1.168  17.542  28.371  1.00  0.00     0.068 C 
HETATM   19  C10 UNL     1       2.232  18.610  28.213  1.00  0.00     0.282 C 
BRANCH  17  20
HETATM   20  O2  UNL     1       0.955  15.514  27.101  1.00  0.00    -0.393 OA
ATOM     21  H2  UNL     1       1.086  14.607  27.354  1.00  0.00     0.210 HD
ENDBRANCH  17  20
BRANCH  18  22
HETATM   22  C9  UNL     1       0.757  17.340  29.796  1.00  0.00     0.173 C 
BRANCH  22  23
HETATM   23  O3  UNL     1      -0.598  17.445  30.003  1.00  0.00    -0.400 OA
ATOM     24  H3  UNL     1      -0.877  17.172  30.870  1.00  0.00     0.209 HD
ENDBRANCH  22  23
ENDBRANCH  18  22
ENDBRANCH  14  15
ENDBRANCH   9  14
TORSDOF 5
ENDMDL
