MODEL 15
REMARK VINA RESULT: -7.501225823      4.682      9.470
REMARK  10 active torsions:
REMARK  status: ('A' for Active; 'I' for Inactive)
REMARK    1  A    between atoms: N5_13  and  C6_14 
REMARK    2  A    between atoms: C7_16  and  C8_17 
REMARK    3  A    between atoms: C8_17  and  S1_18 
REMARK    4  A    between atoms: S1_18  and  C9_19 
REMARK    5  A    between atoms: C9_19  and  C10_20 
REMARK    6  A    between atoms: C10_20  and  C11_21 
REMARK    7  A    between atoms: C11_21  and  N6_22 
REMARK    8  A    between atoms: C11_21  and  C12_26 
REMARK    9  A    between atoms: C13_29  and  O4_30 
REMARK   10  A    between atoms: C14_32  and  O5_33 
ROOT
HETATM    1  C6  UNL     1      21.957  48.192   5.849  1.00  0.00     0.262 C 
HETATM    2  O1  UNL     1      22.436  49.513   5.899  1.00  0.00    -0.355 OA
HETATM    3  C7  UNL     1      21.911  50.103   4.735  1.00  0.00     0.165 C 
HETATM    4  C13 UNL     1      20.520  49.536   4.601  1.00  0.00     0.180 C 
HETATM    5  C14 UNL     1      20.493  48.466   5.671  1.00  0.00     0.198 C 
ENDROOT
BRANCH   1   6
HETATM    6  N5  UNL     1      22.311  47.479   7.034  1.00  0.00    -0.297 N 
HETATM    7  C3  UNL     1      22.244  46.146   7.192  1.00  0.00     0.142 A 
HETATM    8  N3  UNL     1      21.863  45.140   6.388  1.00  0.00    -0.336 N 
HETATM    9  C4  UNL     1      22.685  45.884   8.489  1.00  0.00     0.119 A 
HETATM   10  C2  UNL     1      21.917  43.889   6.865  1.00  0.00     0.183 A 
ATOM     11  H3  UNL     1      21.541  45.324   5.438  1.00  0.00     0.168 HD
HETATM   12  N2  UNL     1      22.337  43.615   8.106  1.00  0.00    -0.339 N 
HETATM   13  C1  UNL     1      22.725  44.599   8.932  1.00  0.00     0.148 A 
ATOM     14  H2  UNL     1      22.363  42.647   8.428  1.00  0.00     0.167 HD
HETATM   15  N1  UNL     1      23.174  44.304  10.257  1.00  0.00    -0.080 NA
HETATM   16  N4  UNL     1      22.993  47.087   9.036  1.00  0.00    -0.346 N 
HETATM   17  C5  UNL     1      22.769  48.059   8.160  1.00  0.00     0.188 A 
ATOM     18  H4  UNL     1      23.345  47.224   9.983  1.00  0.00     0.167 HD
ENDBRANCH   1   6
BRANCH   5  19
HETATM   19  O5  UNL     1      19.754  47.360   5.278  1.00  0.00    -0.388 OA
ATOM     20  H5  UNL     1      19.341  46.894   5.996  1.00  0.00     0.210 HD
ENDBRANCH   5  19
BRANCH   3  21
HETATM   21  C8  UNL     1      21.801  51.581   4.961  1.00  0.00     0.108 C 
BRANCH  21  22
HETATM   22  S1  UNL     1      23.294  52.516   5.001  1.00  0.00    -0.166 SA
BRANCH  22  23
HETATM   23  C9  UNL     1      24.361  52.245   6.385  1.00  0.00     0.076 C 
BRANCH  23  24
HETATM   24  C10 UNL     1      23.733  52.556   7.713  1.00  0.00     0.054 C 
BRANCH  24  25
HETATM   25  C11 UNL     1      24.466  53.643   8.418  1.00  0.00     0.284 C 
BRANCH  25  26
HETATM   26  N6  UNL     1      24.204  53.678   9.822  1.00  0.00    -0.065 N 
ATOM     27  H63 UNL     1      23.413  54.289  10.029  1.00  0.00     0.275 HD
ATOM     28  H62 UNL     1      23.818  52.790  10.142  1.00  0.00     0.275 HD
ATOM     29  H61 UNL     1      25.020  53.940  10.376  1.00  0.00     0.275 HD
ENDBRANCH  25  26
BRANCH  25  30
HETATM   30  C12 UNL     1      24.249  54.973   7.833  1.00  0.00     0.204 C 
HETATM   31  O2  UNL     1      23.314  55.686   8.244  1.00  0.00    -0.646 OA
HETATM   32  O3  UNL     1      25.073  55.438   6.831  1.00  0.00    -0.646 OA
ENDBRANCH  25  30
ENDBRANCH  24  25
ENDBRANCH  23  24
ENDBRANCH  22  23
ENDBRANCH  21  22
ENDBRANCH   3  21
BRANCH   4  33
HETATM   33  O4  UNL     1      20.375  48.890   3.357  1.00  0.00    -0.390 OA
ATOM     34  H4  UNL     1      20.252  47.957   3.484  1.00  0.00     0.210 HD
ENDBRANCH   4  33
TORSDOF 10
ENDMDL
