MODEL 10
REMARK VINA RESULT: -8.229890943      1.435      1.664
REMARK  10 active torsions:
REMARK  status: ('A' for Active; 'I' for Inactive)
REMARK    1  A    between atoms: N5_13  and  C6_14 
REMARK    2  A    between atoms: C7_16  and  C8_17 
REMARK    3  A    between atoms: C8_17  and  S1_18 
REMARK    4  A    between atoms: S1_18  and  C9_19 
REMARK    5  A    between atoms: C9_19  and  C10_20 
REMARK    6  A    between atoms: C10_20  and  C11_21 
REMARK    7  A    between atoms: C11_21  and  N6_22 
REMARK    8  A    between atoms: C11_21  and  C12_26 
REMARK    9  A    between atoms: C13_29  and  O4_30 
REMARK   10  A    between atoms: C14_32  and  O5_33 
ROOT
HETATM    1  C6  UNL     1      22.302  47.477   7.070  1.00  0.00     0.262 C 
HETATM    2  O1  UNL     1      22.610  46.979   8.348  1.00  0.00    -0.355 OA
HETATM    3  C7  UNL     1      22.136  45.655   8.314  1.00  0.00     0.165 C 
HETATM    4  C13 UNL     1      22.464  45.157   6.928  1.00  0.00     0.180 C 
HETATM    5  C14 UNL     1      22.940  46.412   6.228  1.00  0.00     0.198 C 
ENDROOT
BRANCH   1   6
HETATM    6  N5  UNL     1      22.826  48.794   6.899  1.00  0.00    -0.297 N 
HETATM    7  C3  UNL     1      22.426  49.679   5.972  1.00  0.00     0.142 A 
HETATM    8  N3  UNL     1      21.504  49.638   4.995  1.00  0.00    -0.336 N 
HETATM    9  C4  UNL     1      23.194  50.826   6.168  1.00  0.00     0.119 A 
HETATM   10  C2  UNL     1      21.348  50.722   4.222  1.00  0.00     0.183 A 
ATOM     11  H3  UNL     1      20.937  48.804   4.847  1.00  0.00     0.168 HD
HETATM   12  N2  UNL     1      22.075  51.833   4.393  1.00  0.00    -0.339 N 
HETATM   13  C1  UNL     1      23.002  51.903   5.360  1.00  0.00     0.148 A 
ATOM     14  H2  UNL     1      21.922  52.635   3.781  1.00  0.00     0.167 HD
HETATM   15  N1  UNL     1      23.777  53.091   5.542  1.00  0.00    -0.080 NA
HETATM   16  N4  UNL     1      24.018  50.557   7.212  1.00  0.00    -0.346 N 
HETATM   17  C5  UNL     1      23.801  49.327   7.661  1.00  0.00     0.188 A 
ATOM     18  H4  UNL     1      24.704  51.206   7.596  1.00  0.00     0.167 HD
ENDBRANCH   1   6
BRANCH   5  19
HETATM   19  O5  UNL     1      22.557  46.438   4.896  1.00  0.00    -0.388 OA
ATOM     20  H5  UNL     1      21.913  45.780   4.664  1.00  0.00     0.210 HD
ENDBRANCH   5  19
BRANCH   3  21
HETATM   21  C8  UNL     1      22.918  44.845   9.305  1.00  0.00     0.108 C 
BRANCH  21  22
HETATM   22  S1  UNL     1      23.493  43.260   8.793  1.00  0.00    -0.166 SA
BRANCH  22  23
HETATM   23  C9  UNL     1      22.358  42.267   7.871  1.00  0.00     0.076 C 
BRANCH  23  24
HETATM   24  C10 UNL     1      21.980  40.980   8.546  1.00  0.00     0.054 C 
BRANCH  24  25
HETATM   25  C11 UNL     1      20.508  40.883   8.744  1.00  0.00     0.284 C 
BRANCH  25  26
HETATM   26  N6  UNL     1      20.076  41.392  10.007  1.00  0.00    -0.065 N 
ATOM     27  H63 UNL     1      19.295  40.845  10.371  1.00  0.00     0.275 HD
ATOM     28  H62 UNL     1      20.767  41.199  10.732  1.00  0.00     0.275 HD
ATOM     29  H61 UNL     1      19.844  42.385   9.982  1.00  0.00     0.275 HD
ENDBRANCH  25  26
BRANCH  25  30
HETATM   30  C12 UNL     1      19.976  39.529   8.539  1.00  0.00     0.204 C 
HETATM   31  O2  UNL     1      19.021  39.349   7.759  1.00  0.00    -0.646 OA
HETATM   32  O3  UNL     1      20.526  38.455   9.204  1.00  0.00    -0.646 OA
ENDBRANCH  25  30
ENDBRANCH  24  25
ENDBRANCH  23  24
ENDBRANCH  22  23
ENDBRANCH  21  22
ENDBRANCH   3  21
BRANCH   4  33
HETATM   33  O4  UNL     1      21.291  44.731   6.274  1.00  0.00    -0.390 OA
ATOM     34  H4  UNL     1      21.503  44.382   5.416  1.00  0.00     0.210 HD
ENDBRANCH   4  33
TORSDOF 10
ENDMDL
