MODEL 4
REMARK VINA RESULT: -9.132752219      0.893      1.033
REMARK  10 active torsions:
REMARK  status: ('A' for Active; 'I' for Inactive)
REMARK    1  A    between atoms: N5_13  and  C6_14 
REMARK    2  A    between atoms: C7_16  and  C8_17 
REMARK    3  A    between atoms: C8_17  and  S1_18 
REMARK    4  A    between atoms: S1_18  and  C9_19 
REMARK    5  A    between atoms: C9_19  and  C10_20 
REMARK    6  A    between atoms: C10_20  and  C11_21 
REMARK    7  A    between atoms: C11_21  and  N6_22 
REMARK    8  A    between atoms: C11_21  and  C12_26 
REMARK    9  A    between atoms: C13_29  and  O4_30 
REMARK   10  A    between atoms: C14_32  and  O5_33 
ROOT
HETATM    1  C6  UNL     1      22.899  46.646   6.686  1.00  0.00     0.262 C 
HETATM    2  O1  UNL     1      22.227  46.359   7.886  1.00  0.00    -0.355 OA
HETATM    3  C7  UNL     1      22.265  44.955   7.963  1.00  0.00     0.165 C 
HETATM    4  C13 UNL     1      23.631  44.572   7.451  1.00  0.00     0.180 C 
HETATM    5  C14 UNL     1      24.168  45.883   6.923  1.00  0.00     0.198 C 
ENDROOT
BRANCH   1   6
HETATM    6  N5  UNL     1      23.050  48.056   6.513  1.00  0.00    -0.297 N 
HETATM    7  C3  UNL     1      22.291  48.830   5.719  1.00  0.00     0.142 A 
HETATM    8  N3  UNL     1      21.253  48.579   4.906  1.00  0.00    -0.336 N 
HETATM    9  C4  UNL     1      22.781  50.129   5.858  1.00  0.00     0.119 A 
HETATM   10  C2  UNL     1      20.706  49.604   4.237  1.00  0.00     0.183 A 
ATOM     11  H3  UNL     1      20.888  47.633   4.801  1.00  0.00     0.168 HD
HETATM   12  N2  UNL     1      21.160  50.858   4.355  1.00  0.00    -0.339 N 
HETATM   13  C1  UNL     1      22.196  51.139   5.160  1.00  0.00     0.148 A 
ATOM     14  H2  UNL     1      20.714  51.608   3.827  1.00  0.00     0.167 HD
HETATM   15  N1  UNL     1      22.679  52.479   5.286  1.00  0.00    -0.080 NA
HETATM   16  N4  UNL     1      23.814  50.054   6.735  1.00  0.00    -0.346 N 
HETATM   17  C5  UNL     1      23.983  48.800   7.137  1.00  0.00     0.188 A 
ATOM     18  H4  UNL     1      24.378  50.846   7.040  1.00  0.00     0.167 HD
ENDBRANCH   1   6
BRANCH   5  19
HETATM   19  O5  UNL     1      24.943  45.705   5.786  1.00  0.00    -0.388 OA
ATOM     20  H5  UNL     1      24.450  45.719   4.975  1.00  0.00     0.210 HD
ENDBRANCH   5  19
BRANCH   3  21
HETATM   21  C8  UNL     1      22.169  44.556   9.406  1.00  0.00     0.108 C 
BRANCH  21  22
HETATM   22  S1  UNL     1      23.017  43.095   9.906  1.00  0.00    -0.166 SA
BRANCH  22  23
HETATM   23  C9  UNL     1      22.689  41.630   8.971  1.00  0.00     0.076 C 
BRANCH  23  24
HETATM   24  C10 UNL     1      21.402  41.671   8.198  1.00  0.00     0.054 C 
BRANCH  24  25
HETATM   25  C11 UNL     1      20.361  40.816   8.832  1.00  0.00     0.284 C 
BRANCH  25  26
HETATM   26  N6  UNL     1      20.111  41.154  10.197  1.00  0.00    -0.065 N 
ATOM     27  H63 UNL     1      20.378  40.389  10.816  1.00  0.00     0.275 HD
ATOM     28  H62 UNL     1      20.765  41.867  10.520  1.00  0.00     0.275 HD
ATOM     29  H61 UNL     1      19.147  41.442  10.369  1.00  0.00     0.275 HD
ENDBRANCH  25  26
BRANCH  25  30
HETATM   30  C12 UNL     1      20.632  39.377   8.713  1.00  0.00     0.204 C 
HETATM   31  O2  UNL     1      21.355  38.956   7.789  1.00  0.00    -0.646 OA
HETATM   32  O3  UNL     1      20.093  38.488   9.617  1.00  0.00    -0.646 OA
ENDBRANCH  25  30
ENDBRANCH  24  25
ENDBRANCH  23  24
ENDBRANCH  22  23
ENDBRANCH  21  22
ENDBRANCH   3  21
BRANCH   4  33
HETATM   33  O4  UNL     1      23.511  43.695   6.355  1.00  0.00    -0.390 OA
ATOM     34  H4  UNL     1      23.914  42.859   6.558  1.00  0.00     0.210 HD
ENDBRANCH   4  33
TORSDOF 10
ENDMDL
