MODEL 3
REMARK VINA RESULT: -9.299238652      1.014      1.031
REMARK  10 active torsions:
REMARK  status: ('A' for Active; 'I' for Inactive)
REMARK    1  A    between atoms: N5_13  and  C6_14 
REMARK    2  A    between atoms: C7_16  and  C8_17 
REMARK    3  A    between atoms: C8_17  and  S1_18 
REMARK    4  A    between atoms: S1_18  and  C9_19 
REMARK    5  A    between atoms: C9_19  and  C10_20 
REMARK    6  A    between atoms: C10_20  and  C11_21 
REMARK    7  A    between atoms: C11_21  and  N6_22 
REMARK    8  A    between atoms: C11_21  and  C12_26 
REMARK    9  A    between atoms: C13_29  and  O4_30 
REMARK   10  A    between atoms: C14_32  and  O5_33 
ROOT
HETATM    1  C6  UNL     1      22.344  47.141   7.199  1.00  0.00     0.262 C 
HETATM    2  O1  UNL     1      22.712  46.673   8.472  1.00  0.00    -0.355 OA
HETATM    3  C7  UNL     1      22.301  45.328   8.467  1.00  0.00     0.165 C 
HETATM    4  C13 UNL     1      22.611  44.830   7.077  1.00  0.00     0.180 C 
HETATM    5  C14 UNL     1      23.006  46.097   6.350  1.00  0.00     0.198 C 
ENDROOT
BRANCH   1   6
HETATM    6  N5  UNL     1      22.800  48.479   6.999  1.00  0.00    -0.297 N 
HETATM    7  C3  UNL     1      22.352  49.323   6.054  1.00  0.00     0.142 A 
HETATM    8  N3  UNL     1      21.430  49.215   5.084  1.00  0.00    -0.336 N 
HETATM    9  C4  UNL     1      23.062  50.511   6.224  1.00  0.00     0.119 A 
HETATM   10  C2  UNL     1      21.216  50.273   4.288  1.00  0.00     0.183 A 
ATOM     11  H3  UNL     1      20.906  48.350   4.955  1.00  0.00     0.168 HD
HETATM   12  N2  UNL     1      21.887  51.422   4.434  1.00  0.00    -0.339 N 
HETATM   13  C1  UNL     1      22.813  51.560   5.394  1.00  0.00     0.148 A 
ATOM     14  H2  UNL     1      21.691  52.203   3.806  1.00  0.00     0.167 HD
HETATM   15  N1  UNL     1      23.527  52.789   5.548  1.00  0.00    -0.080 NA
HETATM   16  N4  UNL     1      23.902  50.306   7.269  1.00  0.00    -0.346 N 
HETATM   17  C5  UNL     1      23.750  49.076   7.745  1.00  0.00     0.188 A 
ATOM     18  H4  UNL     1      24.556  50.997   7.636  1.00  0.00     0.167 HD
ENDBRANCH   1   6
BRANCH   5  19
HETATM   19  O5  UNL     1      22.584  46.089   5.029  1.00  0.00    -0.388 OA
ATOM     20  H5  UNL     1      22.503  45.221   4.653  1.00  0.00     0.210 HD
ENDBRANCH   5  19
BRANCH   3  21
HETATM   21  C8  UNL     1      23.149  44.568   9.443  1.00  0.00     0.108 C 
BRANCH  21  22
HETATM   22  S1  UNL     1      22.473  43.098  10.140  1.00  0.00    -0.166 SA
BRANCH  22  23
HETATM   23  C9  UNL     1      21.810  41.916   9.004  1.00  0.00     0.076 C 
BRANCH  23  24
HETATM   24  C10 UNL     1      20.447  41.407   9.375  1.00  0.00     0.054 C 
BRANCH  24  25
HETATM   25  C11 UNL     1      20.089  40.194   8.590  1.00  0.00     0.284 C 
BRANCH  25  26
HETATM   26  N6  UNL     1      19.133  40.453   7.560  1.00  0.00    -0.065 N 
ATOM     27  H63 UNL     1      18.275  40.844   7.950  1.00  0.00     0.275 HD
ATOM     28  H62 UNL     1      19.427  41.238   6.981  1.00  0.00     0.275 HD
ATOM     29  H61 UNL     1      18.930  39.634   6.986  1.00  0.00     0.275 HD
ENDBRANCH  25  26
BRANCH  25  30
HETATM   30  C12 UNL     1      19.639  39.069   9.422  1.00  0.00     0.204 C 
HETATM   31  O2  UNL     1      20.459  38.208   9.795  1.00  0.00    -0.646 OA
HETATM   32  O3  UNL     1      18.317  38.959   9.792  1.00  0.00    -0.646 OA
ENDBRANCH  25  30
ENDBRANCH  24  25
ENDBRANCH  23  24
ENDBRANCH  22  23
ENDBRANCH  21  22
ENDBRANCH   3  21
BRANCH   4  33
HETATM   33  O4  UNL     1      21.441  44.341   6.463  1.00  0.00    -0.390 OA
ATOM     34  H4  UNL     1      21.120  43.579   6.930  1.00  0.00     0.210 HD
ENDBRANCH   4  33
TORSDOF 10
ENDMDL
