MODEL 2
REMARK VINA RESULT: -9.656540380      0.783      1.684
REMARK  10 active torsions:
REMARK  status: ('A' for Active; 'I' for Inactive)
REMARK    1  A    between atoms: N5_13  and  C6_14 
REMARK    2  A    between atoms: C7_16  and  C8_17 
REMARK    3  A    between atoms: C8_17  and  S1_18 
REMARK    4  A    between atoms: S1_18  and  C9_19 
REMARK    5  A    between atoms: C9_19  and  C10_20 
REMARK    6  A    between atoms: C10_20  and  C11_21 
REMARK    7  A    between atoms: C11_21  and  N6_22 
REMARK    8  A    between atoms: C11_21  and  C12_26 
REMARK    9  A    between atoms: C13_29  and  O4_30 
REMARK   10  A    between atoms: C14_32  and  O5_33 
ROOT
HETATM    1  C6  UNL     1      22.436  46.134   6.223  1.00  0.00     0.262 C 
HETATM    2  O1  UNL     1      21.889  45.847   7.485  1.00  0.00    -0.355 OA
HETATM    3  C7  UNL     1      22.410  44.578   7.795  1.00  0.00     0.165 C 
HETATM    4  C13 UNL     1      23.832  44.605   7.290  1.00  0.00     0.180 C 
HETATM    5  C14 UNL     1      23.887  45.909   6.524  1.00  0.00     0.198 C 
ENDROOT
BRANCH   1   6
HETATM    6  N5  UNL     1      22.090  47.456   5.809  1.00  0.00    -0.297 N 
HETATM    7  C3  UNL     1      22.841  48.554   5.996  1.00  0.00     0.142 A 
HETATM    8  N3  UNL     1      24.036  48.767   6.570  1.00  0.00    -0.336 N 
HETATM    9  C4  UNL     1      22.128  49.615   5.436  1.00  0.00     0.119 A 
HETATM   10  C2  UNL     1      24.519  50.018   6.591  1.00  0.00     0.183 A 
ATOM     11  H3  UNL     1      24.563  47.997   6.980  1.00  0.00     0.168 HD
HETATM   12  N2  UNL     1      23.851  51.050   6.060  1.00  0.00    -0.339 N 
HETATM   13  C1  UNL     1      22.656  50.868   5.479  1.00  0.00     0.148 A 
ATOM     14  H2  UNL     1      24.256  51.986   6.098  1.00  0.00     0.167 HD
HETATM   15  N1  UNL     1      21.945  51.971   4.911  1.00  0.00    -0.080 NA
HETATM   16  N4  UNL     1      20.982  49.084   4.943  1.00  0.00    -0.346 N 
HETATM   17  C5  UNL     1      20.950  47.776   5.165  1.00  0.00     0.188 A 
ATOM     18  H4  UNL     1      20.250  49.613   4.470  1.00  0.00     0.167 HD
ENDBRANCH   1   6
BRANCH   5  19
HETATM   19  O5  UNL     1      24.692  45.814   5.398  1.00  0.00    -0.388 OA
ATOM     20  H5  UNL     1      25.170  44.996   5.331  1.00  0.00     0.210 HD
ENDBRANCH   5  19
BRANCH   3  21
HETATM   21  C8  UNL     1      22.440  44.428   9.287  1.00  0.00     0.108 C 
BRANCH  21  22
HETATM   22  S1  UNL     1      22.371  42.794   9.944  1.00  0.00    -0.166 SA
BRANCH  22  23
HETATM   23  C9  UNL     1      21.746  41.535   8.873  1.00  0.00     0.076 C 
BRANCH  23  24
HETATM   24  C10 UNL     1      20.268  41.300   9.000  1.00  0.00     0.054 C 
BRANCH  24  25
HETATM   25  C11 UNL     1      19.867  40.016   8.362  1.00  0.00     0.284 C 
BRANCH  25  26
HETATM   26  N6  UNL     1      18.813  40.167   7.409  1.00  0.00    -0.065 N 
ATOM     27  H63 UNL     1      17.973  39.676   7.715  1.00  0.00     0.275 HD
ATOM     28  H62 UNL     1      18.458  41.123   7.409  1.00  0.00     0.275 HD
ATOM     29  H61 UNL     1      19.080  39.879   6.467  1.00  0.00     0.275 HD
ENDBRANCH  25  26
BRANCH  25  30
HETATM   30  C12 UNL     1      19.522  38.964   9.328  1.00  0.00     0.204 C 
HETATM   31  O2  UNL     1      20.414  38.219   9.778  1.00  0.00    -0.646 OA
HETATM   32  O3  UNL     1      18.219  38.794   9.741  1.00  0.00    -0.646 OA
ENDBRANCH  25  30
ENDBRANCH  24  25
ENDBRANCH  23  24
ENDBRANCH  22  23
ENDBRANCH  21  22
ENDBRANCH   3  21
BRANCH   4  33
HETATM   33  O4  UNL     1      24.040  43.565   6.363  1.00  0.00    -0.390 OA
ATOM     34  H4  UNL     1      24.449  43.903   5.576  1.00  0.00     0.210 HD
ENDBRANCH   4  33
TORSDOF 10
ENDMDL
