MODEL 1
REMARK VINA RESULT: -10.056955581      0.000      0.000
REMARK  10 active torsions:
REMARK  status: ('A' for Active; 'I' for Inactive)
REMARK    1  A    between atoms: N5_13  and  C6_14 
REMARK    2  A    between atoms: C7_16  and  C8_17 
REMARK    3  A    between atoms: C8_17  and  S1_18 
REMARK    4  A    between atoms: S1_18  and  C9_19 
REMARK    5  A    between atoms: C9_19  and  C10_20 
REMARK    6  A    between atoms: C10_20  and  C11_21 
REMARK    7  A    between atoms: C11_21  and  N6_22 
REMARK    8  A    between atoms: C11_21  and  C12_26 
REMARK    9  A    between atoms: C13_29  and  O4_30 
REMARK   10  A    between atoms: C14_32  and  O5_33 
ROOT
HETATM    1  C6  UNL     1      22.875  46.440   6.715  1.00  0.00     0.262 C 
HETATM    2  O1  UNL     1      22.278  46.155   7.954  1.00  0.00    -0.355 OA
HETATM    3  C7  UNL     1      22.338  44.753   8.041  1.00  0.00     0.165 C 
HETATM    4  C13 UNL     1      23.677  44.382   7.454  1.00  0.00     0.180 C 
HETATM    5  C14 UNL     1      24.166  45.695   6.884  1.00  0.00     0.198 C 
ENDROOT
BRANCH   1   6
HETATM    6  N5  UNL     1      22.997  47.849   6.521  1.00  0.00    -0.297 N 
HETATM    7  C3  UNL     1      22.219  48.597   5.721  1.00  0.00     0.142 A 
HETATM    8  N3  UNL     1      21.181  48.315   4.918  1.00  0.00    -0.336 N 
HETATM    9  C4  UNL     1      22.684  49.908   5.840  1.00  0.00     0.119 A 
HETATM   10  C2  UNL     1      20.611  49.319   4.237  1.00  0.00     0.183 A 
ATOM     11  H3  UNL     1      20.835  47.360   4.828  1.00  0.00     0.168 HD
HETATM   12  N2  UNL     1      21.041  50.583   4.336  1.00  0.00    -0.339 N 
HETATM   13  C1  UNL     1      22.075  50.896   5.131  1.00  0.00     0.148 A 
ATOM     14  H2  UNL     1      20.577  51.317   3.800  1.00  0.00     0.167 HD
HETATM   15  N1  UNL     1      22.532  52.247   5.235  1.00  0.00    -0.080 NA
HETATM   16  N4  UNL     1      23.722  49.865   6.711  1.00  0.00    -0.346 N 
HETATM   17  C5  UNL     1      23.919  48.621   7.130  1.00  0.00     0.188 A 
ATOM     18  H4  UNL     1      24.272  50.673   7.003  1.00  0.00     0.167 HD
ENDBRANCH   1   6
BRANCH   5  19
HETATM   19  O5  UNL     1      24.875  45.516   5.706  1.00  0.00    -0.388 OA
ATOM     20  H5  UNL     1      25.753  45.176   5.830  1.00  0.00     0.210 HD
ENDBRANCH   5  19
BRANCH   3  21
HETATM   21  C8  UNL     1      22.332  44.365   9.490  1.00  0.00     0.108 C 
BRANCH  21  22
HETATM   22  S1  UNL     1      22.478  42.653   9.878  1.00  0.00    -0.166 SA
BRANCH  22  23
HETATM   23  C9  UNL     1      21.752  41.517   8.735  1.00  0.00     0.076 C 
BRANCH  23  24
HETATM   24  C10 UNL     1      20.289  41.267   8.965  1.00  0.00     0.054 C 
BRANCH  24  25
HETATM   25  C11 UNL     1      19.859  39.973   8.367  1.00  0.00     0.284 C 
BRANCH  25  26
HETATM   26  N6  UNL     1      18.816  40.119   7.402  1.00  0.00    -0.065 N 
ATOM     27  H63 UNL     1      17.904  39.938   7.822  1.00  0.00     0.275 HD
ATOM     28  H62 UNL     1      18.691  41.099   7.148  1.00  0.00     0.275 HD
ATOM     29  H61 UNL     1      18.954  39.544   6.571  1.00  0.00     0.275 HD
ENDBRANCH  25  26
BRANCH  25  30
HETATM   30  C12 UNL     1      19.482  38.962   9.365  1.00  0.00     0.204 C 
HETATM   31  O2  UNL     1      20.353  38.214   9.848  1.00  0.00    -0.646 OA
HETATM   32  O3  UNL     1      18.172  38.836   9.770  1.00  0.00    -0.646 OA
ENDBRANCH  25  30
ENDBRANCH  24  25
ENDBRANCH  23  24
ENDBRANCH  22  23
ENDBRANCH  21  22
ENDBRANCH   3  21
BRANCH   4  33
HETATM   33  O4  UNL     1      23.505  43.493   6.374  1.00  0.00    -0.390 OA
ATOM     34  H4  UNL     1      23.314  42.620   6.694  1.00  0.00     0.210 HD
ENDBRANCH   4  33
TORSDOF 10
ENDMDL
