MODEL 13
REMARK VINA RESULT: -7.917805664      5.026      9.849
REMARK  10 active torsions:
REMARK  status: ('A' for Active; 'I' for Inactive)
REMARK    1  A    between atoms: N5_13  and  C6_14 
REMARK    2  A    between atoms: C7_16  and  C8_17 
REMARK    3  A    between atoms: C8_17  and  S1_18 
REMARK    4  A    between atoms: S1_18  and  C9_19 
REMARK    5  A    between atoms: C9_19  and  C10_20 
REMARK    6  A    between atoms: C10_20  and  C11_21 
REMARK    7  A    between atoms: C11_21  and  N6_22 
REMARK    8  A    between atoms: C11_21  and  C12_26 
REMARK    9  A    between atoms: C13_29  and  O4_30 
REMARK   10  A    between atoms: C14_32  and  O5_33 
ROOT
HETATM    1  C6  UNL     1      21.989  48.296   5.676  1.00  0.00     0.262 C 
HETATM    2  O1  UNL     1      22.534  49.561   5.952  1.00  0.00    -0.355 OA
HETATM    3  C7  UNL     1      22.155  50.338   4.842  1.00  0.00     0.165 C 
HETATM    4  C13 UNL     1      20.753  49.890   4.511  1.00  0.00     0.180 C 
HETATM    5  C14 UNL     1      20.566  48.690   5.413  1.00  0.00     0.198 C 
ENDROOT
BRANCH   1   6
HETATM    6  N5  UNL     1      22.190  47.406   6.775  1.00  0.00    -0.297 N 
HETATM    7  C3  UNL     1      23.076  46.397   6.810  1.00  0.00     0.142 A 
HETATM    8  N3  UNL     1      23.974  45.928   5.929  1.00  0.00    -0.336 N 
HETATM    9  C4  UNL     1      22.938  45.800   8.063  1.00  0.00     0.119 A 
HETATM   10  C2  UNL     1      24.726  44.876   6.285  1.00  0.00     0.183 A 
ATOM     11  H3  UNL     1      24.082  46.360   5.012  1.00  0.00     0.168 HD
HETATM   12  N2  UNL     1      24.609  44.288   7.483  1.00  0.00    -0.339 N 
HETATM   13  C1  UNL     1      23.722  44.735   8.384  1.00  0.00     0.148 A 
ATOM     14  H2  UNL     1      25.202  43.490   7.712  1.00  0.00     0.167 HD
HETATM   15  N1  UNL     1      23.599  44.106   9.662  1.00  0.00    -0.080 NA
HETATM   16  N4  UNL     1      21.967  46.493   8.709  1.00  0.00    -0.346 N 
HETATM   17  C5  UNL     1      21.508  47.469   7.935  1.00  0.00     0.188 A 
ATOM     18  H4  UNL     1      21.638  46.293   9.653  1.00  0.00     0.167 HD
ENDBRANCH   1   6
BRANCH   5  19
HETATM   19  O5  UNL     1      19.807  47.700   4.807  1.00  0.00    -0.388 OA
ATOM     20  H5  UNL     1      18.876  47.760   4.987  1.00  0.00     0.210 HD
ENDBRANCH   5  19
BRANCH   3  21
HETATM   21  C8  UNL     1      22.106  51.776   5.264  1.00  0.00     0.108 C 
BRANCH  21  22
HETATM   22  S1  UNL     1      23.639  52.605   5.522  1.00  0.00    -0.166 SA
BRANCH  22  23
HETATM   23  C9  UNL     1      23.979  53.146   7.171  1.00  0.00     0.076 C 
BRANCH  23  24
HETATM   24  C10 UNL     1      24.290  54.611   7.283  1.00  0.00     0.054 C 
BRANCH  24  25
HETATM   25  C11 UNL     1      24.279  55.061   8.701  1.00  0.00     0.284 C 
BRANCH  25  26
HETATM   26  N6  UNL     1      24.158  53.983   9.632  1.00  0.00    -0.065 N 
ATOM     27  H63 UNL     1      25.066  53.744  10.031  1.00  0.00     0.275 HD
ATOM     28  H62 UNL     1      23.678  54.287  10.478  1.00  0.00     0.275 HD
ATOM     29  H61 UNL     1      23.706  53.159   9.235  1.00  0.00     0.275 HD
ENDBRANCH  25  26
BRANCH  25  30
HETATM   30  C12 UNL     1      23.263  56.084   8.984  1.00  0.00     0.204 C 
HETATM   31  O2  UNL     1      22.896  56.860   8.081  1.00  0.00    -0.646 OA
HETATM   32  O3  UNL     1      22.713  56.193  10.243  1.00  0.00    -0.646 OA
ENDBRANCH  25  30
ENDBRANCH  24  25
ENDBRANCH  23  24
ENDBRANCH  22  23
ENDBRANCH  21  22
ENDBRANCH   3  21
BRANCH   4  33
HETATM   33  O4  UNL     1      20.690  49.430   3.181  1.00  0.00    -0.390 OA
ATOM     34  H4  UNL     1      20.073  49.951   2.682  1.00  0.00     0.210 HD
ENDBRANCH   4  33
TORSDOF 10
ENDMDL
