MODEL 16
REMARK VINA RESULT: -7.481588622      4.942     10.374
REMARK  10 active torsions:
REMARK  status: ('A' for Active; 'I' for Inactive)
REMARK    1  A    between atoms: N5_13  and  C6_14 
REMARK    2  A    between atoms: C7_16  and  C8_17 
REMARK    3  A    between atoms: C8_17  and  S1_18 
REMARK    4  A    between atoms: S1_18  and  C9_19 
REMARK    5  A    between atoms: C9_19  and  C10_20 
REMARK    6  A    between atoms: C10_20  and  C11_21 
REMARK    7  A    between atoms: C11_21  and  N6_22 
REMARK    8  A    between atoms: C11_21  and  C12_26 
REMARK    9  A    between atoms: C13_29  and  O4_30 
REMARK   10  A    between atoms: C14_32  and  O5_33 
ROOT
HETATM    1  C6  UNL     1      21.949  48.222   5.710  1.00  0.00     0.262 C 
HETATM    2  O1  UNL     1      22.544  49.473   5.941  1.00  0.00    -0.355 OA
HETATM    3  C7  UNL     1      22.145  50.244   4.834  1.00  0.00     0.165 C 
HETATM    4  C13 UNL     1      20.717  49.836   4.568  1.00  0.00     0.180 C 
HETATM    5  C14 UNL     1      20.529  48.657   5.497  1.00  0.00     0.198 C 
ENDROOT
BRANCH   1   6
HETATM    6  N5  UNL     1      22.166  47.344   6.815  1.00  0.00    -0.297 N 
HETATM    7  C3  UNL     1      23.054  46.337   6.849  1.00  0.00     0.142 A 
HETATM    8  N3  UNL     1      23.941  45.859   5.962  1.00  0.00    -0.336 N 
HETATM    9  C4  UNL     1      22.934  45.753   8.111  1.00  0.00     0.119 A 
HETATM   10  C2  UNL     1      24.699  44.813   6.319  1.00  0.00     0.183 A 
ATOM     11  H3  UNL     1      24.036  46.282   5.039  1.00  0.00     0.168 HD
HETATM   12  N2  UNL     1      24.600  44.237   7.523  1.00  0.00    -0.339 N 
HETATM   13  C1  UNL     1      23.723  44.693   8.432  1.00  0.00     0.148 A 
ATOM     14  H2  UNL     1      25.197  43.443   7.754  1.00  0.00     0.167 HD
HETATM   15  N1  UNL     1      23.619  44.077   9.718  1.00  0.00    -0.080 NA
HETATM   16  N4  UNL     1      21.970  46.451   8.762  1.00  0.00    -0.346 N 
HETATM   17  C5  UNL     1      21.499  47.418   7.984  1.00  0.00     0.188 A 
ATOM     18  H4  UNL     1      21.654  46.261   9.713  1.00  0.00     0.167 HD
ENDBRANCH   1   6
BRANCH   5  19
HETATM   19  O5  UNL     1      19.715  47.683   4.940  1.00  0.00    -0.388 OA
ATOM     20  H5  UNL     1      18.937  47.490   5.449  1.00  0.00     0.210 HD
ENDBRANCH   5  19
BRANCH   3  21
HETATM   21  C8  UNL     1      22.159  51.689   5.232  1.00  0.00     0.108 C 
BRANCH  21  22
HETATM   22  S1  UNL     1      23.398  52.212   6.371  1.00  0.00    -0.166 SA
BRANCH  22  23
HETATM   23  C9  UNL     1      24.080  53.823   6.115  1.00  0.00     0.076 C 
BRANCH  23  24
HETATM   24  C10 UNL     1      24.398  54.133   4.681  1.00  0.00     0.054 C 
BRANCH  24  25
HETATM   25  C11 UNL     1      24.307  55.593   4.409  1.00  0.00     0.284 C 
BRANCH  25  26
HETATM   26  N6  UNL     1      24.513  55.923   3.034  1.00  0.00    -0.065 N 
ATOM     27  H63 UNL     1      25.504  55.886   2.795  1.00  0.00     0.275 HD
ATOM     28  H62 UNL     1      24.167  55.180   2.427  1.00  0.00     0.275 HD
ATOM     29  H61 UNL     1      24.109  56.822   2.772  1.00  0.00     0.275 HD
ENDBRANCH  25  26
BRANCH  25  30
HETATM   30  C12 UNL     1      25.191  56.404   5.257  1.00  0.00     0.204 C 
HETATM   31  O2  UNL     1      24.704  57.250   6.031  1.00  0.00    -0.646 OA
HETATM   32  O3  UNL     1      26.558  56.237   5.202  1.00  0.00    -0.646 OA
ENDBRANCH  25  30
ENDBRANCH  24  25
ENDBRANCH  23  24
ENDBRANCH  22  23
ENDBRANCH  21  22
ENDBRANCH   3  21
BRANCH   4  33
HETATM   33  O4  UNL     1      20.586  49.356   3.249  1.00  0.00    -0.390 OA
ATOM     34  H4  UNL     1      19.879  49.808   2.805  1.00  0.00     0.210 HD
ENDBRANCH   4  33
TORSDOF 10
ENDMDL
