MODEL 5
REMARK VINA RESULT: -7.332872586      1.837      3.614
REMARK  4 active torsions:
REMARK  status: ('A' for Active; 'I' for Inactive)
REMARK    1  A    between atoms: N4_11  and  C5_12 
REMARK    2  A    between atoms: C7_14  and  O2_15 
REMARK    3  A    between atoms: C8_17  and  C9_18 
REMARK    4  A    between atoms: C9_18  and  O3_19 
ROOT
HETATM    1  N1  UNL     1       3.161  28.937  -5.988  1.00  0.00    -0.063 NA
HETATM    2  C1  UNL     1       1.852  28.337  -5.996  1.00  0.00     0.196 A 
HETATM    3  N2  UNL     1       1.235  28.108  -4.808  1.00  0.00    -0.314 N 
ATOM      4  H2  UNL     1       1.684  28.354  -3.925  1.00  0.00     0.170 HD
HETATM    5  C2  UNL     1       0.032  27.555  -4.834  1.00  0.00     0.149 A 
HETATM    6  C3  UNL     1      -0.561  27.231  -6.038  1.00  0.00     0.150 A 
HETATM    7  N3  UNL     1      -1.751  26.698  -5.772  1.00  0.00    -0.300 N 
ATOM      8  H3  UNL     1      -2.419  26.360  -6.465  1.00  0.00     0.171 HD
HETATM    9  C4  UNL     1      -1.925  26.678  -4.445  1.00  0.00     0.331 A 
HETATM   10  O1  UNL     1      -2.961  26.228  -3.890  1.00  0.00    -0.246 OA
HETATM   11  N4  UNL     1      -0.816  27.211  -3.868  1.00  0.00    -0.255 N 
HETATM   12  C10 UNL     1       0.067  27.463  -7.251  1.00  0.00     0.278 A 
HETATM   13  O5  UNL     1      -0.442  27.180  -8.349  1.00  0.00    -0.265 OA
HETATM   14  N5  UNL     1       1.296  28.029  -7.175  1.00  0.00    -0.295 N 
ATOM     15  H5  UNL     1       1.809  28.226  -8.035  1.00  0.00     0.171 HD
ENDROOT
BRANCH  11  16
HETATM   16  C5  UNL     1      -0.715  27.321  -2.447  1.00  0.00     0.237 C 
HETATM   17  C6  UNL     1      -0.016  26.108  -1.823  1.00  0.00     0.088 C 
HETATM   18  C7  UNL     1       0.378  26.690  -0.468  1.00  0.00     0.153 C 
HETATM   19  C8  UNL     1      -0.036  28.139  -0.592  1.00  0.00     0.176 C 
HETATM   20  O4  UNL     1       0.047  28.354  -1.987  1.00  0.00    -0.356 OA
BRANCH  18  21
HETATM   21  O2  UNL     1      -0.375  26.033   0.514  1.00  0.00    -0.393 OA
ATOM     22  H2  UNL     1      -0.594  25.171   0.183  1.00  0.00     0.210 HD
ENDBRANCH  18  21
BRANCH  19  23
HETATM   23  C9  UNL     1       0.899  29.056   0.155  1.00  0.00     0.198 C 
BRANCH  23  24
HETATM   24  O3  UNL     1       1.179  30.211  -0.529  1.00  0.00    -0.398 OA
ATOM     25  H3  UNL     1       1.954  30.656  -0.207  1.00  0.00     0.209 HD
ENDBRANCH  23  24
ENDBRANCH  19  23
ENDBRANCH  11  16
TORSDOF 4
ENDMDL
