MODEL 14
REMARK VINA RESULT: -6.933961889      2.701      5.732
REMARK  4 active torsions:
REMARK  status: ('A' for Active; 'I' for Inactive)
REMARK    1  A    between atoms: N4_11  and  C5_12 
REMARK    2  A    between atoms: C7_14  and  O2_15 
REMARK    3  A    between atoms: C8_17  and  C9_18 
REMARK    4  A    between atoms: C9_18  and  O3_19 
ROOT
HETATM    1  N1  UNL     1       2.573  30.864  -0.349  1.00  0.00    -0.063 NA
HETATM    2  C1  UNL     1       1.977  29.818  -1.139  1.00  0.00     0.196 A 
HETATM    3  N2  UNL     1       2.345  29.698  -2.441  1.00  0.00    -0.314 N 
ATOM      4  H2  UNL     1       3.028  30.331  -2.857  1.00  0.00     0.170 HD
HETATM    5  C2  UNL     1       1.786  28.730  -3.152  1.00  0.00     0.149 A 
HETATM    6  C3  UNL     1       0.864  27.881  -2.573  1.00  0.00     0.150 A 
HETATM    7  N3  UNL     1       0.470  27.016  -3.503  1.00  0.00    -0.300 N 
ATOM      8  H3  UNL     1      -0.209  26.266  -3.369  1.00  0.00     0.171 HD
HETATM    9  C4  UNL     1       1.113  27.291  -4.645  1.00  0.00     0.331 A 
HETATM   10  O1  UNL     1       0.947  26.638  -5.708  1.00  0.00    -0.246 OA
HETATM   11  N4  UNL     1       1.929  28.356  -4.421  1.00  0.00    -0.255 N 
HETATM   12  C10 UNL     1       0.488  28.004  -1.245  1.00  0.00     0.278 A 
HETATM   13  O5  UNL     1      -0.340  27.255  -0.698  1.00  0.00    -0.265 OA
HETATM   14  N5  UNL     1       1.084  29.007  -0.557  1.00  0.00    -0.295 N 
ATOM     15  H5  UNL     1       0.849  29.148   0.425  1.00  0.00     0.171 HD
ENDROOT
BRANCH  11  16
HETATM   16  C5  UNL     1       2.747  28.879  -5.468  1.00  0.00     0.237 C 
HETATM   17  C6  UNL     1       1.939  29.713  -6.470  1.00  0.00     0.088 C 
HETATM   18  C7  UNL     1       3.063  30.505  -7.132  1.00  0.00     0.153 C 
HETATM   19  C8  UNL     1       4.278  30.097  -6.330  1.00  0.00     0.176 C 
HETATM   20  O4  UNL     1       3.711  29.761  -5.079  1.00  0.00    -0.356 OA
BRANCH  18  21
HETATM   21  O2  UNL     1       3.166  30.070  -8.460  1.00  0.00    -0.393 OA
ATOM     22  H2  UNL     1       3.873  29.437  -8.503  1.00  0.00     0.210 HD
ENDBRANCH  18  21
BRANCH  19  23
HETATM   23  C9  UNL     1       5.265  31.228  -6.193  1.00  0.00     0.198 C 
BRANCH  23  24
HETATM   24  O3  UNL     1       5.393  31.972  -7.337  1.00  0.00    -0.398 OA
ATOM     25  H3  UNL     1       6.012  31.600  -7.955  1.00  0.00     0.209 HD
ENDBRANCH  23  24
ENDBRANCH  19  23
ENDBRANCH  11  16
TORSDOF 4
ENDMDL
