MODEL 13
REMARK VINA RESULT: -6.968065809      3.262      5.813
REMARK  4 active torsions:
REMARK  status: ('A' for Active; 'I' for Inactive)
REMARK    1  A    between atoms: N4_11  and  C5_12 
REMARK    2  A    between atoms: C7_14  and  O2_15 
REMARK    3  A    between atoms: C8_17  and  C9_18 
REMARK    4  A    between atoms: C9_18  and  O3_19 
ROOT
HETATM    1  N1  UNL     1       2.499  30.533  -0.868  1.00  0.00    -0.063 NA
HETATM    2  C1  UNL     1       2.240  29.527  -1.865  1.00  0.00     0.196 A 
HETATM    3  N2  UNL     1       2.506  29.817  -3.164  1.00  0.00    -0.314 N 
ATOM      4  H2  UNL     1       2.882  30.726  -3.436  1.00  0.00     0.170 HD
HETATM    5  C2  UNL     1       2.261  28.880  -4.068  1.00  0.00     0.149 A 
HETATM    6  C3  UNL     1       1.753  27.655  -3.683  1.00  0.00     0.150 A 
HETATM    7  N3  UNL     1       1.606  26.915  -4.779  1.00  0.00    -0.300 N 
ATOM      8  H3  UNL     1       1.249  25.960  -4.808  1.00  0.00     0.171 HD
HETATM    9  C4  UNL     1       2.004  27.633  -5.837  1.00  0.00     0.331 A 
HETATM   10  O1  UNL     1       1.981  27.196  -7.017  1.00  0.00    -0.246 OA
HETATM   11  N4  UNL     1       2.410  28.851  -5.390  1.00  0.00    -0.255 N 
HETATM   12  C10 UNL     1       1.481  27.358  -2.357  1.00  0.00     0.278 A 
HETATM   13  O5  UNL     1       1.023  26.265  -1.982  1.00  0.00    -0.265 OA
HETATM   14  N5  UNL     1       1.746  28.346  -1.469  1.00  0.00    -0.295 N 
ATOM     15  H5  UNL     1       1.567  28.188  -0.477  1.00  0.00     0.171 HD
ENDROOT
BRANCH  11  16
HETATM   16  C5  UNL     1       2.892  29.838  -6.302  1.00  0.00     0.237 C 
HETATM   17  C6  UNL     1       1.758  30.480  -7.110  1.00  0.00     0.088 C 
HETATM   18  C7  UNL     1       2.453  31.752  -7.590  1.00  0.00     0.153 C 
HETATM   19  C8  UNL     1       3.791  31.689  -6.887  1.00  0.00     0.176 C 
HETATM   20  O4  UNL     1       3.486  30.927  -5.735  1.00  0.00    -0.356 OA
BRANCH  18  21
HETATM   21  O2  UNL     1       2.609  31.655  -8.979  1.00  0.00    -0.393 OA
ATOM     22  H2  UNL     1       1.824  32.004  -9.383  1.00  0.00     0.210 HD
ENDBRANCH  18  21
BRANCH  19  23
HETATM   23  C9  UNL     1       4.294  33.059  -6.514  1.00  0.00     0.198 C 
BRANCH  23  24
HETATM   24  O3  UNL     1       4.705  33.794  -7.595  1.00  0.00    -0.398 OA
ATOM     25  H3  UNL     1       5.644  33.753  -7.739  1.00  0.00     0.209 HD
ENDBRANCH  23  24
ENDBRANCH  19  23
ENDBRANCH  11  16
TORSDOF 4
ENDMDL
