MODEL 1
REMARK VINA RESULT: -7.446572542      0.000      0.000
REMARK  4 active torsions:
REMARK  status: ('A' for Active; 'I' for Inactive)
REMARK    1  A    between atoms: N4_11  and  C5_12 
REMARK    2  A    between atoms: C7_14  and  O2_15 
REMARK    3  A    between atoms: C8_17  and  C9_18 
REMARK    4  A    between atoms: C9_18  and  O3_19 
ROOT
HETATM    1  N1  UNL     1      -3.097  26.755  -4.134  1.00  0.00    -0.063 NA
HETATM    2  C1  UNL     1      -1.785  26.944  -4.695  1.00  0.00     0.196 A 
HETATM    3  N2  UNL     1      -0.795  27.408  -3.890  1.00  0.00    -0.314 N 
ATOM      4  H2  UNL     1      -0.970  27.620  -2.907  1.00  0.00     0.170 HD
HETATM    5  C2  UNL     1       0.406  27.575  -4.423  1.00  0.00     0.149 A 
HETATM    6  C3  UNL     1       0.625  27.282  -5.754  1.00  0.00     0.150 A 
HETATM    7  N3  UNL     1       1.904  27.539  -6.020  1.00  0.00    -0.300 N 
ATOM      8  H3  UNL     1       2.359  27.419  -6.925  1.00  0.00     0.171 HD
HETATM    9  C4  UNL     1       2.493  27.982  -4.903  1.00  0.00     0.331 A 
HETATM   10  O1  UNL     1       3.707  28.308  -4.844  1.00  0.00    -0.246 OA
HETATM   11  N4  UNL     1       1.559  28.003  -3.915  1.00  0.00    -0.255 N 
HETATM   12  C10 UNL     1      -0.384  26.809  -6.577  1.00  0.00     0.278 A 
HETATM   13  O5  UNL     1      -0.215  26.537  -7.779  1.00  0.00    -0.265 OA
HETATM   14  N5  UNL     1      -1.595  26.653  -5.989  1.00  0.00    -0.295 N 
ATOM     15  H5  UNL     1      -2.379  26.308  -6.542  1.00  0.00     0.171 HD
ENDROOT
BRANCH  11  16
HETATM   16  C5  UNL     1       1.902  28.435  -2.597  1.00  0.00     0.237 C 
HETATM   17  C6  UNL     1       1.750  29.952  -2.431  1.00  0.00     0.088 C 
HETATM   18  C7  UNL     1       1.691  30.053  -0.909  1.00  0.00     0.153 C 
HETATM   19  C8  UNL     1       1.688  28.604  -0.477  1.00  0.00     0.176 C 
HETATM   20  O4  UNL     1       1.109  27.960  -1.595  1.00  0.00    -0.356 OA
BRANCH  18  21
HETATM   21  O2  UNL     1       2.854  30.704  -0.478  1.00  0.00    -0.393 OA
ATOM     22  H2  UNL     1       2.764  30.872   0.452  1.00  0.00     0.210 HD
ENDBRANCH  18  21
BRANCH  19  23
HETATM   23  C9  UNL     1       0.857  28.389   0.763  1.00  0.00     0.198 C 
BRANCH  23  24
HETATM   24  O3  UNL     1      -0.478  28.626   0.562  1.00  0.00    -0.398 OA
ATOM     25  H3  UNL     1      -0.727  28.604  -0.355  1.00  0.00     0.209 HD
ENDBRANCH  23  24
ENDBRANCH  19  23
ENDBRANCH  11  16
TORSDOF 4
ENDMDL
