MODEL 4
REMARK VINA RESULT: -7.369127981      1.964      3.722
REMARK  4 active torsions:
REMARK  status: ('A' for Active; 'I' for Inactive)
REMARK    1  A    between atoms: N4_11  and  C5_12 
REMARK    2  A    between atoms: C7_14  and  O2_15 
REMARK    3  A    between atoms: C8_17  and  C9_18 
REMARK    4  A    between atoms: C9_18  and  O3_19 
ROOT
HETATM    1  N1  UNL     1       4.390  29.891  -4.812  1.00  0.00    -0.063 NA
HETATM    2  C1  UNL     1       3.192  29.186  -5.188  1.00  0.00     0.196 A 
HETATM    3  N2  UNL     1       2.346  28.774  -4.209  1.00  0.00    -0.314 N 
ATOM      4  H2  UNL     1       2.548  28.957  -3.226  1.00  0.00     0.170 HD
HETATM    5  C2  UNL     1       1.250  28.127  -4.574  1.00  0.00     0.149 A 
HETATM    6  C3  UNL     1       0.991  27.888  -5.909  1.00  0.00     0.150 A 
HETATM    7  N3  UNL     1      -0.162  27.229  -5.986  1.00  0.00    -0.300 N 
ATOM      8  H3  UNL     1      -0.610  26.915  -6.847  1.00  0.00     0.171 HD
HETATM    9  C4  UNL     1      -0.635  27.046  -4.748  1.00  0.00     0.331 A 
HETATM   10  O1  UNL     1      -1.716  26.450  -4.501  1.00  0.00    -0.246 OA
HETATM   11  N4  UNL     1       0.244  27.606  -3.875  1.00  0.00    -0.255 N 
HETATM   12  C10 UNL     1       1.854  28.308  -6.909  1.00  0.00     0.278 A 
HETATM   13  O5  UNL     1       1.647  28.106  -8.118  1.00  0.00    -0.265 OA
HETATM   14  N5  UNL     1       2.962  28.965  -6.489  1.00  0.00    -0.295 N 
ATOM     15  H5  UNL     1       3.635  29.299  -7.178  1.00  0.00     0.171 HD
ENDROOT
BRANCH  11  16
HETATM   16  C5  UNL     1       0.000  27.565  -2.468  1.00  0.00     0.237 C 
HETATM   17  C6  UNL     1       0.454  26.241  -1.842  1.00  0.00     0.088 C 
HETATM   18  C7  UNL     1       0.538  26.650  -0.374  1.00  0.00     0.153 C 
HETATM   19  C8  UNL     1       0.251  28.134  -0.422  1.00  0.00     0.176 C 
HETATM   20  O4  UNL     1       0.685  28.479  -1.723  1.00  0.00    -0.356 OA
BRANCH  18  21
HETATM   21  O2  UNL     1      -0.469  25.964   0.318  1.00  0.00    -0.393 OA
ATOM     22  H2  UNL     1      -1.079  26.610   0.655  1.00  0.00     0.210 HD
ENDBRANCH  18  21
BRANCH  19  23
HETATM   23  C9  UNL     1       1.026  28.889   0.627  1.00  0.00     0.198 C 
BRANCH  23  24
HETATM   24  O3  UNL     1       1.774  29.914   0.108  1.00  0.00    -0.398 OA
ATOM     25  H3  UNL     1       2.394  30.276   0.730  1.00  0.00     0.209 HD
ENDBRANCH  23  24
ENDBRANCH  19  23
ENDBRANCH  11  16
TORSDOF 4
ENDMDL
