MODEL 5
REMARK VINA RESULT: -6.494955084      1.415      2.559
REMARK  4 active torsions:
REMARK  status: ('A' for Active; 'I' for Inactive)
REMARK    1  A    between atoms: N5_14  and  C6_15 
REMARK    2  A    between atoms: C8_17  and  O2_18 
REMARK    3  A    between atoms: C9_20  and  C10_21 
REMARK    4  A    between atoms: C10_21  and  O3_22 
ROOT
HETATM    1  N1  UNL     1      -0.083  12.925  21.745  1.00  0.00    -0.080 NA
HETATM    2  C1  UNL     1       0.101  12.871  23.152  1.00  0.00     0.148 A 
HETATM    3  N2  UNL     1      -0.519  13.664  24.017  1.00  0.00    -0.339 N 
ATOM      4  H2  UNL     1      -1.171  14.359  23.653  1.00  0.00     0.167 HD
HETATM    5  C2  UNL     1      -0.335  13.601  25.348  1.00  0.00     0.183 A 
HETATM    6  N3  UNL     1       0.520  12.693  25.853  1.00  0.00    -0.336 N 
ATOM      7  H3  UNL     1       0.678  12.625  26.859  1.00  0.00     0.168 HD
HETATM    8  C3  UNL     1       1.160  11.877  24.997  1.00  0.00     0.145 A 
HETATM    9  C4  UNL     1       0.986  11.925  23.628  1.00  0.00     0.122 A 
HETATM   10  N4  UNL     1       1.764  10.986  23.059  1.00  0.00    -0.302 N 
ATOM     11  H4  UNL     1       1.840  10.791  22.061  1.00  0.00     0.171 HD
HETATM   12  C5  UNL     1       2.422  10.351  24.046  1.00  0.00     0.331 A 
HETATM   13  O1  UNL     1       3.246   9.408  23.922  1.00  0.00    -0.246 OA
HETATM   14  N5  UNL     1       2.064  10.884  25.228  1.00  0.00    -0.255 N 
ENDROOT
BRANCH  14  15
HETATM   15  C6  UNL     1       2.561  10.463  26.512  1.00  0.00     0.237 C 
HETATM   16  C7  UNL     1       4.052  10.690  26.664  1.00  0.00     0.088 C 
HETATM   17  C8  UNL     1       4.563   9.309  27.017  1.00  0.00     0.153 C 
HETATM   18  C9  UNL     1       3.312   8.717  27.672  1.00  0.00     0.176 C 
HETATM   19  O4  UNL     1       2.343   9.104  26.743  1.00  0.00    -0.356 OA
BRANCH  17  20
HETATM   20  O2  UNL     1       5.617   9.370  27.921  1.00  0.00    -0.393 OA
ATOM     21  H2  UNL     1       5.974   8.508  28.098  1.00  0.00     0.210 HD
ENDBRANCH  17  20
BRANCH  18  22
HETATM   22  C10 UNL     1       3.387   7.214  27.733  1.00  0.00     0.198 C 
BRANCH  22  23
HETATM   23  O3  UNL     1       4.654   6.818  28.107  1.00  0.00    -0.398 OA
ATOM     24  H3  UNL     1       4.609   6.021  28.622  1.00  0.00     0.209 HD
ENDBRANCH  22  23
ENDBRANCH  18  22
ENDBRANCH  14  15
TORSDOF 4
ENDMDL
