MODEL 2
REMARK VINA RESULT: -6.694127551      3.008      5.397
REMARK  4 active torsions:
REMARK  status: ('A' for Active; 'I' for Inactive)
REMARK    1  A    between atoms: N5_14  and  C6_15 
REMARK    2  A    between atoms: C8_17  and  O2_18 
REMARK    3  A    between atoms: C9_20  and  C10_21 
REMARK    4  A    between atoms: C10_21  and  O3_22 
ROOT
HETATM    1  N1  UNL     1       1.679  11.640  29.358  1.00  0.00    -0.080 NA
HETATM    2  C1  UNL     1       1.919  11.262  28.010  1.00  0.00     0.148 A 
HETATM    3  N2  UNL     1       2.644  10.210  27.648  1.00  0.00    -0.339 N 
ATOM      4  H2  UNL     1       3.058   9.634  28.382  1.00  0.00     0.167 HD
HETATM    5  C2  UNL     1       2.864   9.863  26.368  1.00  0.00     0.183 A 
HETATM    6  N3  UNL     1       2.330  10.607  25.382  1.00  0.00    -0.336 N 
ATOM      7  H3  UNL     1       2.482  10.365  24.403  1.00  0.00     0.168 HD
HETATM    8  C3  UNL     1       1.590  11.678  25.723  1.00  0.00     0.145 A 
HETATM    9  C4  UNL     1       1.353  12.052  27.031  1.00  0.00     0.122 A 
HETATM   10  N4  UNL     1       0.585  13.156  27.033  1.00  0.00    -0.302 N 
ATOM     11  H4  UNL     1       0.251  13.656  27.857  1.00  0.00     0.171 HD
HETATM   12  C5  UNL     1       0.336  13.481  25.751  1.00  0.00     0.331 A 
HETATM   13  O1  UNL     1      -0.347  14.452  25.336  1.00  0.00    -0.246 OA
HETATM   14  N5  UNL     1       0.942  12.590  24.946  1.00  0.00    -0.255 N 
ENDROOT
BRANCH  14  15
HETATM   15  C6  UNL     1       0.902  12.612  23.507  1.00  0.00     0.237 C 
HETATM   16  C7  UNL     1      -0.460  12.239  22.955  1.00  0.00     0.088 C 
HETATM   17  C8  UNL     1      -0.138  11.081  22.034  1.00  0.00     0.153 C 
HETATM   18  C9  UNL     1       1.311  11.417  21.673  1.00  0.00     0.176 C 
HETATM   19  O4  UNL     1       1.815  11.720  22.941  1.00  0.00    -0.356 OA
BRANCH  17  20
HETATM   20  O2  UNL     1      -0.947  11.088  20.904  1.00  0.00    -0.393 OA
ATOM     21  H2  UNL     1      -0.671  10.432  20.274  1.00  0.00     0.210 HD
ENDBRANCH  17  20
BRANCH  18  22
HETATM   22  C10 UNL     1       2.027  10.214  21.115  1.00  0.00     0.198 C 
BRANCH  22  23
HETATM   23  O3  UNL     1       2.462   9.404  22.143  1.00  0.00    -0.398 OA
ATOM     24  H3  UNL     1       1.919   8.626  22.197  1.00  0.00     0.209 HD
ENDBRANCH  22  23
ENDBRANCH  18  22
ENDBRANCH  14  15
TORSDOF 4
ENDMDL
