MODEL 1
REMARK VINA RESULT: -6.910371982      0.000      0.000
REMARK  4 active torsions:
REMARK  status: ('A' for Active; 'I' for Inactive)
REMARK    1  A    between atoms: N5_14  and  C6_15 
REMARK    2  A    between atoms: C8_17  and  O2_18 
REMARK    3  A    between atoms: C9_20  and  C10_21 
REMARK    4  A    between atoms: C10_21  and  O3_22 
ROOT
HETATM    1  N1  UNL     1       0.485  12.000  21.196  1.00  0.00    -0.080 NA
HETATM    2  C1  UNL     1       1.187  11.124  22.066  1.00  0.00     0.148 A 
HETATM    3  N2  UNL     1       1.717   9.966  21.690  1.00  0.00    -0.339 N 
ATOM      4  H2  UNL     1       1.615   9.683  20.715  1.00  0.00     0.167 HD
HETATM    5  C2  UNL     1       2.379   9.145  22.525  1.00  0.00     0.183 A 
HETATM    6  N3  UNL     1       2.526   9.496  23.815  1.00  0.00    -0.336 N 
ATOM      7  H3  UNL     1       3.024   8.891  24.469  1.00  0.00     0.168 HD
HETATM    8  C3  UNL     1       1.999  10.666  24.221  1.00  0.00     0.145 A 
HETATM    9  C4  UNL     1       1.315  11.522  23.381  1.00  0.00     0.122 A 
HETATM   10  N4  UNL     1       0.918  12.596  24.087  1.00  0.00    -0.302 N 
ATOM     11  H4  UNL     1       0.392  13.393  23.727  1.00  0.00     0.171 HD
HETATM   12  C5  UNL     1       1.341  12.428  25.354  1.00  0.00     0.331 A 
HETATM   13  O1  UNL     1       1.167  13.215  26.320  1.00  0.00    -0.246 OA
HETATM   14  N5  UNL     1       1.998  11.259  25.447  1.00  0.00    -0.255 N 
ENDROOT
BRANCH  14  15
HETATM   15  C6  UNL     1       2.595  10.737  26.649  1.00  0.00     0.237 C 
HETATM   16  C7  UNL     1       4.108  10.841  26.642  1.00  0.00     0.088 C 
HETATM   17  C8  UNL     1       4.539   9.408  26.877  1.00  0.00     0.153 C 
HETATM   18  C9  UNL     1       3.322   8.882  27.643  1.00  0.00     0.176 C 
HETATM   19  O4  UNL     1       2.293   9.388  26.845  1.00  0.00    -0.356 OA
BRANCH  17  20
HETATM   20  O2  UNL     1       5.686   9.342  27.659  1.00  0.00    -0.393 OA
ATOM     21  H2  UNL     1       5.859   8.454  27.949  1.00  0.00     0.210 HD
ENDBRANCH  17  20
BRANCH  18  22
HETATM   22  C10 UNL     1       3.281   7.376  27.632  1.00  0.00     0.198 C 
BRANCH  22  23
HETATM   23  O3  UNL     1       4.512   6.865  27.986  1.00  0.00    -0.398 OA
ATOM     24  H3  UNL     1       5.171   7.138  27.359  1.00  0.00     0.209 HD
ENDBRANCH  22  23
ENDBRANCH  18  22
ENDBRANCH  14  15
TORSDOF 4
ENDMDL
