MODEL 16
REMARK VINA RESULT: -6.067665413      3.197      5.543
REMARK  4 active torsions:
REMARK  status: ('A' for Active; 'I' for Inactive)
REMARK    1  A    between atoms: N5_14  and  C6_15 
REMARK    2  A    between atoms: C8_17  and  O2_18 
REMARK    3  A    between atoms: C9_20  and  C10_21 
REMARK    4  A    between atoms: C10_21  and  O3_22 
ROOT
HETATM    1  N1  UNL     1      -0.476  12.133  29.948  1.00  0.00    -0.080 NA
HETATM    2  C1  UNL     1       0.409  11.732  28.911  1.00  0.00     0.148 A 
HETATM    3  N2  UNL     1       1.333  10.789  29.043  1.00  0.00    -0.339 N 
ATOM      4  H2  UNL     1       1.418  10.318  29.944  1.00  0.00     0.167 HD
HETATM    5  C2  UNL     1       2.165  10.419  28.053  1.00  0.00     0.183 A 
HETATM    6  N3  UNL     1       2.074  11.025  26.855  1.00  0.00    -0.336 N 
ATOM      7  H3  UNL     1       2.693  10.763  26.087  1.00  0.00     0.168 HD
HETATM    8  C3  UNL     1       1.144  11.984  26.695  1.00  0.00     0.145 A 
HETATM    9  C4  UNL     1       0.281  12.378  27.699  1.00  0.00     0.122 A 
HETATM   10  N4  UNL     1      -0.519  13.350  27.225  1.00  0.00    -0.302 N 
ATOM     11  H4  UNL     1      -1.255  13.831  27.743  1.00  0.00     0.171 HD
HETATM   12  C5  UNL     1      -0.174  13.571  25.943  1.00  0.00     0.331 A 
HETATM   13  O1  UNL     1      -0.689  14.405  25.154  1.00  0.00    -0.246 OA
HETATM   14  N5  UNL     1       0.835  12.747  25.611  1.00  0.00    -0.255 N 
ENDROOT
BRANCH  14  15
HETATM   15  C6  UNL     1       1.472  12.694  24.320  1.00  0.00     0.237 C 
HETATM   16  C7  UNL     1       0.670  13.399  23.243  1.00  0.00     0.088 C 
HETATM   17  C8  UNL     1       0.490  12.314  22.202  1.00  0.00     0.153 C 
HETATM   18  C9  UNL     1       1.728  11.460  22.485  1.00  0.00     0.176 C 
HETATM   19  O4  UNL     1       1.660  11.383  23.878  1.00  0.00    -0.356 OA
BRANCH  17  20
HETATM   20  O2  UNL     1       0.527  12.833  20.913  1.00  0.00    -0.393 OA
ATOM     21  H2  UNL     1       0.669  12.152  20.267  1.00  0.00     0.210 HD
ENDBRANCH  17  20
BRANCH  18  22
HETATM   22  C10 UNL     1       1.587  10.082  21.892  1.00  0.00     0.198 C 
BRANCH  22  23
HETATM   23  O3  UNL     1       2.571   9.251  22.387  1.00  0.00    -0.398 OA
ATOM     24  H3  UNL     1       2.485   8.383  22.009  1.00  0.00     0.209 HD
ENDBRANCH  22  23
ENDBRANCH  18  22
ENDBRANCH  14  15
TORSDOF 4
ENDMDL
