MODEL 6
REMARK VINA RESULT: -6.478629119      2.587      5.445
REMARK  4 active torsions:
REMARK  status: ('A' for Active; 'I' for Inactive)
REMARK    1  A    between atoms: N5_14  and  C6_15 
REMARK    2  A    between atoms: C8_17  and  O2_18 
REMARK    3  A    between atoms: C9_20  and  C10_21 
REMARK    4  A    between atoms: C10_21  and  O3_22 
ROOT
HETATM    1  N1  UNL     1       2.520   9.057  22.268  1.00  0.00    -0.080 NA
HETATM    2  C1  UNL     1       1.538  10.042  22.557  1.00  0.00     0.148 A 
HETATM    3  N2  UNL     1       0.513  10.329  21.764  1.00  0.00    -0.339 N 
ATOM      4  H2  UNL     1       0.421   9.812  20.889  1.00  0.00     0.167 HD
HETATM    5  C2  UNL     1      -0.409  11.265  22.050  1.00  0.00     0.183 A 
HETATM    6  N3  UNL     1      -0.309  11.960  23.198  1.00  0.00    -0.336 N 
ATOM      7  H3  UNL     1      -0.996  12.675  23.438  1.00  0.00     0.168 HD
HETATM    8  C3  UNL     1       0.720  11.686  24.020  1.00  0.00     0.145 A 
HETATM    9  C4  UNL     1       1.678  10.731  23.744  1.00  0.00     0.122 A 
HETATM   10  N4  UNL     1       2.564  10.702  24.756  1.00  0.00    -0.302 N 
ATOM     11  H4  UNL     1       3.379  10.093  24.825  1.00  0.00     0.171 HD
HETATM   12  C5  UNL     1       2.179  11.621  25.660  1.00  0.00     0.331 A 
HETATM   13  O1  UNL     1       2.747  11.898  26.747  1.00  0.00    -0.246 OA
HETATM   14  N5  UNL     1       1.060  12.226  25.223  1.00  0.00    -0.255 N 
ENDROOT
BRANCH  14  15
HETATM   15  C6  UNL     1       0.352  13.267  25.923  1.00  0.00     0.237 C 
HETATM   16  C7  UNL     1      -0.260  12.784  27.223  1.00  0.00     0.088 C 
HETATM   17  C8  UNL     1      -1.722  13.142  27.054  1.00  0.00     0.153 C 
HETATM   18  C9  UNL     1      -1.600  14.324  26.088  1.00  0.00     0.176 C 
HETATM   19  O4  UNL     1      -0.695  13.794  25.165  1.00  0.00    -0.356 OA
BRANCH  17  20
HETATM   20  O2  UNL     1      -2.293  13.539  28.257  1.00  0.00    -0.393 OA
ATOM     21  H2  UNL     1      -2.197  14.473  28.397  1.00  0.00     0.210 HD
ENDBRANCH  17  20
BRANCH  18  22
HETATM   22  C10 UNL     1      -2.913  14.609  25.406  1.00  0.00     0.198 C 
BRANCH  22  23
HETATM   23  O3  UNL     1      -3.108  15.970  25.303  1.00  0.00    -0.398 OA
ATOM     24  H3  UNL     1      -3.990  16.152  25.004  1.00  0.00     0.209 HD
ENDBRANCH  22  23
ENDBRANCH  18  22
ENDBRANCH  14  15
TORSDOF 4
ENDMDL
