MODEL 7
REMARK VINA RESULT: -6.466480177      3.229      5.786
REMARK  4 active torsions:
REMARK  status: ('A' for Active; 'I' for Inactive)
REMARK    1  A    between atoms: N5_14  and  C6_15 
REMARK    2  A    between atoms: C8_17  and  O2_18 
REMARK    3  A    between atoms: C9_20  and  C10_21 
REMARK    4  A    between atoms: C10_21  and  O3_22 
ROOT
HETATM    1  N1  UNL     1       1.618  10.413  29.485  1.00  0.00    -0.080 NA
HETATM    2  C1  UNL     1       2.144  10.455  28.167  1.00  0.00     0.148 A 
HETATM    3  N2  UNL     1       3.108   9.657  27.722  1.00  0.00    -0.339 N 
ATOM      4  H2  UNL     1       3.498   8.968  28.365  1.00  0.00     0.167 HD
HETATM    5  C2  UNL     1       3.598   9.708  26.471  1.00  0.00     0.183 A 
HETATM    6  N3  UNL     1       3.099  10.609  25.604  1.00  0.00    -0.336 N 
ATOM      7  H3  UNL     1       3.453  10.668  24.649  1.00  0.00     0.168 HD
HETATM    8  C3  UNL     1       2.121  11.428  26.030  1.00  0.00     0.145 A 
HETATM    9  C4  UNL     1       1.605  11.393  27.310  1.00  0.00     0.122 A 
HETATM   10  N4  UNL     1       0.648  12.332  27.417  1.00  0.00    -0.302 N 
ATOM     11  H4  UNL     1       0.094  12.535  28.249  1.00  0.00     0.171 HD
HETATM   12  C5  UNL     1       0.555  12.955  26.229  1.00  0.00     0.331 A 
HETATM   13  O1  UNL     1      -0.224  13.895  25.925  1.00  0.00    -0.246 OA
HETATM   14  N5  UNL     1       1.446  12.415  25.378  1.00  0.00    -0.255 N 
ENDROOT
BRANCH  14  15
HETATM   15  C6  UNL     1       1.639  12.823  24.010  1.00  0.00     0.237 C 
HETATM   16  C7  UNL     1       0.610  13.838  23.552  1.00  0.00     0.088 C 
HETATM   17  C8  UNL     1       0.014  13.175  22.329  1.00  0.00     0.153 C 
HETATM   18  C9  UNL     1       1.193  12.301  21.892  1.00  0.00     0.176 C 
HETATM   19  O4  UNL     1       1.556  11.749  23.123  1.00  0.00    -0.356 OA
BRANCH  17  20
HETATM   20  O2  UNL     1      -0.305  14.106  21.348  1.00  0.00    -0.393 OA
ATOM     21  H2  UNL     1       0.098  14.949  21.522  1.00  0.00     0.210 HD
ENDBRANCH  17  20
BRANCH  18  22
HETATM   22  C10 UNL     1       0.746  11.209  20.956  1.00  0.00     0.198 C 
BRANCH  22  23
HETATM   23  O3  UNL     1      -0.629  11.210  20.850  1.00  0.00    -0.398 OA
ATOM     24  H3  UNL     1      -0.890  10.913  19.987  1.00  0.00     0.209 HD
ENDBRANCH  22  23
ENDBRANCH  18  22
ENDBRANCH  14  15
TORSDOF 4
ENDMDL
