MODEL 3
REMARK VINA RESULT: -7.372063845      2.370      6.289
REMARK  4 active torsions:
REMARK  status: ('A' for Active; 'I' for Inactive)
REMARK    1  A    between atoms: N4_10  and  C5_11 
REMARK    2  A    between atoms: C7_13  and  O1_14 
REMARK    3  A    between atoms: C8_16  and  C9_17 
REMARK    4  A    between atoms: C9_17  and  O2_18 
ROOT
HETATM    1  N1  UNL     1      12.381  -4.691  -0.915  1.00  0.00    -0.063 NA
HETATM    2  C1  UNL     1      12.694  -3.342  -0.578  1.00  0.00     0.196 A 
HETATM    3  N2  UNL     1      12.554  -2.946   0.700  1.00  0.00    -0.314 N 
ATOM      4  H2  UNL     1      12.226  -3.631   1.381  1.00  0.00     0.170 HD
HETATM    5  C2  UNL     1      12.818  -1.705   1.132  1.00  0.00     0.145 A 
HETATM    6  C3  UNL     1      13.259  -0.797   0.192  1.00  0.00     0.146 A 
HETATM    7  N3  UNL     1      13.455   0.361   0.856  1.00  0.00    -0.345 N 
ATOM      8  H3  UNL     1      13.782   1.238   0.451  1.00  0.00     0.167 HD
HETATM    9  C4  UNL     1      13.142   0.155   2.148  1.00  0.00     0.188 A 
HETATM   10  N4  UNL     1      12.753  -1.096   2.332  1.00  0.00    -0.300 N 
HETATM   11  C10 UNL     1      13.403  -1.204  -1.118  1.00  0.00     0.278 A 
HETATM   12  O4  UNL     1      13.801  -0.392  -1.977  1.00  0.00    -0.265 OA
HETATM   13  N5  UNL     1      13.124  -2.461  -1.498  1.00  0.00    -0.295 N 
ATOM     14  H5  UNL     1      13.236  -2.744  -2.472  1.00  0.00     0.171 HD
ENDROOT
BRANCH  10  15
HETATM   15  C5  UNL     1      12.322  -1.788   3.527  1.00  0.00     0.233 C 
HETATM   16  C6  UNL     1      13.578  -2.001   4.374  1.00  0.00     0.088 C 
HETATM   17  C7  UNL     1      13.051  -1.647   5.764  1.00  0.00     0.153 C 
HETATM   18  C8  UNL     1      11.557  -1.673   5.537  1.00  0.00     0.176 C 
HETATM   19  O3  UNL     1      11.446  -1.061   4.290  1.00  0.00    -0.356 OA
BRANCH  17  20
HETATM   20  O1  UNL     1      13.476  -2.575   6.681  1.00  0.00    -0.393 OA
ATOM     21  H1  UNL     1      12.982  -2.489   7.488  1.00  0.00     0.210 HD
ENDBRANCH  17  20
BRANCH  18  22
HETATM   22  C9  UNL     1      10.803  -0.920   6.606  1.00  0.00     0.198 C 
BRANCH  22  23
HETATM   23  O2  UNL     1      11.372  -1.261   7.833  1.00  0.00    -0.398 OA
ATOM     24  H2  UNL     1      10.738  -1.790   8.302  1.00  0.00     0.209 HD
ENDBRANCH  22  23
ENDBRANCH  18  22
ENDBRANCH  10  15
TORSDOF 4
ENDMDL
