MODEL 6
REMARK VINA RESULT: -7.282292160      1.856      3.327
REMARK  4 active torsions:
REMARK  status: ('A' for Active; 'I' for Inactive)
REMARK    1  A    between atoms: N4_10  and  C5_11 
REMARK    2  A    between atoms: C7_13  and  O1_14 
REMARK    3  A    between atoms: C8_16  and  C9_17 
REMARK    4  A    between atoms: C9_17  and  O2_18 
ROOT
HETATM    1  N1  UNL     1      10.569   2.226   2.105  1.00  0.00    -0.063 NA
HETATM    2  C1  UNL     1      10.583   1.292   3.183  1.00  0.00     0.196 A 
HETATM    3  N2  UNL     1      11.292   0.157   3.045  1.00  0.00    -0.314 N 
ATOM      4  H2  UNL     1      11.794   0.008   2.170  1.00  0.00     0.170 HD
HETATM    5  C2  UNL     1      11.377  -0.790   3.989  1.00  0.00     0.145 A 
HETATM    6  C3  UNL     1      10.688  -0.566   5.164  1.00  0.00     0.146 A 
HETATM    7  N3  UNL     1      10.925  -1.642   5.944  1.00  0.00    -0.345 N 
ATOM      8  H3  UNL     1      10.561  -1.792   6.885  1.00  0.00     0.167 HD
HETATM    9  C4  UNL     1      11.725  -2.480   5.262  1.00  0.00     0.188 A 
HETATM   10  N4  UNL     1      12.009  -1.977   4.072  1.00  0.00    -0.300 N 
HETATM   11  C10 UNL     1       9.962   0.598   5.303  1.00  0.00     0.278 A 
HETATM   12  O4  UNL     1       9.336   0.812   6.361  1.00  0.00    -0.265 OA
HETATM   13  N5  UNL     1       9.910   1.516   4.325  1.00  0.00    -0.295 N 
ATOM     14  H5  UNL     1       9.367   2.371   4.446  1.00  0.00     0.171 HD
ENDROOT
BRANCH  10  15
HETATM   15  C5  UNL     1      12.820  -2.498   2.992  1.00  0.00     0.233 C 
HETATM   16  C6  UNL     1      12.718  -4.021   3.077  1.00  0.00     0.088 C 
HETATM   17  C7  UNL     1      12.550  -4.382   1.603  1.00  0.00     0.153 C 
HETATM   18  C8  UNL     1      12.959  -3.093   0.927  1.00  0.00     0.176 C 
HETATM   19  O3  UNL     1      12.366  -2.137   1.750  1.00  0.00    -0.356 OA
BRANCH  17  20
HETATM   20  O1  UNL     1      13.358  -5.443   1.281  1.00  0.00    -0.393 OA
ATOM     21  H1  UNL     1      14.145  -5.136   0.846  1.00  0.00     0.210 HD
ENDBRANCH  17  20
BRANCH  18  22
HETATM   22  C9  UNL     1      12.456  -3.008  -0.493  1.00  0.00     0.198 C 
BRANCH  22  23
HETATM   23  O2  UNL     1      13.338  -3.738  -1.290  1.00  0.00    -0.398 OA
ATOM     24  H2  UNL     1      13.210  -4.657  -1.085  1.00  0.00     0.209 HD
ENDBRANCH  22  23
ENDBRANCH  18  22
ENDBRANCH  10  15
TORSDOF 4
ENDMDL
