MODEL 2
REMARK VINA RESULT: -7.505426373      2.225      6.179
REMARK  4 active torsions:
REMARK  status: ('A' for Active; 'I' for Inactive)
REMARK    1  A    between atoms: N4_10  and  C5_11 
REMARK    2  A    between atoms: C7_13  and  O1_14 
REMARK    3  A    between atoms: C8_16  and  C9_17 
REMARK    4  A    between atoms: C9_17  and  O2_18 
ROOT
HETATM    1  N1  UNL     1      12.423   1.492   1.643  1.00  0.00    -0.063 NA
HETATM    2  C1  UNL     1      12.556   0.164   1.141  1.00  0.00     0.196 A 
HETATM    3  N2  UNL     1      12.422  -0.866   1.996  1.00  0.00    -0.314 N 
ATOM      4  H2  UNL     1      12.231  -0.655   2.975  1.00  0.00     0.170 HD
HETATM    5  C2  UNL     1      12.526  -2.153   1.637  1.00  0.00     0.145 A 
HETATM    6  C3  UNL     1      12.786  -2.413   0.307  1.00  0.00     0.146 A 
HETATM    7  N3  UNL     1      12.845  -3.756   0.195  1.00  0.00    -0.345 N 
ATOM      8  H3  UNL     1      13.022  -4.280  -0.663  1.00  0.00     0.167 HD
HETATM    9  C4  UNL     1      12.628  -4.283   1.413  1.00  0.00     0.188 A 
HETATM   10  N4  UNL     1      12.433  -3.321   2.301  1.00  0.00    -0.300 N 
HETATM   11  C10 UNL     1      12.923  -1.355  -0.568  1.00  0.00     0.278 A 
HETATM   12  O4  UNL     1      13.158  -1.577  -1.773  1.00  0.00    -0.265 OA
HETATM   13  N5  UNL     1      12.809  -0.082  -0.156  1.00  0.00    -0.295 N 
ATOM     14  H5  UNL     1      12.914   0.687  -0.818  1.00  0.00     0.171 HD
ENDROOT
BRANCH  10  15
HETATM   15  C5  UNL     1      12.165  -3.384   3.721  1.00  0.00     0.233 C 
HETATM   16  C6  UNL     1      13.528  -3.361   4.415  1.00  0.00     0.088 C 
HETATM   17  C7  UNL     1      13.251  -2.391   5.562  1.00  0.00     0.153 C 
HETATM   18  C8  UNL     1      11.741  -2.336   5.555  1.00  0.00     0.176 C 
HETATM   19  O3  UNL     1      11.462  -2.304   4.189  1.00  0.00    -0.356 OA
BRANCH  17  20
HETATM   20  O1  UNL     1      13.770  -2.884   6.733  1.00  0.00    -0.393 OA
ATOM     21  H1  UNL     1      13.078  -3.004   7.373  1.00  0.00     0.210 HD
ENDBRANCH  17  20
BRANCH  18  22
HETATM   22  C9  UNL     1      11.211  -1.117   6.269  1.00  0.00     0.198 C 
BRANCH  22  23
HETATM   23  O2  UNL     1      11.349  -1.345   7.638  1.00  0.00    -0.398 OA
ATOM     24  H2  UNL     1      11.516  -0.505   8.050  1.00  0.00     0.209 HD
ENDBRANCH  22  23
ENDBRANCH  18  22
ENDBRANCH  10  15
TORSDOF 4
ENDMDL
