MODEL 1
REMARK VINA RESULT: -5.315505154      0.000      0.000
REMARK  4 active torsions:
REMARK  status: ('A' for Active; 'I' for Inactive)
REMARK    1  A    between atoms: C3_4  and  O2_5 
REMARK    2  A    between atoms: C4_7  and  O3_8 
REMARK    3  A    between atoms: C5_10  and  O4_11 
REMARK    4  A    between atoms: C6_13  and  O5_14 
ROOT
HETATM    1  C1  UNL     1      36.985   2.552  43.416  1.00  0.00     0.042 C 
HETATM    2  C2  UNL     1      37.367   3.217  42.113  1.00  0.00     0.152 C 
HETATM    3  O1  UNL     1      38.703   3.524  42.116  1.00  0.00    -0.351 OA
HETATM    4  C3  UNL     1      39.546   2.506  41.772  1.00  0.00     0.288 C 
HETATM    5  C4  UNL     1      39.231   2.129  40.320  1.00  0.00     0.204 C 
HETATM    6  C5  UNL     1      37.858   1.451  40.392  1.00  0.00     0.182 C 
HETATM    7  C6  UNL     1      36.896   2.458  40.917  1.00  0.00     0.178 C 
ENDROOT
BRANCH   4   8
HETATM    8  O2  UNL     1      39.397   1.354  42.530  1.00  0.00    -0.369 OA
ATOM      9  H2  UNL     1      39.562   0.547  42.056  1.00  0.00     0.212 HD
ENDBRANCH   4   8
BRANCH   5  10
HETATM   10  O3  UNL     1      39.095   3.328  39.616  1.00  0.00    -0.388 OA
ATOM     11  H3  UNL     1      38.165   3.513  39.571  1.00  0.00     0.210 HD
ENDBRANCH   5  10
BRANCH   6  12
HETATM   12  O4  UNL     1      37.942   0.343  41.211  1.00  0.00    -0.390 OA
ATOM     13  H4  UNL     1      37.559  -0.404  40.765  1.00  0.00     0.210 HD
ENDBRANCH   6  12
BRANCH   7  14
HETATM   14  O5  UNL     1      35.699   1.786  41.220  1.00  0.00    -0.390 OA
ATOM     15  H5  UNL     1      35.719   0.910  40.852  1.00  0.00     0.210 HD
ENDBRANCH   7  14
TORSDOF 4
ENDMDL
