MODEL 6
REMARK VINA RESULT: -4.113756180      7.509      8.992
REMARK  4 active torsions:
REMARK  status: ('A' for Active; 'I' for Inactive)
REMARK    1  A    between atoms: C3_4  and  O2_5 
REMARK    2  A    between atoms: C4_7  and  O3_8 
REMARK    3  A    between atoms: C5_10  and  O4_11 
REMARK    4  A    between atoms: C6_13  and  O5_14 
ROOT
HETATM    1  C1  UNL     1      38.266  -4.203  49.557  1.00  0.00     0.042 C 
HETATM    2  C2  UNL     1      38.830  -3.695  48.249  1.00  0.00     0.152 C 
HETATM    3  O1  UNL     1      37.941  -2.839  47.654  1.00  0.00    -0.351 OA
HETATM    4  C3  UNL     1      37.972  -1.548  48.097  1.00  0.00     0.288 C 
HETATM    5  C4  UNL     1      39.354  -0.984  47.751  1.00  0.00     0.204 C 
HETATM    6  C5  UNL     1      40.312  -1.715  48.699  1.00  0.00     0.182 C 
HETATM    7  C6  UNL     1      40.220  -3.167  48.386  1.00  0.00     0.178 C 
ENDROOT
BRANCH   4   8
HETATM    8  O2  UNL     1      37.810  -1.406  49.468  1.00  0.00    -0.369 OA
ATOM      9  H2  UNL     1      37.621  -2.216  49.927  1.00  0.00     0.212 HD
ENDBRANCH   4   8
BRANCH   5  10
HETATM   10  O3  UNL     1      39.634  -1.387  46.443  1.00  0.00    -0.388 OA
ATOM     11  H3  UNL     1      40.519  -1.100  46.253  1.00  0.00     0.210 HD
ENDBRANCH   5  10
BRANCH   6  12
HETATM   12  O4  UNL     1      39.953  -1.444  50.003  1.00  0.00    -0.390 OA
ATOM     13  H4  UNL     1      40.527  -1.922  50.591  1.00  0.00     0.210 HD
ENDBRANCH   6  12
BRANCH   7  14
HETATM   14  O5  UNL     1      40.897  -3.865  49.402  1.00  0.00    -0.390 OA
ATOM     15  H5  UNL     1      41.290  -3.249  50.008  1.00  0.00     0.210 HD
ENDBRANCH   7  14
TORSDOF 4
ENDMDL
