MODEL 5
REMARK VINA RESULT: -4.156025022      6.733      7.838
REMARK  4 active torsions:
REMARK  status: ('A' for Active; 'I' for Inactive)
REMARK    1  A    between atoms: C3_4  and  O2_5 
REMARK    2  A    between atoms: C4_7  and  O3_8 
REMARK    3  A    between atoms: C5_10  and  O4_11 
REMARK    4  A    between atoms: C6_13  and  O5_14 
ROOT
HETATM    1  C1  UNL     1      39.815  -3.533  46.603  1.00  0.00     0.042 C 
HETATM    2  C2  UNL     1      41.252  -3.645  46.147  1.00  0.00     0.152 C 
HETATM    3  O1  UNL     1      41.510  -4.920  45.712  1.00  0.00    -0.351 OA
HETATM    4  C3  UNL     1      41.145  -5.193  44.425  1.00  0.00     0.288 C 
HETATM    5  C4  UNL     1      41.985  -4.290  43.516  1.00  0.00     0.204 C 
HETATM    6  C5  UNL     1      41.427  -2.882  43.758  1.00  0.00     0.182 C 
HETATM    7  C6  UNL     1      41.643  -2.563  45.195  1.00  0.00     0.178 C 
ENDROOT
BRANCH   4   8
HETATM    8  O2  UNL     1      39.814  -4.932  44.137  1.00  0.00    -0.369 OA
ATOM      9  H2  UNL     1      39.593  -4.983  43.214  1.00  0.00     0.212 HD
ENDBRANCH   4   8
BRANCH   5  10
HETATM   10  O3  UNL     1      43.293  -4.336  44.003  1.00  0.00    -0.388 OA
ATOM     11  H3  UNL     1      43.808  -4.802  43.356  1.00  0.00     0.210 HD
ENDBRANCH   5  10
BRANCH   6  12
HETATM   12  O4  UNL     1      40.089  -2.861  43.420  1.00  0.00    -0.390 OA
ATOM     13  H4  UNL     1      39.806  -1.959  43.322  1.00  0.00     0.210 HD
ENDBRANCH   6  12
BRANCH   7  14
HETATM   14  O5  UNL     1      40.922  -1.391  45.485  1.00  0.00    -0.390 OA
ATOM     15  H5  UNL     1      41.513  -0.648  45.509  1.00  0.00     0.210 HD
ENDBRANCH   7  14
TORSDOF 4
ENDMDL
