MODEL 3
REMARK VINA RESULT: -4.243507722      6.593      7.621
REMARK  4 active torsions:
REMARK  status: ('A' for Active; 'I' for Inactive)
REMARK    1  A    between atoms: C3_4  and  O2_5 
REMARK    2  A    between atoms: C4_7  and  O3_8 
REMARK    3  A    between atoms: C5_10  and  O4_11 
REMARK    4  A    between atoms: C6_13  and  O5_14 
ROOT
HETATM    1  C1  UNL     1      39.852  -5.194  45.203  1.00  0.00     0.042 C 
HETATM    2  C2  UNL     1      39.989  -3.890  44.451  1.00  0.00     0.152 C 
HETATM    3  O1  UNL     1      39.933  -2.835  45.324  1.00  0.00    -0.351 OA
HETATM    4  C3  UNL     1      41.105  -2.523  45.953  1.00  0.00     0.288 C 
HETATM    5  C4  UNL     1      42.097  -2.086  44.870  1.00  0.00     0.204 C 
HETATM    6  C5  UNL     1      42.427  -3.378  44.113  1.00  0.00     0.182 C 
HETATM    7  C6  UNL     1      41.157  -3.879  43.521  1.00  0.00     0.178 C 
ENDROOT
BRANCH   4   8
HETATM    8  O2  UNL     1      41.690  -3.579  46.636  1.00  0.00    -0.369 OA
ATOM      9  H2  UNL     1      41.073  -4.171  47.049  1.00  0.00     0.212 HD
ENDBRANCH   4   8
BRANCH   5  10
HETATM   10  O3  UNL     1      41.401  -1.236  44.009  1.00  0.00    -0.388 OA
ATOM     11  H3  UNL     1      42.001  -0.540  43.769  1.00  0.00     0.210 HD
ENDBRANCH   5  10
BRANCH   6  12
HETATM   12  O4  UNL     1      42.981  -4.288  44.991  1.00  0.00    -0.390 OA
ATOM     13  H4  UNL     1      43.003  -5.145  44.579  1.00  0.00     0.210 HD
ENDBRANCH   6  12
BRANCH   7  14
HETATM   14  O5  UNL     1      41.395  -5.179  43.039  1.00  0.00    -0.390 OA
ATOM     15  H5  UNL     1      41.134  -5.237  42.128  1.00  0.00     0.210 HD
ENDBRANCH   7  14
TORSDOF 4
ENDMDL
