MODEL 2
REMARK VINA RESULT: -5.669281402      6.594     10.099
REMARK  16 active torsions:
REMARK  status: ('A' for Active; 'I' for Inactive)
REMARK    1  A    between atoms: C2_2  and  C3_3 
REMARK    2  A    between atoms: C3_3  and  C4_4 
REMARK    3  A    between atoms: C4_4  and  C5_5 
REMARK    4  A    between atoms: C5_5  and  C6_6 
REMARK    5  A    between atoms: C6_6  and  S1_7 
REMARK    6  A    between atoms: S1_7  and  C7_8 
REMARK    7  A    between atoms: C7_8  and  C8_9 
REMARK    8  A    between atoms: C8_9  and  N1_10 
REMARK    9  A    between atoms: C8_9  and  C14_24 
REMARK       I    between atoms: N1_10  and  C9_12 
REMARK   10  A    between atoms: C9_12  and  C10_14 
REMARK   11  A    between atoms: C10_14  and  C11_15 
REMARK   12  A    between atoms: C11_15  and  C12_16 
REMARK   13  A    between atoms: C12_16  and  N2_17 
REMARK   14  A    between atoms: C12_16  and  C13_21 
REMARK       I    between atoms: C14_24  and  N3_26 
REMARK   15  A    between atoms: N3_26  and  C15_28 
REMARK   16  A    between atoms: C15_28  and  C16_29 
ROOT
HETATM    1  C8  UNL     1      -6.721  61.947  35.342  1.00  0.00     0.185 C 
ENDROOT
BRANCH   1   2
HETATM    2  C7  UNL     1      -6.160  61.277  34.126  1.00  0.00     0.108 C 
BRANCH   2   3
HETATM    3  S1  UNL     1      -7.481  60.268  33.394  1.00  0.00    -0.167 SA
BRANCH   3   4
HETATM    4  C6  UNL     1      -8.279  61.143  32.031  1.00  0.00     0.074 C 
BRANCH   4   5
HETATM    5  C5  UNL     1      -9.509  60.312  31.651  1.00  0.00     0.010 C 
BRANCH   5   6
HETATM    6  C4  UNL     1      -9.253  58.930  32.215  1.00  0.00     0.001 C 
BRANCH   6   7
HETATM    7  C3  UNL     1     -10.575  58.226  32.367  1.00  0.00    -0.000 C 
BRANCH   7   8
HETATM    8  C2  UNL     1     -10.389  56.754  32.043  1.00  0.00    -0.005 C 
HETATM    9  C1  UNL     1     -11.231  55.977  33.053  1.00  0.00     0.005 C 
ENDBRANCH   7   8
ENDBRANCH   6   7
ENDBRANCH   5   6
ENDBRANCH   4   5
ENDBRANCH   3   4
ENDBRANCH   2   3
ENDBRANCH   1   2
BRANCH   1  10
HETATM   10  N1  UNL     1      -6.360  63.352  35.243  1.00  0.00    -0.347 N 
HETATM   11  C9  UNL     1      -7.177  64.349  34.662  1.00  0.00     0.218 C 
HETATM   12  O1  UNL     1      -8.293  64.004  34.200  1.00  0.00    -0.274 OA
ATOM     13  H1  UNL     1      -5.456  63.638  35.617  1.00  0.00     0.163 HD
BRANCH  11  14
HETATM   14  C10 UNL     1      -6.720  65.780  34.601  1.00  0.00     0.105 C 
BRANCH  14  15
HETATM   15  C11 UNL     1      -5.545  65.841  33.663  1.00  0.00     0.053 C 
BRANCH  15  16
HETATM   16  C12 UNL     1      -4.288  66.146  34.474  1.00  0.00     0.283 C 
BRANCH  16  17
HETATM   17  N2  UNL     1      -3.737  67.429  34.090  1.00  0.00    -0.065 N 
ATOM     18  H23 UNL     1      -2.724  67.459  34.211  1.00  0.00     0.275 HD
ATOM     19  H22 UNL     1      -3.772  67.570  33.080  1.00  0.00     0.275 HD
ATOM     20  H21 UNL     1      -4.203  68.182  34.595  1.00  0.00     0.275 HD
ENDBRANCH  16  17
BRANCH  16  21
HETATM   21  C13 UNL     1      -3.319  65.052  34.292  1.00  0.00     0.204 C 
HETATM   22  O2  UNL     1      -3.561  63.869  34.605  1.00  0.00    -0.646 OA
HETATM   23  O3  UNL     1      -2.070  65.360  33.738  1.00  0.00    -0.646 OA
ENDBRANCH  16  21
ENDBRANCH  15  16
ENDBRANCH  14  15
ENDBRANCH  11  14
ENDBRANCH   1  10
BRANCH   1  24
HETATM   24  C14 UNL     1      -6.256  61.422  36.612  1.00  0.00     0.241 C 
HETATM   25  O4  UNL     1      -5.243  60.677  36.628  1.00  0.00    -0.271 OA
HETATM   26  N3  UNL     1      -6.852  61.678  37.875  1.00  0.00    -0.349 N 
ATOM     27  H3  UNL     1      -7.676  62.276  37.930  1.00  0.00     0.163 HD
BRANCH  26  28
HETATM   28  C15 UNL     1      -6.305  61.102  39.089  1.00  0.00     0.235 C 
BRANCH  28  29
HETATM   29  C16 UNL     1      -7.388  60.788  40.067  1.00  0.00     0.191 C 
HETATM   30  O5  UNL     1      -8.028  61.713  40.615  1.00  0.00    -0.647 OA
HETATM   31  O6  UNL     1      -7.705  59.487  40.384  1.00  0.00    -0.647 OA
ENDBRANCH  28  29
ENDBRANCH  26  28
ENDBRANCH   1  24
TORSDOF 16
ENDMDL
