MODEL 4
REMARK VINA RESULT: -5.562709248      5.998      9.332
REMARK  16 active torsions:
REMARK  status: ('A' for Active; 'I' for Inactive)
REMARK    1  A    between atoms: C2_2  and  C3_3 
REMARK    2  A    between atoms: C3_3  and  C4_4 
REMARK    3  A    between atoms: C4_4  and  C5_5 
REMARK    4  A    between atoms: C5_5  and  C6_6 
REMARK    5  A    between atoms: C6_6  and  S1_7 
REMARK    6  A    between atoms: S1_7  and  C7_8 
REMARK    7  A    between atoms: C7_8  and  C8_9 
REMARK    8  A    between atoms: C8_9  and  N1_10 
REMARK    9  A    between atoms: C8_9  and  C14_24 
REMARK       I    between atoms: N1_10  and  C9_12 
REMARK   10  A    between atoms: C9_12  and  C10_14 
REMARK   11  A    between atoms: C10_14  and  C11_15 
REMARK   12  A    between atoms: C11_15  and  C12_16 
REMARK   13  A    between atoms: C12_16  and  N2_17 
REMARK   14  A    between atoms: C12_16  and  C13_21 
REMARK       I    between atoms: C14_24  and  N3_26 
REMARK   15  A    between atoms: N3_26  and  C15_28 
REMARK   16  A    between atoms: C15_28  and  C16_29 
ROOT
HETATM    1  C8  UNL     1      -6.146  61.937  35.177  1.00  0.00     0.185 C 
ENDROOT
BRANCH   1   2
HETATM    2  C7  UNL     1      -6.230  63.433  35.149  1.00  0.00     0.108 C 
BRANCH   2   3
HETATM    3  S1  UNL     1      -7.673  63.885  34.144  1.00  0.00    -0.167 SA
BRANCH   3   4
HETATM    4  C6  UNL     1      -7.166  64.421  32.496  1.00  0.00     0.074 C 
BRANCH   4   5
HETATM    5  C5  UNL     1      -8.079  63.685  31.508  1.00  0.00     0.010 C 
BRANCH   5   6
HETATM    6  C4  UNL     1      -8.299  64.653  30.364  1.00  0.00     0.001 C 
BRANCH   6   7
HETATM    7  C3  UNL     1      -9.631  64.348  29.732  1.00  0.00    -0.000 C 
BRANCH   7   8
HETATM    8  C2  UNL     1     -10.030  65.509  28.840  1.00  0.00    -0.005 C 
HETATM    9  C1  UNL     1     -11.440  65.207  28.336  1.00  0.00     0.005 C 
ENDBRANCH   7   8
ENDBRANCH   6   7
ENDBRANCH   5   6
ENDBRANCH   4   5
ENDBRANCH   3   4
ENDBRANCH   2   3
ENDBRANCH   1   2
BRANCH   1  10
HETATM   10  N1  UNL     1      -7.398  61.444  34.626  1.00  0.00    -0.347 N 
HETATM   11  C9  UNL     1      -7.495  60.472  33.605  1.00  0.00     0.218 C 
HETATM   12  O1  UNL     1      -6.430  59.997  33.137  1.00  0.00    -0.274 OA
ATOM     13  H1  UNL     1      -8.266  61.825  35.002  1.00  0.00     0.163 HD
BRANCH  11  14
HETATM   14  C10 UNL     1      -8.835  60.021  33.095  1.00  0.00     0.105 C 
BRANCH  14  15
HETATM   15  C11 UNL     1      -8.592  59.134  31.904  1.00  0.00     0.053 C 
BRANCH  15  16
HETATM   16  C12 UNL     1      -9.742  58.135  31.795  1.00  0.00     0.283 C 
BRANCH  16  17
HETATM   17  N2  UNL     1     -10.829  58.518  32.672  1.00  0.00    -0.065 N 
ATOM     18  H23 UNL     1     -11.249  59.405  32.392  1.00  0.00     0.275 HD
ATOM     19  H22 UNL     1     -11.645  57.919  32.550  1.00  0.00     0.275 HD
ATOM     20  H21 UNL     1     -10.514  58.537  33.643  1.00  0.00     0.275 HD
ENDBRANCH  16  17
BRANCH  16  21
HETATM   21  C13 UNL     1      -9.238  56.785  32.098  1.00  0.00     0.204 C 
HETATM   22  O2  UNL     1      -8.284  56.262  31.489  1.00  0.00    -0.646 OA
HETATM   23  O3  UNL     1      -9.863  56.060  33.121  1.00  0.00    -0.646 OA
ENDBRANCH  16  21
ENDBRANCH  15  16
ENDBRANCH  14  15
ENDBRANCH  11  14
ENDBRANCH   1  10
BRANCH   1  24
HETATM   24  C14 UNL     1      -5.935  61.350  36.486  1.00  0.00     0.241 C 
HETATM   25  O4  UNL     1      -4.994  60.529  36.641  1.00  0.00    -0.271 OA
HETATM   26  N3  UNL     1      -6.711  61.622  37.644  1.00  0.00    -0.349 N 
ATOM     27  H3  UNL     1      -7.488  62.279  37.584  1.00  0.00     0.163 HD
BRANCH  26  28
HETATM   28  C15 UNL     1      -6.414  60.978  38.910  1.00  0.00     0.235 C 
BRANCH  28  29
HETATM   29  C16 UNL     1      -7.525  61.181  39.885  1.00  0.00     0.191 C 
HETATM   30  O5  UNL     1      -8.355  60.269  40.094  1.00  0.00    -0.647 OA
HETATM   31  O6  UNL     1      -7.660  62.366  40.573  1.00  0.00    -0.647 OA
ENDBRANCH  28  29
ENDBRANCH  26  28
ENDBRANCH   1  24
TORSDOF 16
ENDMDL
