MODEL 1
REMARK VINA RESULT: -5.735133464      0.000      0.000
REMARK  16 active torsions:
REMARK  status: ('A' for Active; 'I' for Inactive)
REMARK    1  A    between atoms: C2_2  and  C3_3 
REMARK    2  A    between atoms: C3_3  and  C4_4 
REMARK    3  A    between atoms: C4_4  and  C5_5 
REMARK    4  A    between atoms: C5_5  and  C6_6 
REMARK    5  A    between atoms: C6_6  and  S1_7 
REMARK    6  A    between atoms: S1_7  and  C7_8 
REMARK    7  A    between atoms: C7_8  and  C8_9 
REMARK    8  A    between atoms: C8_9  and  N1_10 
REMARK    9  A    between atoms: C8_9  and  C14_24 
REMARK       I    between atoms: N1_10  and  C9_12 
REMARK   10  A    between atoms: C9_12  and  C10_14 
REMARK   11  A    between atoms: C10_14  and  C11_15 
REMARK   12  A    between atoms: C11_15  and  C12_16 
REMARK   13  A    between atoms: C12_16  and  N2_17 
REMARK   14  A    between atoms: C12_16  and  C13_21 
REMARK       I    between atoms: C14_24  and  N3_26 
REMARK   15  A    between atoms: N3_26  and  C15_28 
REMARK   16  A    between atoms: C15_28  and  C16_29 
ROOT
HETATM    1  C8  UNL     1      -6.023  56.429  32.665  1.00  0.00     0.185 C 
ENDROOT
BRANCH   1   2
HETATM    2  C7  UNL     1      -4.783  56.449  31.824  1.00  0.00     0.108 C 
BRANCH   2   3
HETATM    3  S1  UNL     1      -3.518  57.383  32.732  1.00  0.00    -0.167 SA
BRANCH   3   4
HETATM    4  C6  UNL     1      -1.980  56.442  32.841  1.00  0.00     0.074 C 
BRANCH   4   5
HETATM    5  C5  UNL     1      -2.377  55.022  33.264  1.00  0.00     0.010 C 
BRANCH   5   6
HETATM    6  C4  UNL     1      -2.027  54.926  34.735  1.00  0.00     0.001 C 
BRANCH   6   7
HETATM    7  C3  UNL     1      -1.908  53.471  35.100  1.00  0.00    -0.000 C 
BRANCH   7   8
HETATM    8  C2  UNL     1      -1.567  53.361  36.576  1.00  0.00    -0.005 C 
HETATM    9  C1  UNL     1      -1.342  54.786  37.078  1.00  0.00     0.005 C 
ENDBRANCH   7   8
ENDBRANCH   6   7
ENDBRANCH   5   6
ENDBRANCH   4   5
ENDBRANCH   3   4
ENDBRANCH   2   3
ENDBRANCH   1   2
BRANCH   1  10
HETATM   10  N1  UNL     1      -6.226  55.047  33.067  1.00  0.00    -0.347 N 
HETATM   11  C9  UNL     1      -5.884  54.525  34.335  1.00  0.00     0.218 C 
HETATM   12  O1  UNL     1      -5.371  55.303  35.177  1.00  0.00    -0.274 OA
ATOM     13  H1  UNL     1      -6.643  54.410  32.388  1.00  0.00     0.163 HD
BRANCH  11  14
HETATM   14  C10 UNL     1      -6.129  53.079  34.664  1.00  0.00     0.105 C 
BRANCH  14  15
HETATM   15  C11 UNL     1      -5.423  52.782  35.960  1.00  0.00     0.053 C 
BRANCH  15  16
HETATM   16  C12 UNL     1      -6.404  52.093  36.904  1.00  0.00     0.283 C 
BRANCH  16  17
HETATM   17  N2  UNL     1      -7.592  51.679  36.187  1.00  0.00    -0.065 N 
ATOM     18  H23 UNL     1      -8.350  51.428  36.821  1.00  0.00     0.275 HD
ATOM     19  H22 UNL     1      -8.042  52.462  35.714  1.00  0.00     0.275 HD
ATOM     20  H21 UNL     1      -7.371  50.922  35.540  1.00  0.00     0.275 HD
ENDBRANCH  16  17
BRANCH  16  21
HETATM   21  C13 UNL     1      -6.721  53.002  38.018  1.00  0.00     0.204 C 
HETATM   22  O2  UNL     1      -7.338  54.076  37.867  1.00  0.00    -0.646 OA
HETATM   23  O3  UNL     1      -6.309  52.638  39.307  1.00  0.00    -0.646 OA
ENDBRANCH  16  21
ENDBRANCH  15  16
ENDBRANCH  14  15
ENDBRANCH  11  14
ENDBRANCH   1  10
BRANCH   1  24
HETATM   24  C14 UNL     1      -7.224  56.919  32.014  1.00  0.00     0.241 C 
HETATM   25  O4  UNL     1      -8.115  56.096  31.683  1.00  0.00    -0.271 OA
HETATM   26  N3  UNL     1      -7.496  58.279  31.708  1.00  0.00    -0.349 N 
ATOM     27  H3  UNL     1      -6.813  58.995  31.951  1.00  0.00     0.163 HD
BRANCH  26  28
HETATM   28  C15 UNL     1      -8.732  58.663  31.053  1.00  0.00     0.235 C 
BRANCH  28  29
HETATM   29  C16 UNL     1      -9.674  59.299  32.020  1.00  0.00     0.191 C 
HETATM   30  O5  UNL     1      -9.570  60.515  32.292  1.00  0.00    -0.647 OA
HETATM   31  O6  UNL     1     -10.668  58.568  32.629  1.00  0.00    -0.647 OA
ENDBRANCH  28  29
ENDBRANCH  26  28
ENDBRANCH   1  24
TORSDOF 16
ENDMDL
