MODEL 6
REMARK VINA RESULT: -8.891442259      1.864      2.614
REMARK  5 active torsions:
REMARK  status: ('A' for Active; 'I' for Inactive)
REMARK       I    between atoms: C1_2  and  N1_3 
REMARK    1  A    between atoms: C1_2  and  C9_20 
REMARK    2  A    between atoms: N1_3  and  N2_5 
REMARK    3  A    between atoms: N2_5  and  S1_7 
REMARK    4  A    between atoms: S1_7  and  C2_10 
REMARK    5  A    between atoms: C7_15  and  C8_16 
ROOT
HETATM    1  N2  UNL     1      30.107  64.685  92.436  1.00  0.00    -0.220 N 
ATOM      2  H2  UNL     1      29.864  65.666  92.296  1.00  0.00     0.200 HD
ENDROOT
BRANCH   1   3
HETATM    3  N1  UNL     1      29.543  63.766  91.623  1.00  0.00    -0.254 N 
HETATM    4  C1  UNL     1      29.772  63.455  90.268  1.00  0.00     0.294 C 
HETATM    5  O1  UNL     1      30.630  64.108  89.650  1.00  0.00    -0.264 OA
ATOM      6  H1  UNL     1      28.823  63.196  92.068  1.00  0.00     0.191 HD
BRANCH   4   7
HETATM    7  C9  UNL     1      29.006  62.370  89.596  1.00  0.00     0.146 A 
HETATM    8  C10 UNL     1      29.046  62.047  88.261  1.00  0.00     0.057 A 
HETATM    9  C11 UNL     1      28.203  60.988  88.006  1.00  0.00     0.002 A 
HETATM   10  C12 UNL     1      27.847  60.262  86.889  1.00  0.00     0.038 A 
HETATM   11  C16 UNL     1      27.661  60.698  89.259  1.00  0.00     0.086 A 
HETATM   12  C13 UNL     1      26.947  59.221  86.953  1.00  0.00     0.035 A 
HETATM   13 CL1  UNL     1      26.458  58.267  85.574  1.00  0.00    -0.084 Cl
HETATM   14  C14 UNL     1      26.418  58.948  88.214  1.00  0.00     0.026 A 
HETATM   15  C15 UNL     1      26.761  59.660  89.330  1.00  0.00     0.040 A 
HETATM   16  O4  UNL     1      28.168  61.539  90.154  1.00  0.00    -0.304 OA
ENDBRANCH   4   7
ENDBRANCH   1   3
BRANCH   1  17
HETATM   17  S1  UNL     1      31.176  64.306  93.657  1.00  0.00     0.277 S 
HETATM   18  O2  UNL     1      31.900  65.462  94.269  1.00  0.00    -0.199 OA
HETATM   19  O3  UNL     1      32.266  63.405  93.003  1.00  0.00    -0.199 OA
BRANCH  17  20
HETATM   20  C2  UNL     1      30.437  63.252  94.843  1.00  0.00     0.096 A 
HETATM   21  C3  UNL     1      29.733  63.805  95.876  1.00  0.00     0.026 A 
HETATM   22  C4  UNL     1      29.077  63.051  96.832  1.00  0.00     0.002 A 
HETATM   23  C5  UNL     1      29.153  61.682  96.713  1.00  0.00     0.001 A 
HETATM   24  C6  UNL     1      29.869  61.129  95.664  1.00  0.00     0.018 A 
HETATM   25  C7  UNL     1      30.523  61.898  94.711  1.00  0.00     0.071 A 
BRANCH  25  26
HETATM   26  C8  UNL     1      31.268  61.209  93.652  1.00  0.00     0.419 C 
HETATM   27  F1  UNL     1      31.131  59.836  93.801  1.00  0.00    -0.166 F 
HETATM   28  F2  UNL     1      32.654  61.440  93.779  1.00  0.00    -0.166 F 
HETATM   29  F3  UNL     1      30.911  61.513  92.379  1.00  0.00    -0.166 F 
ENDBRANCH  25  26
ENDBRANCH  17  20
ENDBRANCH   1  17
TORSDOF 5
ENDMDL
