MODEL 11
REMARK VINA RESULT: -8.804977822      3.943      4.754
REMARK  5 active torsions:
REMARK  status: ('A' for Active; 'I' for Inactive)
REMARK       I    between atoms: C1_2  and  N1_3 
REMARK    1  A    between atoms: C1_2  and  C9_20 
REMARK    2  A    between atoms: N1_3  and  N2_5 
REMARK    3  A    between atoms: N2_5  and  S1_7 
REMARK    4  A    between atoms: S1_7  and  C2_10 
REMARK    5  A    between atoms: C7_15  and  C8_16 
ROOT
HETATM    1  N2  UNL     1      31.205  61.597  92.180  1.00  0.00    -0.220 N 
ATOM      2  H2  UNL     1      31.090  62.205  91.368  1.00  0.00     0.200 HD
ENDROOT
BRANCH   1   3
HETATM    3  N1  UNL     1      30.735  60.333  92.100  1.00  0.00    -0.254 N 
HETATM    4  C1  UNL     1      29.506  59.769  92.494  1.00  0.00     0.294 C 
HETATM    5  O1  UNL     1      28.658  60.511  93.021  1.00  0.00    -0.264 OA
ATOM      6  H1  UNL     1      31.386  59.669  91.681  1.00  0.00     0.191 HD
BRANCH   4   7
HETATM    7  C9  UNL     1      29.229  58.322  92.284  1.00  0.00     0.146 A 
HETATM    8  C10 UNL     1      29.938  57.462  91.478  1.00  0.00     0.057 A 
HETATM    9  C11 UNL     1      29.387  56.201  91.535  1.00  0.00     0.002 A 
HETATM   10  C12 UNL     1      29.666  54.981  90.957  1.00  0.00     0.038 A 
HETATM   11  C16 UNL     1      28.315  56.356  92.416  1.00  0.00     0.086 A 
HETATM   12  C13 UNL     1      28.908  53.861  91.219  1.00  0.00     0.035 A 
HETATM   13 CL1  UNL     1      29.212  52.290  90.518  1.00  0.00    -0.084 Cl
HETATM   14  C14 UNL     1      27.843  54.036  92.102  1.00  0.00     0.026 A 
HETATM   15  C15 UNL     1      27.554  55.241  92.681  1.00  0.00     0.040 A 
HETATM   16  O4  UNL     1      28.271  57.619  92.824  1.00  0.00    -0.304 OA
ENDBRANCH   4   7
ENDBRANCH   1   3
BRANCH   1  17
HETATM   17  S1  UNL     1      31.960  62.219  93.529  1.00  0.00     0.277 S 
HETATM   18  O2  UNL     1      33.024  63.235  93.268  1.00  0.00    -0.199 OA
HETATM   19  O3  UNL     1      32.668  61.012  94.214  1.00  0.00    -0.199 OA
BRANCH  17  20
HETATM   20  C2  UNL     1      30.793  62.738  94.726  1.00  0.00     0.096 A 
HETATM   21  C3  UNL     1      30.418  61.867  95.710  1.00  0.00     0.026 A 
HETATM   22  C4  UNL     1      29.539  62.205  96.723  1.00  0.00     0.002 A 
HETATM   23  C5  UNL     1      29.034  63.485  96.715  1.00  0.00     0.001 A 
HETATM   24  C6  UNL     1      29.418  64.362  95.714  1.00  0.00     0.018 A 
HETATM   25  C7  UNL     1      30.301  64.010  94.703  1.00  0.00     0.071 A 
BRANCH  25  26
HETATM   26  C8  UNL     1      30.625  65.011  93.682  1.00  0.00     0.419 C 
HETATM   27  F1  UNL     1      29.823  66.131  93.853  1.00  0.00    -0.166 F 
HETATM   28  F2  UNL     1      30.300  64.540  92.393  1.00  0.00    -0.166 F 
HETATM   29  F3  UNL     1      31.913  65.438  93.655  1.00  0.00    -0.166 F 
ENDBRANCH  25  26
ENDBRANCH  17  20
ENDBRANCH   1  17
TORSDOF 5
ENDMDL
