MODEL 10
REMARK VINA RESULT: -8.818784434      1.714      2.286
REMARK  5 active torsions:
REMARK  status: ('A' for Active; 'I' for Inactive)
REMARK       I    between atoms: C1_2  and  N1_3 
REMARK    1  A    between atoms: C1_2  and  C9_20 
REMARK    2  A    between atoms: N1_3  and  N2_5 
REMARK    3  A    between atoms: N2_5  and  S1_7 
REMARK    4  A    between atoms: S1_7  and  C2_10 
REMARK    5  A    between atoms: C7_15  and  C8_16 
ROOT
HETATM    1  N2  UNL     1      29.932  64.595  92.295  1.00  0.00    -0.220 N 
ATOM      2  H2  UNL     1      29.628  65.566  92.225  1.00  0.00     0.200 HD
ENDROOT
BRANCH   1   3
HETATM    3  N1  UNL     1      29.389  63.693  91.449  1.00  0.00    -0.254 N 
HETATM    4  C1  UNL     1      29.676  63.386  90.104  1.00  0.00     0.294 C 
HETATM    5  O1  UNL     1      30.577  64.025  89.533  1.00  0.00    -0.264 OA
ATOM      6  H1  UNL     1      28.637  63.136  91.854  1.00  0.00     0.191 HD
BRANCH   4   7
HETATM    7  C9  UNL     1      28.922  62.322  89.388  1.00  0.00     0.146 A 
HETATM    8  C10 UNL     1      28.037  61.430  89.946  1.00  0.00     0.057 A 
HETATM    9  C11 UNL     1      27.535  60.594  88.973  1.00  0.00     0.002 A 
HETATM   10  C12 UNL     1      26.642  59.542  88.946  1.00  0.00     0.038 A 
HETATM   11  C16 UNL     1      28.166  61.036  87.809  1.00  0.00     0.086 A 
HETATM   12  C13 UNL     1      26.330  58.882  87.778  1.00  0.00     0.035 A 
HETATM   13 CL1  UNL     1      25.209  57.546  87.682  1.00  0.00    -0.084 Cl
HETATM   14  C14 UNL     1      26.971  59.339  86.627  1.00  0.00     0.026 A 
HETATM   15  C15 UNL     1      27.859  60.380  86.640  1.00  0.00     0.040 A 
HETATM   16  O4  UNL     1      28.967  62.051  88.111  1.00  0.00    -0.304 OA
ENDBRANCH   4   7
ENDBRANCH   1   3
BRANCH   1  17
HETATM   17  S1  UNL     1      31.071  64.208  93.449  1.00  0.00     0.277 S 
HETATM   18  O2  UNL     1      31.862  65.355  93.991  1.00  0.00    -0.199 OA
HETATM   19  O3  UNL     1      32.093  63.270  92.740  1.00  0.00    -0.199 OA
BRANCH  17  20
HETATM   20  C2  UNL     1      30.387  63.193  94.700  1.00  0.00     0.096 A 
HETATM   21  C3  UNL     1      29.761  63.780  95.763  1.00  0.00     0.026 A 
HETATM   22  C4  UNL     1      29.152  63.058  96.774  1.00  0.00     0.002 A 
HETATM   23  C5  UNL     1      29.194  61.685  96.678  1.00  0.00     0.001 A 
HETATM   24  C6  UNL     1      29.831  61.098  95.598  1.00  0.00     0.018 A 
HETATM   25  C7  UNL     1      30.439  61.835  94.591  1.00  0.00     0.071 A 
BRANCH  25  26
HETATM   26  C8  UNL     1      31.102  61.111  93.502  1.00  0.00     0.419 C 
HETATM   27  F1  UNL     1      30.965  59.743  93.697  1.00  0.00    -0.166 F 
HETATM   28  F2  UNL     1      32.495  61.331  93.525  1.00  0.00    -0.166 F 
HETATM   29  F3  UNL     1      30.659  61.384  92.249  1.00  0.00    -0.166 F 
ENDBRANCH  25  26
ENDBRANCH  17  20
ENDBRANCH   1  17
TORSDOF 5
ENDMDL
