MODEL 14
REMARK VINA RESULT: -8.624265132      5.314      8.984
REMARK  5 active torsions:
REMARK  status: ('A' for Active; 'I' for Inactive)
REMARK       I    between atoms: C1_2  and  N1_3 
REMARK    1  A    between atoms: C1_2  and  C9_20 
REMARK    2  A    between atoms: N1_3  and  N2_5 
REMARK    3  A    between atoms: N2_5  and  S1_7 
REMARK    4  A    between atoms: S1_7  and  C2_10 
REMARK    5  A    between atoms: C7_15  and  C8_16 
ROOT
HETATM    1  N2  UNL     1      28.903  57.440  89.156  1.00  0.00    -0.220 N 
ATOM      2  H2  UNL     1      29.634  57.030  88.574  1.00  0.00     0.200 HD
ENDROOT
BRANCH   1   3
HETATM    3  N1  UNL     1      29.273  58.271  90.155  1.00  0.00    -0.254 N 
HETATM    4  C1  UNL     1      29.532  58.031  91.519  1.00  0.00     0.294 C 
HETATM    5  O1  UNL     1      29.411  56.870  91.947  1.00  0.00    -0.264 OA
ATOM      6  H1  UNL     1      29.386  59.244  89.871  1.00  0.00     0.191 HD
BRANCH   4   7
HETATM    7  C9  UNL     1      29.940  59.140  92.423  1.00  0.00     0.146 A 
HETATM    8  C10 UNL     1      30.773  60.188  92.108  1.00  0.00     0.057 A 
HETATM    9  C11 UNL     1      30.921  61.016  93.198  1.00  0.00     0.002 A 
HETATM   10  C12 UNL     1      31.613  62.180  93.461  1.00  0.00     0.038 A 
HETATM   11  C16 UNL     1      30.134  60.407  94.177  1.00  0.00     0.086 A 
HETATM   12  C13 UNL     1      31.562  62.796  94.692  1.00  0.00     0.035 A 
HETATM   13 CL1  UNL     1      32.415  64.269  95.084  1.00  0.00    -0.084 Cl
HETATM   14  C14 UNL     1      30.769  62.171  95.655  1.00  0.00     0.026 A 
HETATM   15  C15 UNL     1      30.079  61.017  95.408  1.00  0.00     0.040 A 
HETATM   16  O4  UNL     1      29.582  59.311  93.667  1.00  0.00    -0.304 OA
ENDBRANCH   4   7
ENDBRANCH   1   3
BRANCH   1  17
HETATM   17  S1  UNL     1      27.319  57.047  88.821  1.00  0.00     0.277 S 
HETATM   18  O2  UNL     1      26.288  57.726  89.665  1.00  0.00    -0.199 OA
HETATM   19  O3  UNL     1      27.187  55.523  89.114  1.00  0.00    -0.199 OA
BRANCH  17  20
HETATM   20  C2  UNL     1      26.986  57.161  87.107  1.00  0.00     0.096 A 
HETATM   21  C3  UNL     1      26.882  56.013  86.372  1.00  0.00     0.026 A 
HETATM   22  C4  UNL     1      26.576  56.004  85.023  1.00  0.00     0.002 A 
HETATM   23  C5  UNL     1      26.371  57.223  84.418  1.00  0.00     0.001 A 
HETATM   24  C6  UNL     1      26.478  58.382  85.169  1.00  0.00     0.018 A 
HETATM   25  C7  UNL     1      26.786  58.377  86.522  1.00  0.00     0.071 A 
BRANCH  25  26
HETATM   26  C8  UNL     1      26.893  59.663  87.216  1.00  0.00     0.419 C 
HETATM   27  F1  UNL     1      26.762  60.701  86.304  1.00  0.00    -0.166 F 
HETATM   28  F2  UNL     1      28.183  59.836  87.761  1.00  0.00    -0.166 F 
HETATM   29  F3  UNL     1      25.991  59.882  88.206  1.00  0.00    -0.166 F 
ENDBRANCH  25  26
ENDBRANCH  17  20
ENDBRANCH   1  17
TORSDOF 5
ENDMDL
