MODEL 9
REMARK VINA RESULT: -8.830740108      5.291      8.004
REMARK  5 active torsions:
REMARK  status: ('A' for Active; 'I' for Inactive)
REMARK       I    between atoms: C1_2  and  N1_3 
REMARK    1  A    between atoms: C1_2  and  C9_20 
REMARK    2  A    between atoms: N1_3  and  N2_5 
REMARK    3  A    between atoms: N2_5  and  S1_7 
REMARK    4  A    between atoms: S1_7  and  C2_10 
REMARK    5  A    between atoms: C7_15  and  C8_16 
ROOT
HETATM    1  N2  UNL     1      30.978  60.004  92.107  1.00  0.00    -0.220 N 
ATOM      2  H2  UNL     1      31.732  59.440  91.715  1.00  0.00     0.200 HD
ENDROOT
BRANCH   1   3
HETATM    3  N1  UNL     1      31.192  61.328  92.271  1.00  0.00    -0.254 N 
HETATM    4  C1  UNL     1      31.924  62.041  93.240  1.00  0.00     0.294 C 
HETATM    5  O1  UNL     1      32.497  61.399  94.137  1.00  0.00    -0.264 OA
ATOM      6  H1  UNL     1      30.743  61.916  91.568  1.00  0.00     0.191 HD
BRANCH   4   7
HETATM    7  C9  UNL     1      32.010  63.526  93.189  1.00  0.00     0.146 A 
HETATM    8  C10 UNL     1      31.055  64.385  92.698  1.00  0.00     0.057 A 
HETATM    9  C11 UNL     1      31.488  65.687  92.816  1.00  0.00     0.002 A 
HETATM   10  C12 UNL     1      30.970  66.926  92.501  1.00  0.00     0.038 A 
HETATM   11  C16 UNL     1      32.747  65.558  93.403  1.00  0.00     0.086 A 
HETATM   12  C13 UNL     1      31.664  68.090  92.750  1.00  0.00     0.035 A 
HETATM   13 CL1  UNL     1      31.061  69.686  92.375  1.00  0.00    -0.084 Cl
HETATM   14  C14 UNL     1      32.920  67.939  93.338  1.00  0.00     0.026 A 
HETATM   15  C15 UNL     1      33.446  66.716  93.654  1.00  0.00     0.040 A 
HETATM   16  O4  UNL     1      33.002  64.269  93.600  1.00  0.00    -0.304 OA
ENDBRANCH   4   7
ENDBRANCH   1   3
BRANCH   1  17
HETATM   17  S1  UNL     1      29.552  59.242  92.511  1.00  0.00     0.277 S 
HETATM   18  O2  UNL     1      28.370  60.136  92.705  1.00  0.00    -0.199 OA
HETATM   19  O3  UNL     1      29.811  58.555  93.885  1.00  0.00    -0.199 OA
BRANCH  17  20
HETATM   20  C2  UNL     1      29.227  57.897  91.439  1.00  0.00     0.096 A 
HETATM   21  C3  UNL     1      29.396  56.622  91.903  1.00  0.00     0.026 A 
HETATM   22  C4  UNL     1      29.120  55.499  91.144  1.00  0.00     0.002 A 
HETATM   23  C5  UNL     1      28.654  55.705  89.866  1.00  0.00     0.001 A 
HETATM   24  C6  UNL     1      28.486  56.999  89.403  1.00  0.00     0.018 A 
HETATM   25  C7  UNL     1      28.767  58.117  90.174  1.00  0.00     0.071 A 
BRANCH  25  26
HETATM   26  C8  UNL     1      28.571  59.442  89.578  1.00  0.00     0.419 C 
HETATM   27  F1  UNL     1      28.155  59.306  88.261  1.00  0.00    -0.166 F 
HETATM   28  F2  UNL     1      29.794  60.141  89.490  1.00  0.00    -0.166 F 
HETATM   29  F3  UNL     1      27.676  60.249  90.202  1.00  0.00    -0.166 F 
ENDBRANCH  25  26
ENDBRANCH  17  20
ENDBRANCH   1  17
TORSDOF 5
ENDMDL
