MODEL 2
REMARK VINA RESULT: -7.740051995      0.883      1.457
REMARK  15 active torsions:
REMARK  status: ('A' for Active; 'I' for Inactive)
REMARK    1  A    between atoms: C2_2  and  C3_3 
REMARK    2  A    between atoms: C3_3  and  C4_4 
REMARK    3  A    between atoms: C4_4  and  C5_5 
REMARK    4  A    between atoms: C5_5  and  C6_6 
REMARK    5  A    between atoms: C6_6  and  C7_7 
REMARK    6  A    between atoms: C8_8  and  C9_9 
REMARK    7  A    between atoms: C9_9  and  C10_10 
REMARK    8  A    between atoms: C10_10  and  C11_11 
REMARK    9  A    between atoms: C11_11  and  C12_12 
REMARK   10  A    between atoms: C12_12  and  C13_13 
REMARK   11  A    between atoms: C13_13  and  C14_14 
REMARK   12  A    between atoms: C14_14  and  C15_15 
REMARK   13  A    between atoms: C15_15  and  C16_16 
REMARK   14  A    between atoms: C16_16  and  C17_17 
REMARK   15  A    between atoms: C17_17  and  C18_18 
ROOT
HETATM    1  C10 UNL     1      17.561  39.144  20.363  1.00  0.00     0.004 C 
ENDROOT
BRANCH   1   2
HETATM    2  C9  UNL     1      18.284  38.072  19.577  1.00  0.00     0.027 C 
BRANCH   2   3
HETATM    3  C8  UNL     1      18.270  36.855  20.414  1.00  0.00    -0.031 C 
HETATM    4  C7  UNL     1      18.193  35.618  19.990  1.00  0.00    -0.031 C 
BRANCH   4   5
HETATM    5  C6  UNL     1      18.106  35.285  18.563  1.00  0.00     0.027 C 
BRANCH   5   6
HETATM    6  C5  UNL     1      17.368  33.978  18.407  1.00  0.00     0.004 C 
BRANCH   6   7
HETATM    7  C4  UNL     1      16.397  33.792  19.531  1.00  0.00     0.000 C 
BRANCH   7   8
HETATM    8  C3  UNL     1      15.613  32.477  19.346  1.00  0.00    -0.000 C 
BRANCH   8   9
HETATM    9  C2  UNL     1      14.512  32.408  20.382  1.00  0.00    -0.005 C 
HETATM   10  C1  UNL     1      13.764  31.111  20.320  1.00  0.00     0.005 C 
ENDBRANCH   8   9
ENDBRANCH   7   8
ENDBRANCH   6   7
ENDBRANCH   5   6
ENDBRANCH   4   5
ENDBRANCH   2   3
ENDBRANCH   1   2
BRANCH   1  11
HETATM   11  C11 UNL     1      16.517  39.849  19.511  1.00  0.00     0.000 C 
BRANCH  11  12
HETATM   12  C12 UNL     1      17.234  41.027  18.903  1.00  0.00     0.000 C 
BRANCH  12  13
HETATM   13  C13 UNL     1      17.538  40.864  17.420  1.00  0.00     0.004 C 
BRANCH  13  14
HETATM   14  C14 UNL     1      19.006  40.731  17.210  1.00  0.00     0.027 C 
BRANCH  14  15
HETATM   15  C15 UNL     1      19.930  41.148  18.270  1.00  0.00    -0.030 C 
BRANCH  15  16
HETATM   16  C16 UNL     1      21.309  41.545  18.018  1.00  0.00    -0.020 C 
BRANCH  16  17
HETATM   17  C17 UNL     1      21.992  41.241  16.749  1.00  0.00     0.140 C 
BRANCH  17  18
HETATM   18  C18 UNL     1      23.056  40.205  17.076  1.00  0.00     0.176 C 
HETATM   19  O1  UNL     1      22.811  39.268  17.868  1.00  0.00    -0.648 OA
HETATM   20  O2  UNL     1      24.304  40.277  16.508  1.00  0.00    -0.648 OA
ENDBRANCH  17  18
ENDBRANCH  16  17
ENDBRANCH  15  16
ENDBRANCH  14  15
ENDBRANCH  13  14
ENDBRANCH  12  13
ENDBRANCH  11  12
ENDBRANCH   1  11
TORSDOF 15
ENDMDL
