MODEL 4
REMARK VINA RESULT: -7.005385221      3.331      6.444
REMARK  6 active torsions:
REMARK  status: ('A' for Active; 'I' for Inactive)
REMARK    1  A    between atoms: O1_1  and  C1_3 
REMARK    2  A    between atoms: C1_3  and  C2_4 
REMARK    3  A    between atoms: C3_6  and  N1_7 
REMARK    4  A    between atoms: C6_12  and  O3_13 
REMARK    5  A    between atoms: C9_21  and  O4_22 
REMARK    6  A    between atoms: C10_24  and  O5_25 
ROOT
HETATM    1  N1  UNL     1       6.618  17.258  38.656  1.00  0.00    -0.320 N 
HETATM    2  C4  UNL     1       6.467  16.785  40.019  1.00  0.00     0.251 A 
HETATM    3  N2  UNL     1       7.027  15.452  40.042  1.00  0.00    -0.367 N 
ATOM      4  H2  UNL     1       7.038  14.824  40.845  1.00  0.00     0.161 HD
HETATM    5  C5  UNL     1       7.554  15.167  38.773  1.00  0.00     0.125 A 
HETATM    6  C6  UNL     1       8.213  14.071  38.295  1.00  0.00     0.172 A 
HETATM    7  N3  UNL     1       8.618  14.050  37.028  1.00  0.00    -0.331 N 
ATOM      8  H3  UNL     1       9.110  13.231  36.673  1.00  0.00     0.168 HD
HETATM    9  C7  UNL     1       8.391  15.084  36.210  1.00  0.00     0.184 A 
HETATM   10  N4  UNL     1       7.738  16.174  36.677  1.00  0.00    -0.337 N 
ATOM     11  H4  UNL     1       7.568  16.960  36.049  1.00  0.00     0.168 HD
HETATM   12  C8  UNL     1       7.310  16.247  37.944  1.00  0.00     0.139 A 
ENDROOT
BRANCH   1  13
HETATM   13  C3  UNL     1       6.129  18.520  38.205  1.00  0.00     0.258 C 
HETATM   14  O2  UNL     1       5.053  19.000  38.935  1.00  0.00    -0.354 OA
HETATM   15  C2  UNL     1       4.553  19.982  38.080  1.00  0.00     0.179 C 
HETATM   16  C10 UNL     1       4.351  19.194  36.808  1.00  0.00     0.182 C 
HETATM   17  C9  UNL     1       5.608  18.349  36.773  1.00  0.00     0.198 C 
BRANCH  15  18
HETATM   18  C1  UNL     1       3.282  20.599  38.586  1.00  0.00     0.198 C 
BRANCH  18  19
HETATM   19  O1  UNL     1       2.717  21.490  37.702  1.00  0.00    -0.398 OA
ATOM     20  H1  UNL     1       2.827  22.398  37.958  1.00  0.00     0.209 HD
ENDBRANCH  18  19
ENDBRANCH  15  18
BRANCH  16  21
HETATM   21  O5  UNL     1       4.225  20.006  35.694  1.00  0.00    -0.390 OA
ATOM     22  H5  UNL     1       4.167  19.510  34.886  1.00  0.00     0.210 HD
ENDBRANCH  16  21
BRANCH  17  23
HETATM   23  O4  UNL     1       6.546  18.914  35.934  1.00  0.00    -0.388 OA
ATOM     24  H4  UNL     1       6.847  18.224  35.353  1.00  0.00     0.210 HD
ENDBRANCH  17  23
ENDBRANCH   1  13
BRANCH   6  25
HETATM   25  O3  UNL     1       8.447  13.000  39.146  1.00  0.00    -0.344 OA
ATOM     26  H3  UNL     1       9.338  12.812  39.417  1.00  0.00     0.219 HD
ENDBRANCH   6  25
TORSDOF 6
ENDMDL
