MODEL 1
REMARK VINA RESULT: -8.186565609      0.000      0.000
REMARK  6 active torsions:
REMARK  status: ('A' for Active; 'I' for Inactive)
REMARK    1  A    between atoms: O1_1  and  C1_3 
REMARK    2  A    between atoms: C1_3  and  C2_4 
REMARK    3  A    between atoms: C3_6  and  N1_7 
REMARK    4  A    between atoms: C6_12  and  O3_13 
REMARK    5  A    between atoms: C9_21  and  O4_22 
REMARK    6  A    between atoms: C10_24  and  O5_25 
ROOT
HETATM    1  N1  UNL     1       4.788  19.493  37.298  1.00  0.00    -0.320 N 
HETATM    2  C4  UNL     1       4.272  19.555  35.943  1.00  0.00     0.251 A 
HETATM    3  N2  UNL     1       2.923  20.064  36.055  1.00  0.00    -0.367 N 
ATOM      4  H2  UNL     1       2.266  20.186  35.284  1.00  0.00     0.161 HD
HETATM    5  C5  UNL     1       2.667  20.361  37.403  1.00  0.00     0.125 A 
HETATM    6  C6  UNL     1       1.569  20.892  38.017  1.00  0.00     0.172 A 
HETATM    7  N3  UNL     1       1.581  21.078  39.334  1.00  0.00    -0.331 N 
ATOM      8  H3  UNL     1       0.760  21.475  39.791  1.00  0.00     0.168 HD
HETATM    9  C7  UNL     1       2.649  20.754  40.070  1.00  0.00     0.184 A 
HETATM   10  N4  UNL     1       3.742  20.227  39.468  1.00  0.00    -0.337 N 
ATOM     11  H4  UNL     1       4.553  19.982  40.036  1.00  0.00     0.168 HD
HETATM   12  C8  UNL     1       3.782  20.019  38.146  1.00  0.00     0.139 A 
ENDROOT
BRANCH   1  13
HETATM   13  C3  UNL     1       6.079  18.980  37.622  1.00  0.00     0.258 C 
HETATM   14  O2  UNL     1       7.116  19.863  37.362  1.00  0.00    -0.354 OA
HETATM   15  C2  UNL     1       8.219  19.010  37.386  1.00  0.00     0.179 C 
HETATM   16  C10 UNL     1       7.807  17.961  36.380  1.00  0.00     0.182 C 
HETATM   17  C9  UNL     1       6.348  17.759  36.734  1.00  0.00     0.198 C 
BRANCH  15  18
HETATM   18  C1  UNL     1       9.496  19.702  37.010  1.00  0.00     0.198 C 
BRANCH  18  19
HETATM   19  O1  UNL     1       9.398  20.440  35.852  1.00  0.00    -0.398 OA
ATOM     20  H1  UNL     1       9.625  21.355  35.968  1.00  0.00     0.209 HD
ENDBRANCH  18  19
ENDBRANCH  15  18
BRANCH  16  21
HETATM   21  O5  UNL     1       8.548  16.797  36.492  1.00  0.00    -0.390 OA
ATOM     22  H5  UNL     1       8.330  16.161  35.822  1.00  0.00     0.210 HD
ENDBRANCH  16  21
BRANCH  17  23
HETATM   23  O4  UNL     1       6.195  16.643  37.531  1.00  0.00    -0.388 OA
ATOM     24  H4  UNL     1       7.056  16.424  37.867  1.00  0.00     0.210 HD
ENDBRANCH  17  23
ENDBRANCH   1  13
BRANCH   6  25
HETATM   25  O3  UNL     1       0.462  21.226  37.250  1.00  0.00    -0.344 OA
ATOM     26  H3  UNL     1      -0.320  20.691  37.310  1.00  0.00     0.219 HD
ENDBRANCH   6  25
TORSDOF 6
ENDMDL
