MODEL 3
REMARK VINA RESULT: -7.077428624      4.237      6.470
REMARK  6 active torsions:
REMARK  status: ('A' for Active; 'I' for Inactive)
REMARK    1  A    between atoms: O1_1  and  C1_3 
REMARK    2  A    between atoms: C1_3  and  C2_4 
REMARK    3  A    between atoms: C3_6  and  N1_7 
REMARK    4  A    between atoms: C6_12  and  O3_13 
REMARK    5  A    between atoms: C9_21  and  O4_22 
REMARK    6  A    between atoms: C10_24  and  O5_25 
ROOT
HETATM    1  N1  UNL     1       7.406  15.453  37.801  1.00  0.00    -0.320 N 
HETATM    2  C4  UNL     1       8.145  14.710  36.798  1.00  0.00     0.251 A 
HETATM    3  N2  UNL     1       8.094  13.325  37.211  1.00  0.00    -0.367 N 
ATOM      4  H2  UNL     1       8.556  12.546  36.742  1.00  0.00     0.161 HD
HETATM    5  C5  UNL     1       7.301  13.232  38.366  1.00  0.00     0.125 A 
HETATM    6  C6  UNL     1       6.920  12.155  39.114  1.00  0.00     0.172 A 
HETATM    7  N3  UNL     1       6.150  12.340  40.183  1.00  0.00    -0.331 N 
ATOM      8  H3  UNL     1       5.865  11.534  40.740  1.00  0.00     0.168 HD
HETATM    9  C7  UNL     1       5.741  13.562  40.540  1.00  0.00     0.184 A 
HETATM   10  N4  UNL     1       6.116  14.634  39.803  1.00  0.00    -0.337 N 
ATOM     11  H4  UNL     1       5.801  15.564  40.082  1.00  0.00     0.168 HD
HETATM   12  C8  UNL     1       6.890  14.504  38.718  1.00  0.00     0.139 A 
ENDROOT
BRANCH   1  13
HETATM   13  C3  UNL     1       7.276  16.874  37.787  1.00  0.00     0.258 C 
HETATM   14  O2  UNL     1       5.969  17.317  37.654  1.00  0.00    -0.354 OA
HETATM   15  C2  UNL     1       6.164  18.647  37.283  1.00  0.00     0.179 C 
HETATM   16  C10 UNL     1       7.067  18.492  36.082  1.00  0.00     0.182 C 
HETATM   17  C9  UNL     1       8.017  17.412  36.557  1.00  0.00     0.198 C 
BRANCH  15  18
HETATM   18  C1  UNL     1       4.880  19.351  36.953  1.00  0.00     0.198 C 
BRANCH  18  19
HETATM   19  O1  UNL     1       4.730  19.615  35.610  1.00  0.00    -0.398 OA
ATOM     20  H1  UNL     1       4.556  18.839  35.091  1.00  0.00     0.209 HD
ENDBRANCH  18  19
ENDBRANCH  15  18
BRANCH  16  21
HETATM   21  O5  UNL     1       7.720  19.668  35.754  1.00  0.00    -0.390 OA
ATOM     22  H5  UNL     1       8.565  19.514  35.349  1.00  0.00     0.210 HD
ENDBRANCH  16  21
BRANCH  17  23
HETATM   23  O4  UNL     1       9.194  17.969  37.012  1.00  0.00    -0.388 OA
ATOM     24  H4  UNL     1       9.857  17.290  36.965  1.00  0.00     0.210 HD
ENDBRANCH  17  23
ENDBRANCH   1  13
BRANCH   6  25
HETATM   25  O3  UNL     1       7.345  10.889  38.740  1.00  0.00    -0.344 OA
ATOM     26  H3  UNL     1       6.773  10.145  38.893  1.00  0.00     0.219 HD
ENDBRANCH   6  25
TORSDOF 6
ENDMDL
