MODEL 2
REMARK VINA RESULT: -7.470953752      3.242      6.036
REMARK  6 active torsions:
REMARK  status: ('A' for Active; 'I' for Inactive)
REMARK    1  A    between atoms: O1_1  and  C1_3 
REMARK    2  A    between atoms: C1_3  and  C2_4 
REMARK    3  A    between atoms: C3_6  and  N1_7 
REMARK    4  A    between atoms: C6_12  and  O3_13 
REMARK    5  A    between atoms: C9_21  and  O4_22 
REMARK    6  A    between atoms: C10_24  and  O5_25 
ROOT
HETATM    1  N1  UNL     1       6.636  17.572  37.615  1.00  0.00    -0.320 N 
HETATM    2  C4  UNL     1       7.345  17.037  36.467  1.00  0.00     0.251 A 
HETATM    3  N2  UNL     1       7.957  15.806  36.917  1.00  0.00    -0.367 N 
ATOM      4  H2  UNL     1       8.565  15.205  36.360  1.00  0.00     0.161 HD
HETATM    5  C5  UNL     1       7.575  15.577  38.248  1.00  0.00     0.125 A 
HETATM    6  C6  UNL     1       7.853  14.548  39.102  1.00  0.00     0.172 A 
HETATM    7  N3  UNL     1       7.359  14.570  40.337  1.00  0.00    -0.331 N 
ATOM      8  H3  UNL     1       7.567  13.801  40.973  1.00  0.00     0.168 HD
HETATM    9  C7  UNL     1       6.593  15.582  40.759  1.00  0.00     0.184 A 
HETATM   10  N4  UNL     1       6.313  16.605  39.918  1.00  0.00    -0.337 N 
ATOM     11  H4  UNL     1       5.728  17.374  40.247  1.00  0.00     0.168 HD
HETATM   12  C8  UNL     1       6.785  16.633  38.665  1.00  0.00     0.139 A 
ENDROOT
BRANCH   1  13
HETATM   13  C3  UNL     1       5.946  18.821  37.598  1.00  0.00     0.258 C 
HETATM   14  O2  UNL     1       5.235  19.085  38.759  1.00  0.00    -0.354 OA
HETATM   15  C2  UNL     1       4.385  20.107  38.336  1.00  0.00     0.179 C 
HETATM   16  C10 UNL     1       3.724  19.468  37.138  1.00  0.00     0.182 C 
HETATM   17  C9  UNL     1       4.899  18.775  36.479  1.00  0.00     0.198 C 
BRANCH  15  18
HETATM   18  C1  UNL     1       3.399  20.514  39.391  1.00  0.00     0.198 C 
BRANCH  18  19
HETATM   19  O1  UNL     1       2.752  19.449  39.977  1.00  0.00    -0.398 OA
ATOM     20  H1  UNL     1       3.345  18.808  40.350  1.00  0.00     0.209 HD
ENDBRANCH  18  19
ENDBRANCH  15  18
BRANCH  16  21
HETATM   21  O5  UNL     1       3.119  20.396  36.307  1.00  0.00    -0.390 OA
ATOM     22  H5  UNL     1       3.579  21.226  36.293  1.00  0.00     0.210 HD
ENDBRANCH  16  21
BRANCH  17  23
HETATM   23  O4  UNL     1       5.390  19.540  35.440  1.00  0.00    -0.388 OA
ATOM     24  H4  UNL     1       5.478  20.427  35.769  1.00  0.00     0.210 HD
ENDBRANCH  17  23
ENDBRANCH   1  13
BRANCH   6  25
HETATM   25  O3  UNL     1       8.648  13.500  38.660  1.00  0.00    -0.344 OA
ATOM     26  H3  UNL     1       8.355  12.979  37.921  1.00  0.00     0.219 HD
ENDBRANCH   6  25
TORSDOF 6
ENDMDL
