MODEL 11
REMARK VINA RESULT: -5.993855833      1.775      4.630
REMARK  4 active torsions:
REMARK  status: ('A' for Active; 'I' for Inactive)
REMARK    1  A    between atoms: C4_4  and  C5_5 
REMARK    2  A    between atoms: C5_5  and  C6_6 
REMARK    3  A    between atoms: C6_6  and  N1_7 
REMARK    4  A    between atoms: N1_7  and  C8_9 
ROOT
HETATM    1  N1  UNL     1      36.378  72.780  38.298  1.00  0.00     0.089 N 
HETATM    2  C7  UNL     1      36.016  74.028  38.904  1.00  0.00     0.310 C 
ENDROOT
BRANCH   1   3
HETATM    3  C6  UNL     1      35.299  72.029  37.757  1.00  0.00     0.276 C 
BRANCH   3   4
HETATM    4  C5  UNL     1      35.532  71.465  36.386  1.00  0.00     0.057 C 
BRANCH   4   5
HETATM    5  C4  UNL     1      34.881  72.330  35.349  1.00  0.00    -0.023 C 
HETATM    6  C2  UNL     1      35.471  72.593  34.187  1.00  0.00    -0.091 C 
HETATM    7  C1  UNL     1      34.836  73.450  33.153  1.00  0.00     0.042 C 
HETATM    8  C3  UNL     1      36.812  71.994  33.944  1.00  0.00     0.042 C 
ENDBRANCH   4   5
ENDBRANCH   3   4
ENDBRANCH   1   3
BRANCH   1   9
HETATM    9  C8  UNL     1      37.465  73.009  37.381  1.00  0.00     0.226 C 
HETATM   10  C9  UNL     1      37.696  74.449  37.056  1.00  0.00     0.063 C 
HETATM   11  C10 UNL     1      38.662  74.485  35.922  1.00  0.00    -0.022 C 
HETATM   12  C11 UNL     1      39.545  73.508  35.747  1.00  0.00    -0.087 C 
HETATM   13  C12 UNL     1      40.524  73.549  34.595  1.00  0.00     0.043 C 
HETATM   14  C13 UNL     1      39.664  72.315  36.631  1.00  0.00     0.035 C 
HETATM   15  C14 UNL     1      38.776  72.430  37.855  1.00  0.00     0.040 C 
ENDBRANCH   1   9
TORSDOF 4
ENDMDL
