MODEL 4
REMARK VINA RESULT: -6.202779245      1.725      4.326
REMARK  4 active torsions:
REMARK  status: ('A' for Active; 'I' for Inactive)
REMARK    1  A    between atoms: C4_4  and  C5_5 
REMARK    2  A    between atoms: C5_5  and  C6_6 
REMARK    3  A    between atoms: C6_6  and  N1_7 
REMARK    4  A    between atoms: N1_7  and  C8_9 
ROOT
HETATM    1  N1  UNL     1      35.204  72.385  36.775  1.00  0.00     0.089 N 
HETATM    2  C7  UNL     1      34.247  72.242  35.716  1.00  0.00     0.310 C 
ENDROOT
BRANCH   1   3
HETATM    3  C6  UNL     1      35.281  71.290  37.679  1.00  0.00     0.276 C 
BRANCH   3   4
HETATM    4  C5  UNL     1      36.038  70.095  37.180  1.00  0.00     0.057 C 
BRANCH   4   5
HETATM    5  C4  UNL     1      37.442  70.112  37.704  1.00  0.00    -0.023 C 
HETATM    6  C2  UNL     1      38.493  70.028  36.894  1.00  0.00    -0.091 C 
HETATM    7  C1  UNL     1      39.888  70.043  37.402  1.00  0.00     0.042 C 
HETATM    8  C3  UNL     1      38.228  69.915  35.433  1.00  0.00     0.042 C 
ENDBRANCH   4   5
ENDBRANCH   3   4
ENDBRANCH   1   3
BRANCH   1   9
HETATM    9  C8  UNL     1      36.468  72.778  36.205  1.00  0.00     0.226 C 
HETATM   10  C9  UNL     1      36.391  73.183  34.770  1.00  0.00     0.063 C 
HETATM   11  C10 UNL     1      37.794  73.305  34.282  1.00  0.00    -0.022 C 
HETATM   12  C11 UNL     1      38.782  73.615  35.113  1.00  0.00    -0.087 C 
HETATM   13  C12 UNL     1      40.204  73.739  34.614  1.00  0.00     0.043 C 
HETATM   14  C13 UNL     1      38.603  73.867  36.571  1.00  0.00     0.035 C 
HETATM   15  C14 UNL     1      37.139  73.898  36.963  1.00  0.00     0.040 C 
ENDBRANCH   1   9
TORSDOF 4
ENDMDL
