MODEL 14
REMARK VINA RESULT: -5.971316371      2.119      4.776
REMARK  4 active torsions:
REMARK  status: ('A' for Active; 'I' for Inactive)
REMARK    1  A    between atoms: C4_4  and  C5_5 
REMARK    2  A    between atoms: C5_5  and  C6_6 
REMARK    3  A    between atoms: C6_6  and  N1_7 
REMARK    4  A    between atoms: N1_7  and  C8_9 
ROOT
HETATM    1  N1  UNL     1      40.276  70.625  37.000  1.00  0.00     0.089 N 
HETATM    2  C7  UNL     1      40.815  70.709  38.326  1.00  0.00     0.310 C 
ENDROOT
BRANCH   1   3
HETATM    3  C6  UNL     1      39.394  69.534  36.768  1.00  0.00     0.276 C 
BRANCH   3   4
HETATM    4  C5  UNL     1      38.149  69.865  35.998  1.00  0.00     0.057 C 
BRANCH   4   5
HETATM    5  C4  UNL     1      37.007  70.115  36.937  1.00  0.00    -0.023 C 
HETATM    6  C2  UNL     1      36.088  71.043  36.690  1.00  0.00    -0.091 C 
HETATM    7  C1  UNL     1      34.953  71.300  37.613  1.00  0.00     0.042 C 
HETATM    8  C3  UNL     1      36.230  71.836  35.437  1.00  0.00     0.042 C 
ENDBRANCH   4   5
ENDBRANCH   3   4
ENDBRANCH   1   3
BRANCH   1   9
HETATM    9  C8  UNL     1      39.741  71.912  36.636  1.00  0.00     0.226 C 
HETATM   10  C9  UNL     1      39.472  72.812  37.798  1.00  0.00     0.063 C 
HETATM   11  C10 UNL     1      38.698  73.972  37.274  1.00  0.00    -0.022 C 
HETATM   12  C11 UNL     1      38.831  74.368  36.013  1.00  0.00    -0.087 C 
HETATM   13  C12 UNL     1      38.045  75.547  35.485  1.00  0.00     0.043 C 
HETATM   14  C13 UNL     1      39.736  73.720  35.021  1.00  0.00     0.035 C 
HETATM   15  C14 UNL     1      40.615  72.666  35.665  1.00  0.00     0.040 C 
ENDBRANCH   1   9
TORSDOF 4
ENDMDL
