MODEL 9
REMARK VINA RESULT: -6.036619516      1.675      2.290
REMARK  4 active torsions:
REMARK  status: ('A' for Active; 'I' for Inactive)
REMARK    1  A    between atoms: C4_4  and  C5_5 
REMARK    2  A    between atoms: C5_5  and  C6_6 
REMARK    3  A    between atoms: C6_6  and  N1_7 
REMARK    4  A    between atoms: N1_7  and  C8_9 
ROOT
HETATM    1  N1  UNL     1      39.985  72.924  35.310  1.00  0.00     0.089 N 
HETATM    2  C7  UNL     1      40.451  72.399  34.059  1.00  0.00     0.310 C 
ENDROOT
BRANCH   1   3
HETATM    3  C6  UNL     1      39.483  74.253  35.265  1.00  0.00     0.276 C 
BRANCH   3   4
HETATM    4  C5  UNL     1      38.029  74.404  35.606  1.00  0.00     0.057 C 
BRANCH   4   5
HETATM    5  C4  UNL     1      37.862  74.644  37.076  1.00  0.00    -0.023 C 
HETATM    6  C2  UNL     1      36.841  74.131  37.757  1.00  0.00    -0.091 C 
HETATM    7  C1  UNL     1      36.665  74.362  39.213  1.00  0.00     0.042 C 
HETATM    8  C3  UNL     1      35.859  73.302  37.005  1.00  0.00     0.042 C 
ENDBRANCH   4   5
ENDBRANCH   3   4
ENDBRANCH   1   3
BRANCH   1   9
HETATM    9  C8  UNL     1      39.089  71.968  35.908  1.00  0.00     0.226 C 
HETATM   10  C9  UNL     1      38.681  70.859  34.994  1.00  0.00     0.063 C 
HETATM   11  C10 UNL     1      37.578  70.125  35.673  1.00  0.00    -0.022 C 
HETATM   12  C11 UNL     1      37.491  70.096  36.999  1.00  0.00    -0.087 C 
HETATM   13  C12 UNL     1      36.370  69.348  37.685  1.00  0.00     0.043 C 
HETATM   14  C13 UNL     1      38.453  70.768  37.917  1.00  0.00     0.035 C 
HETATM   15  C14 UNL     1      39.639  71.344  37.168  1.00  0.00     0.040 C 
ENDBRANCH   1   9
TORSDOF 4
ENDMDL
