MODEL 1
REMARK VINA RESULT: -6.332539365      0.000      0.000
REMARK  4 active torsions:
REMARK  status: ('A' for Active; 'I' for Inactive)
REMARK    1  A    between atoms: C4_4  and  C5_5 
REMARK    2  A    between atoms: C5_5  and  C6_6 
REMARK    3  A    between atoms: C6_6  and  N1_7 
REMARK    4  A    between atoms: N1_7  and  C8_9 
ROOT
HETATM    1  N1  UNL     1      37.536  73.678  34.164  1.00  0.00     0.089 N 
HETATM    2  C7  UNL     1      36.440  73.985  33.292  1.00  0.00     0.310 C 
ENDROOT
BRANCH   1   3
HETATM    3  C6  UNL     1      38.091  74.786  34.860  1.00  0.00     0.276 C 
BRANCH   3   4
HETATM    4  C5  UNL     1      38.579  74.493  36.250  1.00  0.00     0.057 C 
BRANCH   4   5
HETATM    5  C4  UNL     1      37.497  74.768  37.250  1.00  0.00    -0.023 C 
HETATM    6  C2  UNL     1      37.346  74.021  38.340  1.00  0.00    -0.091 C 
HETATM    7  C1  UNL     1      36.277  74.283  39.338  1.00  0.00     0.042 C 
HETATM    8  C3  UNL     1      38.297  72.892  38.538  1.00  0.00     0.042 C 
ENDBRANCH   4   5
ENDBRANCH   3   4
ENDBRANCH   1   3
BRANCH   1   9
HETATM    9  C8  UNL     1      37.161  72.570  35.006  1.00  0.00     0.226 C 
HETATM   10  C9  UNL     1      35.687  72.340  35.090  1.00  0.00     0.063 C 
HETATM   11  C10 UNL     1      35.469  71.348  36.180  1.00  0.00    -0.022 C 
HETATM   12  C11 UNL     1      36.403  70.455  36.488  1.00  0.00    -0.087 C 
HETATM   13  C12 UNL     1      36.177  69.448  37.594  1.00  0.00     0.043 C 
HETATM   14  C13 UNL     1      37.722  70.350  35.803  1.00  0.00     0.035 C 
HETATM   15  C14 UNL     1      37.806  71.268  34.599  1.00  0.00     0.040 C 
ENDBRANCH   1   9
TORSDOF 4
ENDMDL
