MODEL 3
REMARK VINA RESULT: -5.540485858      2.240      2.957
REMARK  3 active torsions:
REMARK  status: ('A' for Active; 'I' for Inactive)
REMARK       I    between atoms: C2_2  and  N1_4 
REMARK    1  A    between atoms: N1_4  and  C3_6 
REMARK    2  A    between atoms: C3_6  and  C4_7 
REMARK    3  A    between atoms: C4_7  and  C5_8 
ROOT
HETATM    1  C5  UNL     1     -14.452   5.736  25.107  1.00  0.00     0.027 A 
HETATM    2  C6  UNL     1     -13.991   6.848  24.475  1.00  0.00     0.114 A 
HETATM    3  N2  UNL     1     -14.617   7.958  24.944  1.00  0.00    -0.360 N 
ATOM      4  H2  UNL     1     -14.475   8.925  24.656  1.00  0.00     0.166 HD
HETATM    5  C7  UNL     1     -15.469   7.491  25.876  1.00  0.00     0.180 A 
HETATM    6  N3  UNL     1     -15.385   6.168  25.987  1.00  0.00    -0.355 N 
ATOM      7  H3  UNL     1     -15.928   5.583  26.623  1.00  0.00     0.166 HD
ENDROOT
BRANCH   1   8
HETATM    8  C4  UNL     1     -14.014   4.314  24.873  1.00  0.00     0.078 C 
BRANCH   8   9
HETATM    9  C3  UNL     1     -14.060   4.029  23.392  1.00  0.00     0.128 C 
BRANCH   9  10
HETATM   10  N1  UNL     1     -15.094   3.104  23.049  1.00  0.00    -0.361 N 
HETATM   11  C2  UNL     1     -16.223   3.552  22.324  1.00  0.00     0.213 C 
HETATM   12  C1  UNL     1     -17.306   2.607  21.958  1.00  0.00     0.117 C 
HETATM   13  O1  UNL     1     -16.362   4.745  21.963  1.00  0.00    -0.274 OA
ATOM     14  H1  UNL     1     -15.019   2.125  23.325  1.00  0.00     0.162 HD
ENDBRANCH   9  10
ENDBRANCH   8   9
ENDBRANCH   1   8
TORSDOF 3
ENDMDL
