MODEL 1
REMARK VINA RESULT: -5.713803614      0.000      0.000
REMARK  3 active torsions:
REMARK  status: ('A' for Active; 'I' for Inactive)
REMARK       I    between atoms: C2_2  and  N1_4 
REMARK    1  A    between atoms: N1_4  and  C3_6 
REMARK    2  A    between atoms: C3_6  and  C4_7 
REMARK    3  A    between atoms: C4_7  and  C5_8 
ROOT
HETATM    1  C5  UNL     1     -13.550   4.407  25.335  1.00  0.00     0.027 A 
HETATM    2  C6  UNL     1     -14.501   4.317  26.302  1.00  0.00     0.114 A 
HETATM    3  N2  UNL     1     -14.350   3.169  27.013  1.00  0.00    -0.360 N 
ATOM      4  H2  UNL     1     -14.916   2.838  27.794  1.00  0.00     0.166 HD
HETATM    5  C7  UNL     1     -13.285   2.568  26.452  1.00  0.00     0.180 A 
HETATM    6  N3  UNL     1     -12.795   3.290  25.449  1.00  0.00    -0.355 N 
ATOM      7  H3  UNL     1     -11.991   3.046  24.870  1.00  0.00     0.166 HD
ENDROOT
BRANCH   1   8
HETATM    8  C4  UNL     1     -13.376   5.523  24.338  1.00  0.00     0.078 C 
BRANCH   8   9
HETATM    9  C3  UNL     1     -14.486   5.442  23.319  1.00  0.00     0.128 C 
BRANCH   9  10
HETATM   10  N1  UNL     1     -14.409   4.257  22.525  1.00  0.00    -0.361 N 
HETATM   11  C2  UNL     1     -15.551   3.809  21.820  1.00  0.00     0.213 C 
HETATM   12  C1  UNL     1     -15.489   2.582  20.989  1.00  0.00     0.117 C 
HETATM   13  O1  UNL     1     -16.648   4.414  21.861  1.00  0.00    -0.274 OA
ATOM     14  H1  UNL     1     -13.534   3.736  22.466  1.00  0.00     0.162 HD
ENDBRANCH   9  10
ENDBRANCH   8   9
ENDBRANCH   1   8
TORSDOF 3
ENDMDL
