MODEL 2
REMARK VINA RESULT: -5.662589279      1.601      1.905
REMARK  3 active torsions:
REMARK  status: ('A' for Active; 'I' for Inactive)
REMARK       I    between atoms: C2_2  and  N1_4 
REMARK    1  A    between atoms: N1_4  and  C3_6 
REMARK    2  A    between atoms: C3_6  and  C4_7 
REMARK    3  A    between atoms: C4_7  and  C5_8 
ROOT
HETATM    1  C5  UNL     1     -14.071   4.525  24.884  1.00  0.00     0.027 A 
HETATM    2  C6  UNL     1     -14.723   5.718  24.868  1.00  0.00     0.114 A 
HETATM    3  N2  UNL     1     -15.418   5.898  26.021  1.00  0.00    -0.360 N 
ATOM      4  H2  UNL     1     -15.997   6.695  26.285  1.00  0.00     0.166 HD
HETATM    5  C7  UNL     1     -15.171   4.784  26.735  1.00  0.00     0.180 A 
HETATM    6  N3  UNL     1     -14.370   3.953  26.074  1.00  0.00    -0.355 N 
ATOM      7  H3  UNL     1     -14.040   3.047  26.405  1.00  0.00     0.166 HD
ENDROOT
BRANCH   1   8
HETATM    8  C4  UNL     1     -13.196   3.957  23.798  1.00  0.00     0.078 C 
BRANCH   8   9
HETATM    9  C3  UNL     1     -13.971   3.950  22.503  1.00  0.00     0.128 C 
BRANCH   9  10
HETATM   10  N1  UNL     1     -15.055   3.019  22.523  1.00  0.00    -0.361 N 
HETATM   11  C2  UNL     1     -16.332   3.419  22.068  1.00  0.00     0.213 C 
HETATM   12  C1  UNL     1     -17.468   2.465  22.080  1.00  0.00     0.117 C 
HETATM   13  O1  UNL     1     -16.564   4.575  21.641  1.00  0.00    -0.274 OA
ATOM     14  H1  UNL     1     -14.907   2.069  22.864  1.00  0.00     0.162 HD
ENDBRANCH   9  10
ENDBRANCH   8   9
ENDBRANCH   1   8
TORSDOF 3
ENDMDL
