MODEL 20
REMARK VINA RESULT: -5.027090190      3.308      4.694
REMARK  3 active torsions:
REMARK  status: ('A' for Active; 'I' for Inactive)
REMARK       I    between atoms: C2_2  and  N1_4 
REMARK    1  A    between atoms: N1_4  and  C3_6 
REMARK    2  A    between atoms: C3_6  and  C4_7 
REMARK    3  A    between atoms: C4_7  and  C5_8 
ROOT
HETATM    1  C5  UNL     1     -15.135   2.917  21.908  1.00  0.00     0.027 A 
HETATM    2  C6  UNL     1     -15.668   3.829  22.765  1.00  0.00     0.114 A 
HETATM    3  N2  UNL     1     -17.015   3.678  22.845  1.00  0.00    -0.360 N 
ATOM      4  H2  UNL     1     -17.673   4.218  23.406  1.00  0.00     0.166 HD
HETATM    5  C7  UNL     1     -17.285   2.653  22.015  1.00  0.00     0.180 A 
HETATM    6  N3  UNL     1     -16.177   2.186  21.447  1.00  0.00    -0.355 N 
ATOM      7  H3  UNL     1     -16.122   1.415  20.782  1.00  0.00     0.166 HD
ENDROOT
BRANCH   1   8
HETATM    8  C4  UNL     1     -13.682   2.757  21.546  1.00  0.00     0.078 C 
BRANCH   8   9
HETATM    9  C3  UNL     1     -12.961   4.048  21.848  1.00  0.00     0.128 C 
BRANCH   9  10
HETATM   10  N1  UNL     1     -11.805   3.847  22.663  1.00  0.00    -0.361 N 
HETATM   11  C2  UNL     1     -11.350   4.888  23.506  1.00  0.00     0.213 C 
HETATM   12  C1  UNL     1     -10.153   4.697  24.360  1.00  0.00     0.117 C 
HETATM   13  O1  UNL     1     -11.925   6.001  23.571  1.00  0.00    -0.274 OA
ATOM     14  H1  UNL     1     -11.309   2.956  22.638  1.00  0.00     0.162 HD
ENDBRANCH   9  10
ENDBRANCH   8   9
ENDBRANCH   1   8
TORSDOF 3
ENDMDL
