MODEL 19
REMARK VINA RESULT: -5.570530502      2.411      4.681
REMARK  2 active torsions:
REMARK  status: ('A' for Active; 'I' for Inactive)
REMARK    1  A    between atoms: C4_4  and  C5_5 
REMARK    2  A    between atoms: C5_5  and  N1_6 
ROOT
HETATM    1  C5  UNL     1     -14.250   3.824  24.277  1.00  0.00     0.167 C 
ENDROOT
BRANCH   1   2
HETATM    2  C4  UNL     1     -13.056   4.679  24.111  1.00  0.00    -0.040 A 
HETATM    3  C3  UNL     1     -11.795   4.157  24.310  1.00  0.00     0.009 A 
HETATM    4  C2  UNL     1     -10.684   4.959  24.154  1.00  0.00     0.001 A 
HETATM    5  C1  UNL     1     -10.819   6.292  23.796  1.00  0.00     0.000 A 
HETATM    6  C10 UNL     1     -12.079   6.821  23.595  1.00  0.00     0.001 A 
HETATM    7  C9  UNL     1     -13.189   6.006  23.754  1.00  0.00     0.009 A 
ENDBRANCH   1   2
BRANCH   1   8
HETATM    8  N1  UNL     1     -14.919   3.535  23.045  1.00  0.00    -0.347 N 
HETATM    9  C6  UNL     1     -14.394   2.814  22.037  1.00  0.00     0.109 A 
HETATM   10  C7  UNL     1     -15.305   2.732  21.006  1.00  0.00     0.106 A 
HETATM   11  N2  UNL     1     -16.393   3.409  21.393  1.00  0.00    -0.361 N 
HETATM   12  C8  UNL     1     -16.147   3.886  22.616  1.00  0.00     0.182 A 
ATOM     13  H2  UNL     1     -17.250   3.537  20.854  1.00  0.00     0.166 HD
ENDBRANCH   1   8
TORSDOF 2
ENDMDL
