MODEL 20
REMARK VINA RESULT: -5.566015711      2.422      4.835
REMARK  2 active torsions:
REMARK  status: ('A' for Active; 'I' for Inactive)
REMARK    1  A    between atoms: C4_4  and  C5_5 
REMARK    2  A    between atoms: C5_5  and  N1_6 
ROOT
HETATM    1  C5  UNL     1     -14.254   3.823  24.270  1.00  0.00     0.167 C 
ENDROOT
BRANCH   1   2
HETATM    2  C4  UNL     1     -13.050   4.664  24.108  1.00  0.00    -0.040 A 
HETATM    3  C3  UNL     1     -13.173   5.990  23.747  1.00  0.00     0.009 A 
HETATM    4  C2  UNL     1     -12.045   6.770  23.597  1.00  0.00     0.001 A 
HETATM    5  C1  UNL     1     -10.783   6.237  23.807  1.00  0.00     0.000 A 
HETATM    6  C10 UNL     1     -10.653   4.911  24.169  1.00  0.00     0.001 A 
HETATM    7  C9  UNL     1     -11.792   4.135  24.317  1.00  0.00     0.009 A 
ENDBRANCH   1   2
BRANCH   1   8
HETATM    8  N1  UNL     1     -14.916   3.533  23.034  1.00  0.00    -0.347 N 
HETATM    9  C6  UNL     1     -14.380   2.820  22.026  1.00  0.00     0.109 A 
HETATM   10  C7  UNL     1     -15.286   2.733  20.991  1.00  0.00     0.106 A 
HETATM   11  N2  UNL     1     -16.382   3.400  21.375  1.00  0.00    -0.361 N 
HETATM   12  C8  UNL     1     -16.145   3.874  22.601  1.00  0.00     0.182 A 
ATOM     13  H2  UNL     1     -17.238   3.522  20.834  1.00  0.00     0.166 HD
ENDBRANCH   1   8
TORSDOF 2
ENDMDL
