MODEL 12
REMARK VINA RESULT: -5.788604927      1.424      2.454
REMARK  2 active torsions:
REMARK  status: ('A' for Active; 'I' for Inactive)
REMARK    1  A    between atoms: C4_4  and  C5_5 
REMARK    2  A    between atoms: C5_5  and  N1_6 
ROOT
HETATM    1  C5  UNL     1     -14.115   4.635  24.666  1.00  0.00     0.167 C 
ENDROOT
BRANCH   1   2
HETATM    2  C4  UNL     1     -14.550   4.069  23.372  1.00  0.00    -0.040 A 
HETATM    3  C3  UNL     1     -15.884   4.083  23.022  1.00  0.00     0.009 A 
HETATM    4  C2  UNL     1     -16.285   3.553  21.813  1.00  0.00     0.001 A 
HETATM    5  C1  UNL     1     -15.359   3.004  20.940  1.00  0.00     0.000 A 
HETATM    6  C10 UNL     1     -14.022   2.987  21.284  1.00  0.00     0.001 A 
HETATM    7  C9  UNL     1     -13.629   3.522  22.501  1.00  0.00     0.009 A 
ENDBRANCH   1   2
BRANCH   1   8
HETATM    8  N1  UNL     1     -14.311   6.050  24.762  1.00  0.00    -0.347 N 
HETATM    9  C6  UNL     1     -15.097   6.655  25.672  1.00  0.00     0.109 A 
HETATM   10  C7  UNL     1     -15.056   8.019  25.480  1.00  0.00     0.106 A 
HETATM   11  N2  UNL     1     -14.235   8.244  24.446  1.00  0.00    -0.361 N 
HETATM   12  C8  UNL     1     -13.797   7.054  24.026  1.00  0.00     0.182 A 
ATOM     13  H2  UNL     1     -13.991   9.153  24.053  1.00  0.00     0.166 HD
ENDBRANCH   1   8
TORSDOF 2
ENDMDL
