MODEL 14
REMARK VINA RESULT: -5.682545515      2.454      4.598
REMARK  2 active torsions:
REMARK  status: ('A' for Active; 'I' for Inactive)
REMARK    1  A    between atoms: C4_4  and  C5_5 
REMARK    2  A    between atoms: C5_5  and  N1_6 
ROOT
HETATM    1  C5  UNL     1     -13.963   3.525  23.524  1.00  0.00     0.167 C 
ENDROOT
BRANCH   1   2
HETATM    2  C4  UNL     1     -13.115   4.645  23.065  1.00  0.00    -0.040 A 
HETATM    3  C3  UNL     1     -13.065   5.819  23.787  1.00  0.00     0.009 A 
HETATM    4  C2  UNL     1     -12.272   6.862  23.355  1.00  0.00     0.001 A 
HETATM    5  C1  UNL     1     -11.519   6.744  22.197  1.00  0.00     0.000 A 
HETATM    6  C10 UNL     1     -11.564   5.571  21.469  1.00  0.00     0.001 A 
HETATM    7  C9  UNL     1     -12.364   4.530  21.912  1.00  0.00     0.009 A 
ENDBRANCH   1   2
BRANCH   1   8
HETATM    8  N1  UNL     1     -14.922   3.102  22.549  1.00  0.00    -0.347 N 
HETATM    9  C6  UNL     1     -16.075   3.742  22.278  1.00  0.00     0.109 A 
HETATM   10  C7  UNL     1     -16.756   3.065  21.290  1.00  0.00     0.106 A 
HETATM   11  N2  UNL     1     -16.009   2.004  20.958  1.00  0.00    -0.361 N 
HETATM   12  C8  UNL     1     -14.914   2.039  21.721  1.00  0.00     0.182 A 
ATOM     13  H2  UNL     1     -16.235   1.301  20.254  1.00  0.00     0.166 HD
ENDBRANCH   1   8
TORSDOF 2
ENDMDL
