MODEL 13
REMARK VINA RESULT: -5.690969282      2.428      4.478
REMARK  2 active torsions:
REMARK  status: ('A' for Active; 'I' for Inactive)
REMARK    1  A    between atoms: C4_4  and  C5_5 
REMARK    2  A    between atoms: C5_5  and  N1_6 
ROOT
HETATM    1  C5  UNL     1     -14.013   3.499  23.555  1.00  0.00     0.167 C 
ENDROOT
BRANCH   1   2
HETATM    2  C4  UNL     1     -13.176   4.641  23.131  1.00  0.00    -0.040 A 
HETATM    3  C3  UNL     1     -12.387   4.543  22.004  1.00  0.00     0.009 A 
HETATM    4  C2  UNL     1     -11.607   5.612  21.613  1.00  0.00     0.001 A 
HETATM    5  C1  UNL     1     -11.606   6.790  22.343  1.00  0.00     0.000 A 
HETATM    6  C10 UNL     1     -12.393   6.895  23.472  1.00  0.00     0.001 A 
HETATM    7  C9  UNL     1     -13.173   5.816  23.857  1.00  0.00     0.009 A 
ENDBRANCH   1   2
BRANCH   1   8
HETATM    8  N1  UNL     1     -14.957   3.087  22.560  1.00  0.00    -0.347 N 
HETATM    9  C6  UNL     1     -16.110   3.724  22.287  1.00  0.00     0.109 A 
HETATM   10  C7  UNL     1     -16.775   3.060  21.279  1.00  0.00     0.106 A 
HETATM   11  N2  UNL     1     -16.017   2.010  20.937  1.00  0.00    -0.361 N 
HETATM   12  C8  UNL     1     -14.931   2.039  21.714  1.00  0.00     0.182 A 
ATOM     13  H2  UNL     1     -16.229   1.319  20.218  1.00  0.00     0.166 HD
ENDBRANCH   1   8
TORSDOF 2
ENDMDL
