MODEL 11
REMARK VINA RESULT: -5.792082216      1.425      2.036
REMARK  2 active torsions:
REMARK  status: ('A' for Active; 'I' for Inactive)
REMARK    1  A    between atoms: C4_4  and  C5_5 
REMARK    2  A    between atoms: C5_5  and  N1_6 
ROOT
HETATM    1  C5  UNL     1     -14.112   4.637  24.661  1.00  0.00     0.167 C 
ENDROOT
BRANCH   1   2
HETATM    2  C4  UNL     1     -14.543   4.070  23.366  1.00  0.00    -0.040 A 
HETATM    3  C3  UNL     1     -13.615   3.532  22.500  1.00  0.00     0.009 A 
HETATM    4  C2  UNL     1     -14.023   3.004  21.292  1.00  0.00     0.001 A 
HETATM    5  C1  UNL     1     -15.363   3.007  20.936  1.00  0.00     0.000 A 
HETATM    6  C10 UNL     1     -16.298   3.544  21.799  1.00  0.00     0.001 A 
HETATM    7  C9  UNL     1     -15.878   4.072  23.010  1.00  0.00     0.009 A 
ENDBRANCH   1   2
BRANCH   1   8
HETATM    8  N1  UNL     1     -14.304   6.052  24.755  1.00  0.00    -0.347 N 
HETATM    9  C6  UNL     1     -15.095   6.660  25.659  1.00  0.00     0.109 A 
HETATM   10  C7  UNL     1     -15.049   8.024  25.466  1.00  0.00     0.106 A 
HETATM   11  N2  UNL     1     -14.223   8.246  24.436  1.00  0.00    -0.361 N 
HETATM   12  C8  UNL     1     -13.785   7.054  24.019  1.00  0.00     0.182 A 
ATOM     13  H2  UNL     1     -13.974   9.153  24.043  1.00  0.00     0.166 HD
ENDBRANCH   1   8
TORSDOF 2
ENDMDL
