MODEL 4
REMARK VINA RESULT: -7.871231744      1.766      2.369
REMARK  3 active torsions:
REMARK  status: ('A' for Active; 'I' for Inactive)
REMARK    1  A    between atoms: C5_9  and  N3_10 
REMARK    2  A    between atoms: N5_18  and  C10_19 
REMARK    3  A    between atoms: C10_19  and  C11_20 
ROOT
HETATM    1  C1  UNL     1      -4.661  21.283  -1.351  1.00  0.00     0.164 C 
HETATM    2  N1  UNL     1      -4.836  21.939  -0.070  1.00  0.00    -0.269 N 
HETATM    3  C2  UNL     1      -4.843  21.175   1.020  1.00  0.00     0.282 A 
HETATM    4  O1  UNL     1      -4.708  19.938   0.931  1.00  0.00    -0.265 OA
HETATM    5  C3  UNL     1      -5.008  21.785   2.263  1.00  0.00     0.165 A 
HETATM    6  C4  UNL     1      -5.161  23.164   2.332  1.00  0.00     0.160 A 
HETATM    7  N2  UNL     1      -5.308  23.485   3.620  1.00  0.00    -0.174 N 
ATOM      8  H2  UNL     1      -5.441  24.432   3.975  1.00  0.00     0.186 HD
HETATM    9  C5  UNL     1      -5.256  22.357   4.392  1.00  0.00     0.685 A 
HETATM   10  N5  UNL     1      -5.070  21.337   3.534  1.00  0.00    -0.170 N 
HETATM   11  N6  UNL     1      -5.147  23.894   1.208  1.00  0.00    -0.287 N 
HETATM   12  C17 UNL     1      -5.297  25.339   1.208  1.00  0.00     0.163 C 
HETATM   13  C18 UNL     1      -4.986  23.288   0.023  1.00  0.00     0.332 A 
HETATM   14  O2  UNL     1      -4.971  23.963  -1.034  1.00  0.00    -0.246 OA
ENDROOT
BRANCH   9  15
HETATM   15  N3  UNL     1      -5.405  22.409   5.799  1.00  0.00    -0.214 N 
HETATM   16  C6  UNL     1      -4.274  22.436   6.708  1.00  0.00     0.168 C 
HETATM   17  C7  UNL     1      -4.283  23.759   7.473  1.00  0.00     0.252 C 
HETATM   18  N4  UNL     1      -5.620  24.326   7.482  1.00  0.00    -0.072 N 
HETATM   19  C8  UNL     1      -6.554  23.265   7.728  1.00  0.00     0.252 C 
ATOM     20  H42 UNL     1      -5.716  25.097   8.143  1.00  0.00     0.277 HD
ATOM     21  H41 UNL     1      -5.832  24.847   6.631  1.00  0.00     0.277 HD
HETATM   22  C9  UNL     1      -6.719  22.461   6.449  1.00  0.00     0.168 C 
ENDBRANCH   9  15
BRANCH  10  23
HETATM   23  C10 UNL     1      -4.975  19.966   3.931  1.00  0.00     0.186 C 
BRANCH  23  24
HETATM   24  C11 UNL     1      -6.159  19.135   3.740  1.00  0.00    -0.039 A 
HETATM   25  C12 UNL     1      -6.115  17.906   3.078  1.00  0.00     0.009 A 
HETATM   26  C13 UNL     1      -7.204  17.105   2.897  1.00  0.00     0.001 A 
HETATM   27  C14 UNL     1      -8.433  17.483   3.374  1.00  0.00     0.000 A 
HETATM   28  C15 UNL     1      -8.515  18.702   4.040  1.00  0.00     0.001 A 
HETATM   29  C16 UNL     1      -7.385  19.514   4.217  1.00  0.00     0.009 A 
ENDBRANCH  23  24
ENDBRANCH  10  23
TORSDOF 3
ENDMDL
