MODEL 1
REMARK VINA RESULT: -8.792167489      0.000      0.000
REMARK  3 active torsions:
REMARK  status: ('A' for Active; 'I' for Inactive)
REMARK    1  A    between atoms: C5_9  and  N3_10 
REMARK    2  A    between atoms: N5_18  and  C10_19 
REMARK    3  A    between atoms: C10_19  and  C11_20 
ROOT
HETATM    1  C1  UNL     1      -5.929  21.399  -2.636  1.00  0.00     0.164 C 
HETATM    2  N1  UNL     1      -5.625  21.621  -1.236  1.00  0.00    -0.269 N 
HETATM    3  C2  UNL     1      -6.520  21.219  -0.337  1.00  0.00     0.282 A 
HETATM    4  O1  UNL     1      -7.584  20.676  -0.698  1.00  0.00    -0.265 OA
HETATM    5  C3  UNL     1      -6.248  21.421   1.015  1.00  0.00     0.165 A 
HETATM    6  C4  UNL     1      -5.058  22.033   1.387  1.00  0.00     0.160 A 
HETATM    7  N2  UNL     1      -5.049  22.112   2.721  1.00  0.00    -0.174 N 
ATOM      8  H2  UNL     1      -4.297  22.517   3.278  1.00  0.00     0.186 HD
HETATM    9  C5  UNL     1      -6.198  21.570   3.228  1.00  0.00     0.685 A 
HETATM   10  N5  UNL     1      -6.908  21.157   2.162  1.00  0.00    -0.170 N 
HETATM   11  N6  UNL     1      -4.184  22.421   0.447  1.00  0.00    -0.287 N 
HETATM   12  C17 UNL     1      -2.919  23.061   0.767  1.00  0.00     0.163 C 
HETATM   13  C18 UNL     1      -4.465  22.216  -0.847  1.00  0.00     0.332 A 
HETATM   14  O2  UNL     1      -3.654  22.576  -1.733  1.00  0.00    -0.246 OA
ENDROOT
BRANCH   9  15
HETATM   15  N3  UNL     1      -6.459  21.542   4.619  1.00  0.00    -0.214 N 
HETATM   16  C6  UNL     1      -6.502  20.310   5.386  1.00  0.00     0.168 C 
HETATM   17  C7  UNL     1      -5.377  20.329   6.419  1.00  0.00     0.252 C 
HETATM   18  N4  UNL     1      -4.971  21.696   6.696  1.00  0.00    -0.072 N 
HETATM   19  C8  UNL     1      -6.154  22.501   6.801  1.00  0.00     0.252 C 
ATOM     20  H42 UNL     1      -4.370  21.769   7.518  1.00  0.00     0.277 HD
ATOM     21  H41 UNL     1      -4.309  22.057   6.010  1.00  0.00     0.277 HD
HETATM   22  C9  UNL     1      -6.685  22.763   5.402  1.00  0.00     0.168 C 
ENDBRANCH   9  15
BRANCH  10  23
HETATM   23  C10 UNL     1      -8.195  20.540   2.249  1.00  0.00     0.186 C 
BRANCH  23  24
HETATM   24  C11 UNL     1      -8.233  19.129   2.618  1.00  0.00    -0.039 A 
HETATM   25  C12 UNL     1      -9.362  18.530   3.182  1.00  0.00     0.009 A 
HETATM   26  C13 UNL     1      -9.427  17.212   3.524  1.00  0.00     0.001 A 
HETATM   27  C14 UNL     1      -8.350  16.386   3.322  1.00  0.00     0.000 A 
HETATM   28  C15 UNL     1      -7.207  16.948   2.761  1.00  0.00     0.001 A 
HETATM   29  C16 UNL     1      -7.157  18.306   2.415  1.00  0.00     0.009 A 
ENDBRANCH  23  24
ENDBRANCH  10  23
TORSDOF 3
ENDMDL
