MODEL 5
REMARK VINA RESULT: -7.807724419      3.088      6.493
REMARK  3 active torsions:
REMARK  status: ('A' for Active; 'I' for Inactive)
REMARK    1  A    between atoms: C5_9  and  N3_10 
REMARK    2  A    between atoms: N5_18  and  C10_19 
REMARK    3  A    between atoms: C10_19  and  C11_20 
ROOT
HETATM    1  C1  UNL     1      -1.992  24.597   6.828  1.00  0.00     0.164 C 
HETATM    2  N1  UNL     1      -3.275  23.936   6.694  1.00  0.00    -0.269 N 
HETATM    3  C2  UNL     1      -3.469  23.173   5.621  1.00  0.00     0.282 A 
HETATM    4  O1  UNL     1      -2.572  23.042   4.763  1.00  0.00    -0.265 OA
HETATM    5  C3  UNL     1      -4.695  22.526   5.472  1.00  0.00     0.165 A 
HETATM    6  C4  UNL     1      -5.677  22.695   6.441  1.00  0.00     0.160 A 
HETATM    7  N2  UNL     1      -6.741  21.984   6.058  1.00  0.00    -0.174 N 
ATOM      8  H2  UNL     1      -7.617  21.919   6.576  1.00  0.00     0.186 HD
HETATM    9  C5  UNL     1      -6.483  21.359   4.870  1.00  0.00     0.685 A 
HETATM   10  N5  UNL     1      -5.225  21.709   4.540  1.00  0.00    -0.170 N 
HETATM   11  N6  UNL     1      -5.437  23.472   7.507  1.00  0.00    -0.287 N 
HETATM   12  C17 UNL     1      -6.416  23.688   8.558  1.00  0.00     0.163 C 
HETATM   13  C18 UNL     1      -4.250  24.084   7.630  1.00  0.00     0.332 A 
HETATM   14  O2  UNL     1      -4.018  24.813   8.623  1.00  0.00    -0.246 OA
ENDROOT
BRANCH   9  15
HETATM   15  N3  UNL     1      -7.451  20.553   4.224  1.00  0.00    -0.214 N 
HETATM   16  C6  UNL     1      -8.265  21.033   3.122  1.00  0.00     0.168 C 
HETATM   17  C7  UNL     1      -7.936  20.220   1.871  1.00  0.00     0.252 C 
HETATM   18  N4  UNL     1      -7.364  18.937   2.241  1.00  0.00    -0.072 N 
HETATM   19  C8  UNL     1      -8.113  18.416   3.348  1.00  0.00     0.252 C 
ATOM     20  H42 UNL     1      -7.316  18.287   1.456  1.00  0.00     0.277 HD
ATOM     21  H41 UNL     1      -6.364  18.993   2.434  1.00  0.00     0.277 HD
HETATM   22  C9  UNL     1      -7.693  19.157   4.606  1.00  0.00     0.168 C 
ENDBRANCH   9  15
BRANCH  10  23
HETATM   23  C10 UNL     1      -4.563  21.280   3.347  1.00  0.00     0.186 C 
BRANCH  23  24
HETATM   24  C11 UNL     1      -4.773  22.081   2.146  1.00  0.00    -0.039 A 
HETATM   25  C12 UNL     1      -4.992  23.460   2.191  1.00  0.00     0.009 A 
HETATM   26  C13 UNL     1      -5.178  24.233   1.083  1.00  0.00     0.001 A 
HETATM   27  C14 UNL     1      -5.157  23.672  -0.169  1.00  0.00     0.000 A 
HETATM   28  C15 UNL     1      -4.941  22.299  -0.253  1.00  0.00     0.001 A 
HETATM   29  C16 UNL     1      -4.752  21.519   0.897  1.00  0.00     0.009 A 
ENDBRANCH  23  24
ENDBRANCH  10  23
TORSDOF 3
ENDMDL
