MODEL 3
REMARK VINA RESULT: -8.030803139      1.156      1.732
REMARK  3 active torsions:
REMARK  status: ('A' for Active; 'I' for Inactive)
REMARK    1  A    between atoms: C5_9  and  N3_10 
REMARK    2  A    between atoms: N5_18  and  C10_19 
REMARK    3  A    between atoms: C10_19  and  C11_20 
ROOT
HETATM    1  C1  UNL     1      -5.888  21.333  -2.916  1.00  0.00     0.164 C 
HETATM    2  N1  UNL     1      -5.244  21.369  -1.618  1.00  0.00    -0.269 N 
HETATM    3  C2  UNL     1      -6.012  21.217  -0.542  1.00  0.00     0.282 A 
HETATM    4  O1  UNL     1      -7.244  21.054  -0.657  1.00  0.00    -0.265 OA
HETATM    5  C3  UNL     1      -5.413  21.246   0.717  1.00  0.00     0.165 A 
HETATM    6  C4  UNL     1      -4.040  21.434   0.815  1.00  0.00     0.160 A 
HETATM    7  N2  UNL     1      -3.729  21.431   2.114  1.00  0.00    -0.174 N 
ATOM      8  H2  UNL     1      -2.788  21.548   2.490  1.00  0.00     0.186 HD
HETATM    9  C5  UNL     1      -4.858  21.247   2.865  1.00  0.00     0.685 A 
HETATM   10  N5  UNL     1      -5.868  21.136   1.982  1.00  0.00    -0.170 N 
HETATM   11  N6  UNL     1      -3.306  21.582  -0.297  1.00  0.00    -0.287 N 
HETATM   12  C17 UNL     1      -1.866  21.777  -0.267  1.00  0.00     0.163 C 
HETATM   13  C18 UNL     1      -3.901  21.550  -1.497  1.00  0.00     0.332 A 
HETATM   14  O2  UNL     1      -3.222  21.688  -2.542  1.00  0.00    -0.246 OA
ENDROOT
BRANCH   9  15
HETATM   15  N3  UNL     1      -4.817  21.222   4.279  1.00  0.00    -0.214 N 
HETATM   16  C6  UNL     1      -4.459  22.382   5.075  1.00  0.00     0.168 C 
HETATM   17  C7  UNL     1      -5.661  22.791   5.926  1.00  0.00     0.252 C 
HETATM   18  N4  UNL     1      -6.559  21.663   6.102  1.00  0.00    -0.072 N 
HETATM   19  C8  UNL     1      -5.765  20.496   6.364  1.00  0.00     0.252 C 
ATOM     20  H42 UNL     1      -7.264  21.829   6.821  1.00  0.00     0.277 HD
ATOM     21  H41 UNL     1      -7.194  21.538   5.314  1.00  0.00     0.277 HD
HETATM   22  C9  UNL     1      -5.156  20.023   5.055  1.00  0.00     0.168 C 
ENDBRANCH   9  15
BRANCH  10  23
HETATM   23  C10 UNL     1      -7.236  20.949   2.353  1.00  0.00     0.186 C 
BRANCH  23  24
HETATM   24  C11 UNL     1      -7.668  19.583   2.631  1.00  0.00    -0.039 A 
HETATM   25  C12 UNL     1      -6.813  18.485   2.511  1.00  0.00     0.009 A 
HETATM   26  C13 UNL     1      -7.188  17.201   2.777  1.00  0.00     0.001 A 
HETATM   27  C14 UNL     1      -8.466  16.921   3.190  1.00  0.00     0.000 A 
HETATM   28  C15 UNL     1      -9.346  17.991   3.322  1.00  0.00     0.001 A 
HETATM   29  C16 UNL     1      -8.944  19.305   3.044  1.00  0.00     0.009 A 
ENDBRANCH  23  24
ENDBRANCH  10  23
TORSDOF 3
ENDMDL
