MODEL 2
REMARK VINA RESULT: -8.652062746      2.747      5.519
REMARK  3 active torsions:
REMARK  status: ('A' for Active; 'I' for Inactive)
REMARK    1  A    between atoms: C5_9  and  N3_10 
REMARK    2  A    between atoms: N5_18  and  C10_19 
REMARK    3  A    between atoms: C10_19  and  C11_20 
ROOT
HETATM    1  C1  UNL     1      -5.609  23.281   7.863  1.00  0.00     0.164 C 
HETATM    2  N1  UNL     1      -5.603  23.312   6.414  1.00  0.00    -0.269 N 
HETATM    3  C2  UNL     1      -5.494  22.152   5.771  1.00  0.00     0.282 A 
HETATM    4  O1  UNL     1      -5.397  21.081   6.403  1.00  0.00    -0.265 OA
HETATM    5  C3  UNL     1      -5.488  22.158   4.376  1.00  0.00     0.165 A 
HETATM    6  C4  UNL     1      -5.592  23.367   3.699  1.00  0.00     0.160 A 
HETATM    7  N2  UNL     1      -5.553  23.096   2.392  1.00  0.00    -0.174 N 
ATOM      8  H2  UNL     1      -5.609  23.793   1.649  1.00  0.00     0.186 HD
HETATM    9  C5  UNL     1      -5.425  21.748   2.197  1.00  0.00     0.685 A 
HETATM   10  N5  UNL     1      -5.389  21.204   3.428  1.00  0.00    -0.170 N 
HETATM   11  N6  UNL     1      -5.701  24.511   4.389  1.00  0.00    -0.287 N 
HETATM   12  C17 UNL     1      -5.819  25.809   3.744  1.00  0.00     0.163 C 
HETATM   13  C18 UNL     1      -5.706  24.483   5.729  1.00  0.00     0.332 A 
HETATM   14  O2  UNL     1      -5.807  25.548   6.382  1.00  0.00    -0.246 OA
ENDROOT
BRANCH   9  15
HETATM   15  N3  UNL     1      -5.337  21.187   0.901  1.00  0.00    -0.214 N 
HETATM   16  C6  UNL     1      -6.501  20.958   0.064  1.00  0.00     0.168 C 
HETATM   17  C7  UNL     1      -6.391  21.827  -1.188  1.00  0.00     0.252 C 
HETATM   18  N4  UNL     1      -5.004  22.181  -1.434  1.00  0.00    -0.072 N 
HETATM   19  C8  UNL     1      -4.197  21.016  -1.208  1.00  0.00     0.252 C 
ATOM     20  H42 UNL     1      -4.859  22.587  -2.359  1.00  0.00     0.277 HD
ATOM     21  H41 UNL     1      -4.698  22.984  -0.884  1.00  0.00     0.277 HD
HETATM   22  C9  UNL     1      -4.056  20.811   0.291  1.00  0.00     0.168 C 
ENDBRANCH   9  15
BRANCH  10  23
HETATM   23  C10 UNL     1      -5.246  19.804   3.679  1.00  0.00     0.186 C 
BRANCH  23  24
HETATM   24  C11 UNL     1      -6.439  18.977   3.535  1.00  0.00    -0.039 A 
HETATM   25  C12 UNL     1      -6.421  17.735   2.895  1.00  0.00     0.009 A 
HETATM   26  C13 UNL     1      -7.519  16.938   2.760  1.00  0.00     0.001 A 
HETATM   27  C14 UNL     1      -8.732  17.333   3.262  1.00  0.00     0.000 A 
HETATM   28  C15 UNL     1      -8.789  18.565   3.907  1.00  0.00     0.001 A 
HETATM   29  C16 UNL     1      -7.650  19.373   4.038  1.00  0.00     0.009 A 
ENDBRANCH  23  24
ENDBRANCH  10  23
TORSDOF 3
ENDMDL
