MODEL 6
REMARK VINA RESULT: -7.721469478      2.874      6.802
REMARK  3 active torsions:
REMARK  status: ('A' for Active; 'I' for Inactive)
REMARK    1  A    between atoms: C5_9  and  N3_10 
REMARK    2  A    between atoms: N5_18  and  C10_19 
REMARK    3  A    between atoms: C10_19  and  C11_20 
ROOT
HETATM    1  C1  UNL     1      -7.678  21.720   4.075  1.00  0.00     0.164 C 
HETATM    2  N1  UNL     1      -6.578  21.081   3.381  1.00  0.00    -0.269 N 
HETATM    3  C2  UNL     1      -5.940  21.786   2.450  1.00  0.00     0.282 A 
HETATM    4  O1  UNL     1      -6.288  22.956   2.188  1.00  0.00    -0.265 OA
HETATM    5  C3  UNL     1      -4.877  21.192   1.770  1.00  0.00     0.165 A 
HETATM    6  C4  UNL     1      -4.515  19.887   2.079  1.00  0.00     0.160 A 
HETATM    7  N2  UNL     1      -3.490  19.559   1.289  1.00  0.00    -0.174 N 
ATOM      8  H2  UNL     1      -3.013  18.657   1.293  1.00  0.00     0.186 HD
HETATM    9  C5  UNL     1      -3.173  20.612   0.475  1.00  0.00     0.685 A 
HETATM   10  N5  UNL     1      -4.037  21.593   0.794  1.00  0.00    -0.170 N 
HETATM   11  N6  UNL     1      -5.186  19.214   3.025  1.00  0.00    -0.287 N 
HETATM   12  C17 UNL     1      -4.857  17.849   3.401  1.00  0.00     0.163 C 
HETATM   13  C18 UNL     1      -6.204  19.805   3.667  1.00  0.00     0.332 A 
HETATM   14  O2  UNL     1      -6.837  19.183   4.553  1.00  0.00    -0.246 OA
ENDROOT
BRANCH   9  15
HETATM   15  N3  UNL     1      -2.131  20.529  -0.480  1.00  0.00    -0.214 N 
HETATM   16  C6  UNL     1      -0.746  20.821  -0.159  1.00  0.00     0.168 C 
HETATM   17  C7  UNL     1       0.085  19.552  -0.342  1.00  0.00     0.252 C 
HETATM   18  N4  UNL     1      -0.588  18.637  -1.248  1.00  0.00    -0.072 N 
HETATM   19  C8  UNL     1      -1.116  19.400  -2.343  1.00  0.00     0.252 C 
ATOM     20  H42 UNL     1       0.015  17.873  -1.555  1.00  0.00     0.277 HD
ATOM     21  H41 UNL     1      -1.298  18.072  -0.783  1.00  0.00     0.277 HD
HETATM   22  C9  UNL     1      -2.368  20.119  -1.869  1.00  0.00     0.168 C 
ENDBRANCH   9  15
BRANCH  10  23
HETATM   23  C10 UNL     1      -4.062  22.874   0.160  1.00  0.00     0.186 C 
BRANCH  23  24
HETATM   24  C11 UNL     1      -4.702  22.956  -1.148  1.00  0.00    -0.039 A 
HETATM   25  C12 UNL     1      -5.651  22.026  -1.580  1.00  0.00     0.009 A 
HETATM   26  C13 UNL     1      -6.273  22.087  -2.792  1.00  0.00     0.001 A 
HETATM   27  C14 UNL     1      -5.986  23.100  -3.672  1.00  0.00     0.000 A 
HETATM   28  C15 UNL     1      -5.044  24.045  -3.276  1.00  0.00     0.001 A 
HETATM   29  C16 UNL     1      -4.414  23.967  -2.025  1.00  0.00     0.009 A 
ENDBRANCH  23  24
ENDBRANCH  10  23
TORSDOF 3
ENDMDL
