MODEL 7
REMARK VINA RESULT: -6.126724646      1.469      1.760
REMARK  4 active torsions:
REMARK  status: ('A' for Active; 'I' for Inactive)
REMARK    1  A    between atoms: N1_1  and  C1_5 
REMARK    2  A    between atoms: C1_5  and  C2_6 
REMARK    3  A    between atoms: C1_5  and  C7_17 
REMARK    4  A    between atoms: C2_6  and  N2_7 
ROOT
HETATM    1  N2  UNL     1      21.479  61.654  28.234  1.00  0.00    -0.304 N 
HETATM    2  C3  UNL     1      21.908  61.906  29.488  1.00  0.00     0.143 A 
HETATM    3  C4  UNL     1      23.056  61.373  30.005  1.00  0.00     0.199 A 
HETATM    4  F1  UNL     1      23.397  61.693  31.282  1.00  0.00    -0.199 F 
HETATM    5  C5  UNL     1      23.807  60.544  29.214  1.00  0.00     0.289 A 
HETATM    6  O1  UNL     1      24.874  60.045  29.683  1.00  0.00    -0.265 OA
HETATM    7  N3  UNL     1      23.383  60.291  27.964  1.00  0.00    -0.273 N 
ATOM      8  H3  UNL     1      23.932  59.675  27.364  1.00  0.00     0.173 HD
HETATM    9  C6  UNL     1      22.230  60.841  27.480  1.00  0.00     0.329 A 
HETATM   10  O2  UNL     1      21.933  60.538  26.304  1.00  0.00    -0.246 OA
ENDROOT
BRANCH   1  11
HETATM   11  C2  UNL     1      20.282  62.224  27.749  1.00  0.00     0.177 C 
BRANCH  11  12
HETATM   12  C1  UNL     1      19.029  61.897  28.504  1.00  0.00     0.301 C 
BRANCH  12  13
HETATM   13  N1  UNL     1      18.589  60.567  28.138  1.00  0.00    -0.064 N 
ATOM     14  H13 UNL     1      19.058  60.221  27.300  1.00  0.00     0.275 HD
ATOM     15  H12 UNL     1      18.920  59.856  28.790  1.00  0.00     0.275 HD
ATOM     16  H11 UNL     1      17.574  60.565  28.044  1.00  0.00     0.275 HD
ENDBRANCH  12  13
BRANCH  12  17
HETATM   17  C7  UNL     1      17.958  62.851  28.153  1.00  0.00     0.206 C 
HETATM   18  O3  UNL     1      17.051  62.595  27.320  1.00  0.00    -0.646 OA
HETATM   19  O4  UNL     1      17.946  64.090  28.768  1.00  0.00    -0.646 OA
ENDBRANCH  12  17
ENDBRANCH  11  12
ENDBRANCH   1  11
TORSDOF 4
ENDMDL
