MODEL 5
REMARK VINA RESULT: -6.623386004      1.832      5.275
REMARK  4 active torsions:
REMARK  status: ('A' for Active; 'I' for Inactive)
REMARK    1  A    between atoms: N1_1  and  C1_5 
REMARK    2  A    between atoms: C1_5  and  C2_6 
REMARK    3  A    between atoms: C1_5  and  C7_17 
REMARK    4  A    between atoms: C2_6  and  N2_7 
ROOT
HETATM    1  N2  UNL     1      21.231  61.533  28.417  1.00  0.00    -0.304 N 
HETATM    2  C3  UNL     1      20.945  62.145  29.586  1.00  0.00     0.143 A 
HETATM    3  C4  UNL     1      19.859  62.959  29.755  1.00  0.00     0.199 A 
HETATM    4  F1  UNL     1      19.664  63.527  30.975  1.00  0.00    -0.199 F 
HETATM    5  C5  UNL     1      19.022  63.164  28.690  1.00  0.00     0.289 A 
HETATM    6  O1  UNL     1      18.012  63.917  28.836  1.00  0.00    -0.265 OA
HETATM    7  N3  UNL     1      19.304  62.556  27.525  1.00  0.00    -0.273 N 
ATOM      8  H3  UNL     1      18.689  62.699  26.724  1.00  0.00     0.173 HD
HETATM    9  C6  UNL     1      20.398  61.748  27.392  1.00  0.00     0.329 A 
HETATM   10  O2  UNL     1      20.562  61.233  26.264  1.00  0.00    -0.246 OA
ENDROOT
BRANCH   1  11
HETATM   11  C2  UNL     1      22.369  60.707  28.292  1.00  0.00     0.177 C 
BRANCH  11  12
HETATM   12  C1  UNL     1      23.688  61.401  28.139  1.00  0.00     0.301 C 
BRANCH  12  13
HETATM   13  N1  UNL     1      24.415  60.797  27.042  1.00  0.00    -0.064 N 
ATOM     14  H13 UNL     1      24.659  59.824  27.227  1.00  0.00     0.275 HD
ATOM     15  H12 UNL     1      23.826  60.644  26.224  1.00  0.00     0.275 HD
ATOM     16  H11 UNL     1      25.233  61.369  26.829  1.00  0.00     0.275 HD
ENDBRANCH  12  13
BRANCH  12  17
HETATM   17  C7  UNL     1      24.492  61.245  29.368  1.00  0.00     0.206 C 
HETATM   18  O3  UNL     1      24.848  62.214  30.087  1.00  0.00    -0.646 OA
HETATM   19  O4  UNL     1      24.876  59.973  29.752  1.00  0.00    -0.646 OA
ENDBRANCH  12  17
ENDBRANCH  11  12
ENDBRANCH   1  11
TORSDOF 4
ENDMDL
