MODEL 6
REMARK VINA RESULT: -6.241682618      1.827      5.342
REMARK  4 active torsions:
REMARK  status: ('A' for Active; 'I' for Inactive)
REMARK    1  A    between atoms: N1_1  and  C1_5 
REMARK    2  A    between atoms: C1_5  and  C2_6 
REMARK    3  A    between atoms: C1_5  and  C7_17 
REMARK    4  A    between atoms: C2_6  and  N2_7 
ROOT
HETATM    1  N2  UNL     1      21.347  61.715  28.402  1.00  0.00    -0.304 N 
HETATM    2  C3  UNL     1      21.020  62.307  29.570  1.00  0.00     0.143 A 
HETATM    3  C4  UNL     1      19.851  62.991  29.757  1.00  0.00     0.199 A 
HETATM    4  F1  UNL     1      19.620  63.551  30.975  1.00  0.00    -0.199 F 
HETATM    5  C5  UNL     1      18.969  63.080  28.713  1.00  0.00     0.289 A 
HETATM    6  O1  UNL     1      17.881  63.711  28.876  1.00  0.00    -0.265 OA
HETATM    7  N3  UNL     1      19.292  62.490  27.548  1.00  0.00    -0.273 N 
ATOM      8  H3  UNL     1      18.644  62.548  26.762  1.00  0.00     0.173 HD
HETATM    9  C6  UNL     1      20.469  61.815  27.396  1.00  0.00     0.329 A 
HETATM   10  O2  UNL     1      20.664  61.305  26.271  1.00  0.00    -0.246 OA
ENDROOT
BRANCH   1  11
HETATM   11  C2  UNL     1      22.571  61.026  28.257  1.00  0.00     0.177 C 
BRANCH  11  12
HETATM   12  C1  UNL     1      23.453  60.964  29.467  1.00  0.00     0.301 C 
BRANCH  12  13
HETATM   13  N1  UNL     1      23.947  62.293  29.761  1.00  0.00    -0.064 N 
ATOM     14  H13 UNL     1      24.469  62.693  28.982  1.00  0.00     0.275 HD
ATOM     15  H12 UNL     1      23.198  62.984  29.802  1.00  0.00     0.275 HD
ATOM     16  H11 UNL     1      24.494  62.262  30.622  1.00  0.00     0.275 HD
ENDBRANCH  12  13
BRANCH  12  17
HETATM   17  C7  UNL     1      24.612  60.086  29.208  1.00  0.00     0.206 C 
HETATM   18  O3  UNL     1      25.358  59.643  30.118  1.00  0.00    -0.646 OA
HETATM   19  O4  UNL     1      24.896  59.731  27.902  1.00  0.00    -0.646 OA
ENDBRANCH  12  17
ENDBRANCH  11  12
ENDBRANCH   1  11
TORSDOF 4
ENDMDL
