MODEL 9
REMARK VINA RESULT: -6.035730000      0.952      1.406
REMARK  4 active torsions:
REMARK  status: ('A' for Active; 'I' for Inactive)
REMARK    1  A    between atoms: N1_1  and  C1_5 
REMARK    2  A    between atoms: C1_5  and  C2_6 
REMARK    3  A    between atoms: C1_5  and  C7_17 
REMARK    4  A    between atoms: C2_6  and  N2_7 
ROOT
HETATM    1  N2  UNL     1      20.786  62.278  28.794  1.00  0.00    -0.304 N 
HETATM    2  C3  UNL     1      21.517  61.942  29.878  1.00  0.00     0.143 A 
HETATM    3  C4  UNL     1      22.703  61.266  29.796  1.00  0.00     0.199 A 
HETATM    4  F1  UNL     1      23.361  60.977  30.951  1.00  0.00    -0.199 F 
HETATM    5  C5  UNL     1      23.171  60.912  28.559  1.00  0.00     0.289 A 
HETATM    6  O1  UNL     1      24.271  60.285  28.471  1.00  0.00    -0.265 OA
HETATM    7  N3  UNL     1      22.445  61.245  27.477  1.00  0.00    -0.273 N 
ATOM      8  H3  UNL     1      22.782  60.988  26.549  1.00  0.00     0.173 HD
HETATM    9  C6  UNL     1      21.264  61.922  27.596  1.00  0.00     0.329 A 
HETATM   10  O2  UNL     1      20.674  62.180  26.525  1.00  0.00    -0.246 OA
ENDROOT
BRANCH   1  11
HETATM   11  C2  UNL     1      19.563  62.971  28.932  1.00  0.00     0.177 C 
BRANCH  11  12
HETATM   12  C1  UNL     1      18.312  62.162  28.774  1.00  0.00     0.301 C 
BRANCH  12  13
HETATM   13  N1  UNL     1      18.606  60.984  27.985  1.00  0.00    -0.064 N 
ATOM     14  H13 UNL     1      19.113  60.278  28.518  1.00  0.00     0.275 HD
ATOM     15  H12 UNL     1      17.770  60.436  27.781  1.00  0.00     0.275 HD
ATOM     16  H11 UNL     1      19.102  61.265  27.140  1.00  0.00     0.275 HD
ENDBRANCH  12  13
BRANCH  12  17
HETATM   17  C7  UNL     1      17.282  62.948  28.066  1.00  0.00     0.206 C 
HETATM   18  O3  UNL     1      16.810  62.619  26.948  1.00  0.00    -0.646 OA
HETATM   19  O4  UNL     1      16.808  64.106  28.658  1.00  0.00    -0.646 OA
ENDBRANCH  12  17
ENDBRANCH  11  12
ENDBRANCH   1  11
TORSDOF 4
ENDMDL
