MODEL 10
REMARK VINA RESULT: -5.684932723      2.469      5.715
REMARK  4 active torsions:
REMARK  status: ('A' for Active; 'I' for Inactive)
REMARK    1  A    between atoms: N1_1  and  C1_5 
REMARK    2  A    between atoms: C1_5  and  C2_6 
REMARK    3  A    between atoms: C1_5  and  C7_17 
REMARK    4  A    between atoms: C2_6  and  N2_7 
ROOT
HETATM    1  N2  UNL     1      22.082  61.711  29.121  1.00  0.00    -0.304 N 
HETATM    2  C3  UNL     1      21.747  61.555  27.823  1.00  0.00     0.143 A 
HETATM    3  C4  UNL     1      20.485  61.777  27.347  1.00  0.00     0.199 A 
HETATM    4  F1  UNL     1      20.254  61.589  26.021  1.00  0.00    -0.199 F 
HETATM    5  C5  UNL     1      19.514  62.176  28.228  1.00  0.00     0.289 A 
HETATM    6  O1  UNL     1      18.339  62.386  27.797  1.00  0.00    -0.265 OA
HETATM    7  N3  UNL     1      19.845  62.333  29.521  1.00  0.00    -0.273 N 
ATOM      8  H3  UNL     1      19.132  62.631  30.188  1.00  0.00     0.173 HD
HETATM    9  C6  UNL     1      21.117  62.103  29.962  1.00  0.00     0.329 A 
HETATM   10  O2  UNL     1      21.312  62.281  31.184  1.00  0.00    -0.246 OA
ENDROOT
BRANCH   1  11
HETATM   11  C2  UNL     1      23.400  61.462  29.563  1.00  0.00     0.177 C 
BRANCH  11  12
HETATM   12  C1  UNL     1      24.030  60.181  29.108  1.00  0.00     0.301 C 
BRANCH  12  13
HETATM   13  N1  UNL     1      25.126  59.852  29.995  1.00  0.00    -0.064 N 
ATOM     14  H13 UNL     1      25.951  60.427  29.823  1.00  0.00     0.275 HD
ATOM     15  H12 UNL     1      24.948  60.142  30.957  1.00  0.00     0.275 HD
ATOM     16  H11 UNL     1      25.326  58.854  29.922  1.00  0.00     0.275 HD
ENDBRANCH  12  13
BRANCH  12  17
HETATM   17  C7  UNL     1      24.571  60.335  27.743  1.00  0.00     0.206 C 
HETATM   18  O3  UNL     1      25.115  59.397  27.106  1.00  0.00    -0.646 OA
HETATM   19  O4  UNL     1      24.476  61.570  27.127  1.00  0.00    -0.646 OA
ENDBRANCH  12  17
ENDBRANCH  11  12
ENDBRANCH   1  11
TORSDOF 4
ENDMDL
