MODEL 1
REMARK VINA RESULT: -8.896544753      0.000      0.000
REMARK  4 active torsions:
REMARK  status: ('A' for Active; 'I' for Inactive)
REMARK    1  A    between atoms: N1_1  and  C1_5 
REMARK    2  A    between atoms: C1_5  and  C2_6 
REMARK    3  A    between atoms: C1_5  and  C7_17 
REMARK    4  A    between atoms: C2_6  and  N2_7 
ROOT
HETATM    1  N2  UNL     1      20.575  61.860  28.776  1.00  0.00    -0.304 N 
HETATM    2  C3  UNL     1      21.354  61.853  29.878  1.00  0.00     0.143 A 
HETATM    3  C4  UNL     1      22.705  61.648  29.834  1.00  0.00     0.199 A 
HETATM    4  F1  UNL     1      23.397  61.661  31.004  1.00  0.00    -0.199 F 
HETATM    5  C5  UNL     1      23.297  61.438  28.616  1.00  0.00     0.289 A 
HETATM    6  O1  UNL     1      24.549  61.247  28.564  1.00  0.00    -0.265 OA
HETATM    7  N3  UNL     1      22.523  61.445  27.517  1.00  0.00    -0.273 N 
ATOM      8  H3  UNL     1      22.950  61.290  26.603  1.00  0.00     0.173 HD
HETATM    9  C6  UNL     1      21.176  61.654  27.597  1.00  0.00     0.329 A 
HETATM   10  O2  UNL     1      20.555  61.640  26.512  1.00  0.00    -0.246 OA
ENDROOT
BRANCH   1  11
HETATM   11  C2  UNL     1      19.182  62.070  28.875  1.00  0.00     0.177 C 
BRANCH  11  12
HETATM   12  C1  UNL     1      18.671  63.404  28.424  1.00  0.00     0.301 C 
BRANCH  12  13
HETATM   13  N1  UNL     1      18.866  64.370  29.485  1.00  0.00    -0.064 N 
ATOM     14  H13 UNL     1      19.638  65.008  29.291  1.00  0.00     0.275 HD
ATOM     15  H12 UNL     1      18.116  65.060  29.524  1.00  0.00     0.275 HD
ATOM     16  H11 UNL     1      18.985  63.875  30.369  1.00  0.00     0.275 HD
ENDBRANCH  12  13
BRANCH  12  17
HETATM   17  C7  UNL     1      17.226  63.325  28.131  1.00  0.00     0.206 C 
HETATM   18  O3  UNL     1      16.354  63.954  28.783  1.00  0.00    -0.646 OA
HETATM   19  O4  UNL     1      16.804  62.520  27.088  1.00  0.00    -0.646 OA
ENDBRANCH  12  17
ENDBRANCH  11  12
ENDBRANCH   1  11
TORSDOF 4
ENDMDL
