MODEL 3
REMARK VINA RESULT: -9.628148221      1.080      1.562
REMARK  14 active torsions:
REMARK  status: ('A' for Active; 'I' for Inactive)
REMARK    1  A    between atoms: N1_5  and  C4_6 
REMARK    2  A    between atoms: C5_8  and  C6_9 
REMARK    3  A    between atoms: C6_9  and  O3_10 
REMARK    4  A    between atoms: O3_10  and  P1_11 
REMARK    5  A    between atoms: P1_11  and  O6_14 
REMARK    6  A    between atoms: O6_14  and  P2_15 
REMARK    7  A    between atoms: P2_15  and  O9_18 
REMARK    8  A    between atoms: O9_18  and  C7_19 
REMARK    9  A    between atoms: C8_21  and  C9_22 
REMARK   10  A    between atoms: C9_22  and  O11_23 
REMARK   11  A    between atoms: C10_25  and  O12_26 
REMARK   12  A    between atoms: C11_28  and  O13_29 
REMARK   13  A    between atoms: C13_33  and  O14_34 
REMARK   14  A    between atoms: C14_36  and  O15_37 
ROOT
HETATM    1  P1  UNL     1       5.832  19.153  11.400  1.00  0.00     0.417 P 
HETATM    2  O4  UNL     1       6.708  17.894  10.698  1.00  0.00    -0.624 OA
HETATM    3  O5  UNL     1       7.176  19.903  11.555  1.00  0.00    -0.624 OA
ENDROOT
BRANCH   1   4
HETATM    4  O3  UNL     1       5.495  19.117  12.989  1.00  0.00    -0.287 OA
BRANCH   4   5
HETATM    5  C6  UNL     1       5.704  17.948  13.658  1.00  0.00     0.216 C 
BRANCH   5   6
HETATM    6  C5  UNL     1       4.471  17.582  14.432  1.00  0.00     0.180 C 
HETATM    7  O2  UNL     1       4.707  17.485  15.802  1.00  0.00    -0.353 OA
HETATM    8  C4  UNL     1       3.405  17.245  16.266  1.00  0.00     0.263 C 
HETATM    9  C14 UNL     1       2.612  18.344  15.655  1.00  0.00     0.198 C 
HETATM   10  C13 UNL     1       3.406  18.659  14.383  1.00  0.00     0.182 C 
BRANCH   8  11
HETATM   11  N1  UNL     1       3.337  17.189  17.701  1.00  0.00    -0.280 N 
HETATM   12  C3  UNL     1       4.340  17.595  18.493  1.00  0.00     0.104 A 
HETATM   13  C2  UNL     1       4.247  17.528  19.875  1.00  0.00     0.092 A 
HETATM   14  C1  UNL     1       3.104  17.036  20.468  1.00  0.00     0.250 A 
HETATM   15  O1  UNL     1       2.987  16.963  21.714  1.00  0.00    -0.268 OA
HETATM   16  N2  UNL     1       2.111  16.636  19.633  1.00  0.00    -0.275 N 
HETATM   17  C15 UNL     1       2.227  16.711  18.293  1.00  0.00     0.331 A 
ATOM     18  H2  UNL     1       1.248  16.266  20.033  1.00  0.00     0.173 HD
HETATM   19  O16 UNL     1       1.257  16.318  17.558  1.00  0.00    -0.246 OA
ENDBRANCH   8  11
BRANCH   9  20
HETATM   20  O15 UNL     1       1.363  17.841  15.260  1.00  0.00    -0.388 OA
ATOM     21  H15 UNL     1       0.931  18.484  14.709  1.00  0.00     0.210 HD
ENDBRANCH   9  20
BRANCH  10  22
HETATM   22  O14 UNL     1       2.634  18.397  13.240  1.00  0.00    -0.390 OA
ATOM     23  H14 UNL     1       2.114  19.178  13.086  1.00  0.00     0.210 HD
ENDBRANCH  10  22
ENDBRANCH   5   6
ENDBRANCH   4   5
ENDBRANCH   1   4
BRANCH   1  24
HETATM   24  O6  UNL     1       4.599  18.315  11.029  1.00  0.00    -0.180 OA
BRANCH  24  25
HETATM   25  P2  UNL     1       3.414  18.707  10.117  1.00  0.00     0.420 P 
HETATM   26  O7  UNL     1       4.323  18.736   8.757  1.00  0.00    -0.624 OA
HETATM   27  O8  UNL     1       3.308  20.114  10.990  1.00  0.00    -0.624 OA
BRANCH  25  28
HETATM   28  O9  UNL     1       2.121  19.120   9.392  1.00  0.00    -0.255 OA
BRANCH  28  29
HETATM   29  C7  UNL     1       0.901  18.489   9.709  1.00  0.00     0.309 C 
HETATM   30  O10 UNL     1      -0.014  19.043   8.857  1.00  0.00    -0.348 OA
HETATM   31  C8  UNL     1      -0.094  18.418   7.622  1.00  0.00     0.179 C 
HETATM   32  C10 UNL     1      -0.786  17.057   7.742  1.00  0.00     0.180 C 
HETATM   33  C11 UNL     1      -0.410  16.524   9.108  1.00  0.00     0.188 C 
HETATM   34  C12 UNL     1       0.964  17.007   9.531  1.00  0.00     0.257 C 
HETATM   35  F1  UNL     1       1.921  16.720   8.579  1.00  0.00    -0.241 F 
BRANCH  31  36
HETATM   36  C9  UNL     1      -0.937  19.251   6.679  1.00  0.00     0.198 C 
BRANCH  36  37
HETATM   37  O11 UNL     1      -2.121  18.589   6.454  1.00  0.00    -0.398 OA
ATOM     38  H11 UNL     1      -1.971  17.916   5.801  1.00  0.00     0.209 HD
ENDBRANCH  36  37
ENDBRANCH  31  36
BRANCH  32  39
HETATM   39  O12 UNL     1      -0.255  16.204   6.796  1.00  0.00    -0.390 OA
ATOM     40  H12 UNL     1      -0.799  16.234   6.018  1.00  0.00     0.210 HD
ENDBRANCH  32  39
BRANCH  33  41
HETATM   41  O13 UNL     1      -1.325  16.989  10.031  1.00  0.00    -0.390 OA
ATOM     42  H13 UNL     1      -1.585  16.267  10.591  1.00  0.00     0.210 HD
ENDBRANCH  33  41
ENDBRANCH  28  29
ENDBRANCH  25  28
ENDBRANCH  24  25
ENDBRANCH   1  24
TORSDOF 14
ENDMDL
