MODEL 14
REMARK VINA RESULT: -9.222074069      4.314      9.631
REMARK  14 active torsions:
REMARK  status: ('A' for Active; 'I' for Inactive)
REMARK    1  A    between atoms: N1_5  and  C4_6 
REMARK    2  A    between atoms: C5_8  and  C6_9 
REMARK    3  A    between atoms: C6_9  and  O3_10 
REMARK    4  A    between atoms: O3_10  and  P1_11 
REMARK    5  A    between atoms: P1_11  and  O6_14 
REMARK    6  A    between atoms: O6_14  and  P2_15 
REMARK    7  A    between atoms: P2_15  and  O9_18 
REMARK    8  A    between atoms: O9_18  and  C7_19 
REMARK    9  A    between atoms: C8_21  and  C9_22 
REMARK   10  A    between atoms: C9_22  and  O11_23 
REMARK   11  A    between atoms: C10_25  and  O12_26 
REMARK   12  A    between atoms: C11_28  and  O13_29 
REMARK   13  A    between atoms: C13_33  and  O14_34 
REMARK   14  A    between atoms: C14_36  and  O15_37 
ROOT
HETATM    1  P1  UNL     1       3.416  17.914  10.684  1.00  0.00     0.417 P 
HETATM    2  O4  UNL     1       4.670  17.826   9.559  1.00  0.00    -0.624 OA
HETATM    3  O5  UNL     1       3.097  16.442  10.331  1.00  0.00    -0.624 OA
ENDROOT
BRANCH   1   4
HETATM    4  O3  UNL     1       1.966  18.494  10.235  1.00  0.00    -0.287 OA
BRANCH   4   5
HETATM    5  C6  UNL     1       0.901  17.646  10.271  1.00  0.00     0.216 C 
BRANCH   5   6
HETATM    6  C5  UNL     1       0.036  17.870   9.065  1.00  0.00     0.180 C 
HETATM    7  O2  UNL     1       0.174  19.154   8.538  1.00  0.00    -0.353 OA
HETATM    8  C4  UNL     1      -0.639  19.048   7.399  1.00  0.00     0.263 C 
HETATM    9  C14 UNL     1      -0.123  17.831   6.718  1.00  0.00     0.198 C 
HETATM   10  C13 UNL     1       0.443  17.012   7.883  1.00  0.00     0.182 C 
BRANCH   8  11
HETATM   11  N1  UNL     1      -0.611  20.238   6.594  1.00  0.00    -0.280 N 
HETATM   12  C3  UNL     1       0.528  20.859   6.253  1.00  0.00     0.104 A 
HETATM   13  C2  UNL     1       0.525  22.006   5.475  1.00  0.00     0.092 A 
HETATM   14  C1  UNL     1      -0.668  22.538   5.032  1.00  0.00     0.250 A 
HETATM   15  O1  UNL     1      -0.706  23.574   4.327  1.00  0.00    -0.268 OA
HETATM   16  N2  UNL     1      -1.798  21.881   5.398  1.00  0.00    -0.275 N 
HETATM   17  C15 UNL     1      -1.768  20.768   6.155  1.00  0.00     0.331 A 
ATOM     18  H2  UNL     1      -2.701  22.243   5.090  1.00  0.00     0.173 HD
HETATM   19  O16 UNL     1      -2.866  20.193   6.467  1.00  0.00    -0.246 OA
ENDBRANCH   8  11
BRANCH   9  20
HETATM   20  O15 UNL     1      -1.204  17.113   6.183  1.00  0.00    -0.388 OA
ATOM     21  H15 UNL     1      -0.894  16.577   5.462  1.00  0.00     0.210 HD
ENDBRANCH   9  20
BRANCH  10  22
HETATM   22  O14 UNL     1      -0.252  15.800   8.020  1.00  0.00    -0.390 OA
ATOM     23  H14 UNL     1       0.252  15.272   8.628  1.00  0.00     0.210 HD
ENDBRANCH  10  22
ENDBRANCH   5   6
ENDBRANCH   4   5
ENDBRANCH   1   4
BRANCH   1  24
HETATM   24  O6  UNL     1       3.979  19.309  10.992  1.00  0.00    -0.180 OA
BRANCH  24  25
HETATM   25  P2  UNL     1       4.522  19.847  12.336  1.00  0.00     0.420 P 
HETATM   26  O7  UNL     1       5.965  20.289  11.705  1.00  0.00    -0.624 OA
HETATM   27  O8  UNL     1       4.390  18.300  12.920  1.00  0.00    -0.624 OA
BRANCH  25  28
HETATM   28  O9  UNL     1       4.884  20.299  13.762  1.00  0.00    -0.255 OA
BRANCH  28  29
HETATM   29  C7  UNL     1       4.023  21.162  14.469  1.00  0.00     0.309 C 
HETATM   30  O10 UNL     1       2.800  21.002  13.878  1.00  0.00    -0.348 OA
HETATM   31  C8  UNL     1       2.053  19.953  14.392  1.00  0.00     0.179 C 
HETATM   32  C10 UNL     1       1.518  20.294  15.785  1.00  0.00     0.180 C 
HETATM   33  C11 UNL     1       2.568  21.178  16.424  1.00  0.00     0.188 C 
HETATM   34  C12 UNL     1       3.958  20.833  15.925  1.00  0.00     0.257 C 
HETATM   35  F1  UNL     1       4.239  19.493  16.085  1.00  0.00    -0.241 F 
BRANCH  31  36
HETATM   36  C9  UNL     1       0.846  19.704  13.513  1.00  0.00     0.198 C 
BRANCH  36  37
HETATM   37  O11 UNL     1      -0.209  19.334  14.315  1.00  0.00    -0.398 OA
ATOM     38  H11 UNL     1       0.136  18.881  15.076  1.00  0.00     0.209 HD
ENDBRANCH  36  37
ENDBRANCH  31  36
BRANCH  32  39
HETATM   39  O12 UNL     1       1.437  19.132  16.527  1.00  0.00    -0.390 OA
ATOM     40  H12 UNL     1       0.702  19.202  17.125  1.00  0.00     0.210 HD
ENDBRANCH  32  39
BRANCH  33  41
HETATM   41  O13 UNL     1       2.308  22.490  16.083  1.00  0.00    -0.390 OA
ATOM     42  H13 UNL     1       2.014  22.953  16.858  1.00  0.00     0.210 HD
ENDBRANCH  33  41
ENDBRANCH  28  29
ENDBRANCH  25  28
ENDBRANCH  24  25
ENDBRANCH   1  24
TORSDOF 14
ENDMDL
