MODEL 1
REMARK VINA RESULT: -9.931973940      0.000      0.000
REMARK  14 active torsions:
REMARK  status: ('A' for Active; 'I' for Inactive)
REMARK    1  A    between atoms: N1_5  and  C4_6 
REMARK    2  A    between atoms: C5_8  and  C6_9 
REMARK    3  A    between atoms: C6_9  and  O3_10 
REMARK    4  A    between atoms: O3_10  and  P1_11 
REMARK    5  A    between atoms: P1_11  and  O6_14 
REMARK    6  A    between atoms: O6_14  and  P2_15 
REMARK    7  A    between atoms: P2_15  and  O9_18 
REMARK    8  A    between atoms: O9_18  and  C7_19 
REMARK    9  A    between atoms: C8_21  and  C9_22 
REMARK   10  A    between atoms: C9_22  and  O11_23 
REMARK   11  A    between atoms: C10_25  and  O12_26 
REMARK   12  A    between atoms: C11_28  and  O13_29 
REMARK   13  A    between atoms: C13_33  and  O14_34 
REMARK   14  A    between atoms: C14_36  and  O15_37 
ROOT
HETATM    1  P1  UNL     1       5.464  19.142  11.240  1.00  0.00     0.417 P 
HETATM    2  O4  UNL     1       6.515  17.929  10.723  1.00  0.00    -0.624 OA
HETATM    3  O5  UNL     1       6.701  20.065  11.347  1.00  0.00    -0.624 OA
ENDROOT
BRANCH   1   4
HETATM    4  O3  UNL     1       5.062  19.248  12.811  1.00  0.00    -0.287 OA
BRANCH   4   5
HETATM    5  C6  UNL     1       5.429  18.225  13.633  1.00  0.00     0.216 C 
BRANCH   5   6
HETATM    6  C5  UNL     1       4.242  17.767  14.430  1.00  0.00     0.180 C 
HETATM    7  O2  UNL     1       4.524  17.644  15.790  1.00  0.00    -0.353 OA
HETATM    8  C4  UNL     1       3.251  17.318  16.283  1.00  0.00     0.263 C 
HETATM    9  C14 UNL     1       2.381  18.388  15.728  1.00  0.00     0.198 C 
HETATM   10  C13 UNL     1       3.117  18.783  14.444  1.00  0.00     0.182 C 
BRANCH   8  11
HETATM   11  N1  UNL     1       3.230  17.217  17.717  1.00  0.00    -0.280 N 
HETATM   12  C3  UNL     1       4.241  17.640  18.491  1.00  0.00     0.104 A 
HETATM   13  C2  UNL     1       4.193  17.529  19.873  1.00  0.00     0.092 A 
HETATM   14  C1  UNL     1       3.088  16.974  20.483  1.00  0.00     0.250 A 
HETATM   15  O1  UNL     1       3.013  16.860  21.730  1.00  0.00    -0.268 OA
HETATM   16  N2  UNL     1       2.087  16.559  19.666  1.00  0.00    -0.275 N 
HETATM   17  C15 UNL     1       2.158  16.678  18.327  1.00  0.00     0.331 A 
ATOM     18  H2  UNL     1       1.252  16.144  20.081  1.00  0.00     0.173 HD
HETATM   19  O16 UNL     1       1.183  16.269  17.609  1.00  0.00    -0.246 OA
ENDBRANCH   8  11
BRANCH   9  20
HETATM   20  O15 UNL     1       1.150  17.826  15.354  1.00  0.00    -0.388 OA
ATOM     21  H15 UNL     1       0.447  18.369  15.690  1.00  0.00     0.210 HD
ENDBRANCH   9  20
BRANCH  10  22
HETATM   22  O14 UNL     1       2.327  18.510  13.316  1.00  0.00    -0.390 OA
ATOM     23  H14 UNL     1       1.557  18.052  13.635  1.00  0.00     0.210 HD
ENDBRANCH  10  22
ENDBRANCH   5   6
ENDBRANCH   4   5
ENDBRANCH   1   4
BRANCH   1  24
HETATM   24  O6  UNL     1       4.358  18.121  10.934  1.00  0.00    -0.180 OA
BRANCH  24  25
HETATM   25  P2  UNL     1       3.108  18.302  10.043  1.00  0.00     0.420 P 
HETATM   26  O7  UNL     1       2.654  16.735  10.166  1.00  0.00    -0.624 OA
HETATM   27  O8  UNL     1       4.142  18.699   8.807  1.00  0.00    -0.624 OA
BRANCH  25  28
HETATM   28  O9  UNL     1       1.939  18.681   9.117  1.00  0.00    -0.255 OA
BRANCH  28  29
HETATM   29  C7  UNL     1       1.246  17.679   8.407  1.00  0.00     0.309 C 
HETATM   30  O10 UNL     1      -0.031  17.721   8.894  1.00  0.00    -0.348 OA
HETATM   31  C8  UNL     1      -0.853  18.639   8.258  1.00  0.00     0.179 C 
HETATM   32  C10 UNL     1      -1.229  18.156   6.856  1.00  0.00     0.180 C 
HETATM   33  C11 UNL     1      -0.033  17.373   6.356  1.00  0.00     0.188 C 
HETATM   34  C12 UNL     1       1.261  17.914   6.932  1.00  0.00     0.257 C 
HETATM   35  F1  UNL     1       1.393  19.268   6.705  1.00  0.00    -0.241 F 
BRANCH  31  36
HETATM   36  C9  UNL     1      -2.149  18.786   9.028  1.00  0.00     0.198 C 
BRANCH  36  37
HETATM   37  O11 UNL     1      -3.111  19.268   8.172  1.00  0.00    -0.398 OA
ATOM     38  H11 UNL     1      -3.643  19.900   8.642  1.00  0.00     0.209 HD
ENDBRANCH  36  37
ENDBRANCH  31  36
BRANCH  32  39
HETATM   39  O12 UNL     1      -1.386  19.254   6.035  1.00  0.00    -0.390 OA
ATOM     40  H12 UNL     1      -1.411  20.036   6.573  1.00  0.00     0.210 HD
ENDBRANCH  32  39
BRANCH  33  41
HETATM   41  O13 UNL     1      -0.163  16.060   6.764  1.00  0.00    -0.390 OA
ATOM     42  H13 UNL     1       0.458  15.529   6.279  1.00  0.00     0.210 HD
ENDBRANCH  33  41
ENDBRANCH  28  29
ENDBRANCH  25  28
ENDBRANCH  24  25
ENDBRANCH   1  24
TORSDOF 14
ENDMDL
