MODEL 2
REMARK VINA RESULT: -9.859450281      1.222      2.213
REMARK  14 active torsions:
REMARK  status: ('A' for Active; 'I' for Inactive)
REMARK    1  A    between atoms: N1_5  and  C4_6 
REMARK    2  A    between atoms: C5_8  and  C6_9 
REMARK    3  A    between atoms: C6_9  and  O3_10 
REMARK    4  A    between atoms: O3_10  and  P1_11 
REMARK    5  A    between atoms: P1_11  and  O6_14 
REMARK    6  A    between atoms: O6_14  and  P2_15 
REMARK    7  A    between atoms: P2_15  and  O9_18 
REMARK    8  A    between atoms: O9_18  and  C7_19 
REMARK    9  A    between atoms: C8_21  and  C9_22 
REMARK   10  A    between atoms: C9_22  and  O11_23 
REMARK   11  A    between atoms: C10_25  and  O12_26 
REMARK   12  A    between atoms: C11_28  and  O13_29 
REMARK   13  A    between atoms: C13_33  and  O14_34 
REMARK   14  A    between atoms: C14_36  and  O15_37 
ROOT
HETATM    1  P1  UNL     1       6.280  19.114  11.656  1.00  0.00     0.417 P 
HETATM    2  O4  UNL     1       6.747  17.919  10.561  1.00  0.00    -0.624 OA
HETATM    3  O5  UNL     1       7.495  18.697  12.516  1.00  0.00    -0.624 OA
ENDROOT
BRANCH   1   4
HETATM    4  O3  UNL     1       5.168  18.779  12.793  1.00  0.00    -0.287 OA
BRANCH   4   5
HETATM    5  C6  UNL     1       5.500  17.883  13.764  1.00  0.00     0.216 C 
BRANCH   5   6
HETATM    6  C5  UNL     1       4.278  17.521  14.556  1.00  0.00     0.180 C 
HETATM    7  O2  UNL     1       4.536  17.416  15.922  1.00  0.00    -0.353 OA
HETATM    8  C4  UNL     1       3.240  17.183  16.407  1.00  0.00     0.263 C 
HETATM    9  C14 UNL     1       2.445  18.290  15.814  1.00  0.00     0.198 C 
HETATM   10  C13 UNL     1       3.219  18.605  14.530  1.00  0.00     0.182 C 
BRANCH   8  11
HETATM   11  N1  UNL     1       3.196  17.121  17.842  1.00  0.00    -0.280 N 
HETATM   12  C3  UNL     1       4.207  17.534  18.620  1.00  0.00     0.104 A 
HETATM   13  C2  UNL     1       4.137  17.462  20.003  1.00  0.00     0.092 A 
HETATM   14  C1  UNL     1       3.008  16.955  20.612  1.00  0.00     0.250 A 
HETATM   15  O1  UNL     1       2.912  16.876  21.860  1.00  0.00    -0.268 OA
HETATM   16  N2  UNL     1       2.007  16.548  19.791  1.00  0.00    -0.275 N 
HETATM   17  C15 UNL     1       2.100  16.629  18.450  1.00  0.00     0.331 A 
ATOM     18  H2  UNL     1       1.154  16.167  20.204  1.00  0.00     0.173 HD
HETATM   19  O16 UNL     1       1.123  16.229  17.729  1.00  0.00    -0.246 OA
ENDBRANCH   8  11
BRANCH   9  20
HETATM   20  O15 UNL     1       1.185  17.797  15.437  1.00  0.00    -0.388 OA
ATOM     21  H15 UNL     1       0.815  17.308  16.163  1.00  0.00     0.210 HD
ENDBRANCH   9  20
BRANCH  10  22
HETATM   22  O14 UNL     1       2.426  18.354  13.399  1.00  0.00    -0.390 OA
ATOM     23  H14 UNL     1       1.661  18.912  13.481  1.00  0.00     0.210 HD
ENDBRANCH  10  22
ENDBRANCH   5   6
ENDBRANCH   4   5
ENDBRANCH   1   4
BRANCH   1  24
HETATM   24  O6  UNL     1       5.222  19.470  10.601  1.00  0.00    -0.180 OA
BRANCH  24  25
HETATM   25  P2  UNL     1       4.049  18.602  10.090  1.00  0.00     0.420 P 
HETATM   26  O7  UNL     1       4.458  18.775   8.516  1.00  0.00    -0.624 OA
HETATM   27  O8  UNL     1       3.027  19.738  10.739  1.00  0.00    -0.624 OA
BRANCH  25  28
HETATM   28  O9  UNL     1       2.812  17.738   9.787  1.00  0.00    -0.255 OA
BRANCH  28  29
HETATM   29  C7  UNL     1       1.630  18.339   9.308  1.00  0.00     0.309 C 
HETATM   30  O10 UNL     1       1.868  18.579   7.983  1.00  0.00    -0.348 OA
HETATM   31  C8  UNL     1       1.576  17.510   7.150  1.00  0.00     0.179 C 
HETATM   32  C10 UNL     1       0.063  17.322   7.013  1.00  0.00     0.180 C 
HETATM   33  C11 UNL     1      -0.526  17.741   8.343  1.00  0.00     0.188 C 
HETATM   34  C12 UNL     1       0.434  17.462   9.484  1.00  0.00     0.257 C 
HETATM   35  F1  UNL     1       0.851  16.148   9.490  1.00  0.00    -0.241 F 
BRANCH  31  36
HETATM   36  C9  UNL     1       2.106  17.784   5.759  1.00  0.00     0.198 C 
BRANCH  36  37
HETATM   37  O11 UNL     1       2.472  16.587   5.188  1.00  0.00    -0.398 OA
ATOM     38  H11 UNL     1       2.428  16.677   4.244  1.00  0.00     0.209 HD
ENDBRANCH  36  37
ENDBRANCH  31  36
BRANCH  32  39
HETATM   39  O12 UNL     1      -0.204  15.980   6.838  1.00  0.00    -0.390 OA
ATOM     40  H12 UNL     1      -0.230  15.560   7.690  1.00  0.00     0.210 HD
ENDBRANCH  32  39
BRANCH  33  41
HETATM   41  O13 UNL     1      -0.765  19.100   8.313  1.00  0.00    -0.390 OA
ATOM     42  H13 UNL     1      -0.219  19.519   8.967  1.00  0.00     0.210 HD
ENDBRANCH  33  41
ENDBRANCH  28  29
ENDBRANCH  25  28
ENDBRANCH  24  25
ENDBRANCH   1  24
TORSDOF 14
ENDMDL
