MODEL 5
REMARK VINA RESULT: -7.965108027      3.392      5.764
REMARK  14 active torsions:
REMARK  status: ('A' for Active; 'I' for Inactive)
REMARK    1  A    between atoms: N2_5  and  C4_6 
REMARK    2  A    between atoms: C5_8  and  C6_9 
REMARK    3  A    between atoms: C6_9  and  O2_10 
REMARK    4  A    between atoms: O2_10  and  P1_11 
REMARK    5  A    between atoms: P1_11  and  O5_14 
REMARK    6  A    between atoms: O5_14  and  P2_15 
REMARK    7  A    between atoms: P2_15  and  O8_18 
REMARK    8  A    between atoms: O8_18  and  C7_19 
REMARK    9  A    between atoms: C7_19  and  C8_20 
REMARK   10  A    between atoms: C8_20  and  O9_21 
REMARK   11  A    between atoms: O9_21  and  C9_22 
REMARK   12  A    between atoms: C9_22  and  C10_24 
REMARK   13  A    between atoms: C16_31  and  O11_32 
REMARK   14  A    between atoms: C17_34  and  O12_35 
ROOT
HETATM    1  O2  UNL     1      -0.189   4.419   5.727  1.00  0.00    -0.287 OA
ENDROOT
BRANCH   1   2
HETATM    2  C6  UNL     1      -0.172   4.087   6.999  1.00  0.00     0.216 C 
BRANCH   2   3
HETATM    3  C5  UNL     1      -1.081   5.006   7.692  1.00  0.00     0.180 C 
HETATM    4  O1  UNL     1      -1.892   4.638   8.715  1.00  0.00    -0.353 OA
HETATM    5  C4  UNL     1      -2.041   5.772   9.575  1.00  0.00     0.263 C 
HETATM    6  C17 UNL     1      -1.958   6.920   8.520  1.00  0.00     0.198 C 
HETATM    7  C16 UNL     1      -0.592   6.444   7.932  1.00  0.00     0.182 C 
BRANCH   5   8
HETATM    8  N2  UNL     1      -0.873   5.754  10.441  1.00  0.00    -0.280 N 
HETATM    9  C3  UNL     1      -0.103   4.653  10.498  1.00  0.00     0.102 A 
HETATM   10  C2  UNL     1       1.000   4.612  11.287  1.00  0.00     0.062 A 
HETATM   11  C1  UNL     1       1.343   5.729  12.051  1.00  0.00     0.121 A 
HETATM   12  N1  UNL     1       2.478   5.757  12.886  1.00  0.00    -0.083 NA
HETATM   13  N4  UNL     1       0.531   6.802  11.953  1.00  0.00    -0.297 N 
HETATM   14  C18 UNL     1      -0.581   6.850  11.160  1.00  0.00     0.329 A 
ATOM     15  H4  UNL     1       0.761   7.629  12.504  1.00  0.00     0.171 HD
HETATM   16  O13 UNL     1      -1.250   7.915  11.169  1.00  0.00    -0.246 OA
ENDBRANCH   5   8
BRANCH   6  17
HETATM   17  O12 UNL     1      -2.973   6.561   7.621  1.00  0.00    -0.388 OA
ATOM     18  H12 UNL     1      -2.475   6.297   6.857  1.00  0.00     0.210 HD
ENDBRANCH   6  17
BRANCH   7  19
HETATM   19  O11 UNL     1      -0.326   7.083   6.748  1.00  0.00    -0.390 OA
ATOM     20  H11 UNL     1      -0.891   7.838   6.630  1.00  0.00     0.210 HD
ENDBRANCH   7  19
ENDBRANCH   2   3
ENDBRANCH   1   2
BRANCH   1  21
HETATM   21  P1  UNL     1      -0.063   3.498   4.420  1.00  0.00     0.417 P 
HETATM   22  O3  UNL     1      -1.240   3.355   3.319  1.00  0.00    -0.624 OA
HETATM   23  O4  UNL     1       1.334   2.569   4.156  1.00  0.00    -0.624 OA
BRANCH  21  24
HETATM   24  O5  UNL     1       0.628   4.627   3.720  1.00  0.00    -0.180 OA
BRANCH  24  25
HETATM   25  P2  UNL     1       2.174   5.187   4.072  1.00  0.00     0.417 P 
HETATM   26  O6  UNL     1       2.847   4.783   5.546  1.00  0.00    -0.624 OA
HETATM   27  O7  UNL     1       1.717   6.487   4.669  1.00  0.00    -0.624 OA
BRANCH  25  28
HETATM   28  O8  UNL     1       2.886   5.721   2.769  1.00  0.00    -0.287 OA
BRANCH  28  29
HETATM   29  C7  UNL     1       3.848   6.605   2.630  1.00  0.00     0.208 C 
BRANCH  29  30
HETATM   30  C8  UNL     1       3.338   7.358   1.315  1.00  0.00     0.206 C 
BRANCH  30  31
HETATM   31  O9  UNL     1       4.025   6.792   0.188  1.00  0.00    -0.315 OA
BRANCH  31  32
HETATM   32  C9  UNL     1       3.075   6.062  -0.632  1.00  0.00     0.295 C 
HETATM   33  O10 UNL     1       2.974   6.574  -1.796  1.00  0.00    -0.259 OA
BRANCH  32  34
HETATM   34  C10 UNL     1       2.343   4.956  -0.187  1.00  0.00     0.063 A 
HETATM   35  C11 UNL     1       0.985   4.890  -0.092  1.00  0.00     0.019 A 
HETATM   36  C12 UNL     1       0.402   3.697   0.337  1.00  0.00     0.001 A 
HETATM   37  C13 UNL     1       1.145   2.624   0.663  1.00  0.00     0.002 A 
HETATM   38  C14 UNL     1       2.534   2.656   0.585  1.00  0.00     0.027 A 
HETATM   39  C15 UNL     1       3.118   3.814   0.165  1.00  0.00     0.062 A 
HETATM   40  N3  UNL     1       4.502   3.907   0.085  1.00  0.00    -0.101 NA
ENDBRANCH  32  34
ENDBRANCH  31  32
ENDBRANCH  30  31
ENDBRANCH  29  30
ENDBRANCH  28  29
ENDBRANCH  25  28
ENDBRANCH  24  25
ENDBRANCH  21  24
ENDBRANCH   1  21
TORSDOF 14
ENDMDL
