MODEL 2
REMARK VINA RESULT: -8.110102835      3.816      6.069
REMARK  14 active torsions:
REMARK  status: ('A' for Active; 'I' for Inactive)
REMARK    1  A    between atoms: N2_5  and  C4_6 
REMARK    2  A    between atoms: C5_8  and  C6_9 
REMARK    3  A    between atoms: C6_9  and  O2_10 
REMARK    4  A    between atoms: O2_10  and  P1_11 
REMARK    5  A    between atoms: P1_11  and  O5_14 
REMARK    6  A    between atoms: O5_14  and  P2_15 
REMARK    7  A    between atoms: P2_15  and  O8_18 
REMARK    8  A    between atoms: O8_18  and  C7_19 
REMARK    9  A    between atoms: C7_19  and  C8_20 
REMARK   10  A    between atoms: C8_20  and  O9_21 
REMARK   11  A    between atoms: O9_21  and  C9_22 
REMARK   12  A    between atoms: C9_22  and  C10_24 
REMARK   13  A    between atoms: C16_31  and  O11_32 
REMARK   14  A    between atoms: C17_34  and  O12_35 
ROOT
HETATM    1  O2  UNL     1       0.188   4.779   5.676  1.00  0.00    -0.287 OA
ENDROOT
BRANCH   1   2
HETATM    2  C6  UNL     1      -0.023   4.213   6.844  1.00  0.00     0.216 C 
BRANCH   2   3
HETATM    3  C5  UNL     1      -0.990   5.054   7.557  1.00  0.00     0.180 C 
HETATM    4  O1  UNL     1      -1.810   4.599   8.536  1.00  0.00    -0.353 OA
HETATM    5  C4  UNL     1      -2.032   5.679   9.449  1.00  0.00     0.263 C 
HETATM    6  C17 UNL     1      -1.973   6.883   8.457  1.00  0.00     0.198 C 
HETATM    7  C16 UNL     1      -0.572   6.497   7.884  1.00  0.00     0.182 C 
BRANCH   5   8
HETATM    8  N2  UNL     1      -0.887   5.665  10.346  1.00  0.00    -0.280 N 
HETATM    9  C3  UNL     1      -0.100   4.577  10.405  1.00  0.00     0.102 A 
HETATM   10  C2  UNL     1       0.982   4.541  11.223  1.00  0.00     0.062 A 
HETATM   11  C1  UNL     1       1.286   5.651  12.014  1.00  0.00     0.121 A 
HETATM   12  N1  UNL     1       2.398   5.684  12.880  1.00  0.00    -0.083 NA
HETATM   13  N4  UNL     1       0.458   6.712  11.911  1.00  0.00    -0.297 N 
HETATM   14  C18 UNL     1      -0.634   6.754  11.090  1.00  0.00     0.329 A 
ATOM     15  H4  UNL     1       0.659   7.533  12.482  1.00  0.00     0.171 HD
HETATM   16  O13 UNL     1      -1.320   7.807  11.098  1.00  0.00    -0.246 OA
ENDBRANCH   5   8
BRANCH   6  17
HETATM   17  O12 UNL     1      -2.948   6.528   7.512  1.00  0.00    -0.388 OA
ATOM     18  H12 UNL     1      -2.750   7.119   6.796  1.00  0.00     0.210 HD
ENDBRANCH   6  17
BRANCH   7  19
HETATM   19  O11 UNL     1      -0.304   7.209   6.743  1.00  0.00    -0.390 OA
ATOM     20  H11 UNL     1       0.355   7.875   6.899  1.00  0.00     0.210 HD
ENDBRANCH   7  19
ENDBRANCH   2   3
ENDBRANCH   1   2
BRANCH   1  21
HETATM   21  P1  UNL     1       1.548   4.953   4.845  1.00  0.00     0.417 P 
HETATM   22  O3  UNL     1       3.003   4.556   5.431  1.00  0.00    -0.624 OA
HETATM   23  O4  UNL     1       1.521   5.629   3.287  1.00  0.00    -0.624 OA
BRANCH  21  24
HETATM   24  O5  UNL     1       1.301   3.621   4.206  1.00  0.00    -0.180 OA
BRANCH  24  25
HETATM   25  P2  UNL     1       0.329   3.355   2.860  1.00  0.00     0.417 P 
HETATM   26  O6  UNL     1      -1.329   3.390   3.060  1.00  0.00    -0.624 OA
HETATM   27  O7  UNL     1       0.287   1.862   3.014  1.00  0.00    -0.624 OA
BRANCH  25  28
HETATM   28  O8  UNL     1       1.170   3.468   1.531  1.00  0.00    -0.287 OA
BRANCH  28  29
HETATM   29  C7  UNL     1       1.772   2.536   0.826  1.00  0.00     0.208 C 
BRANCH  29  30
HETATM   30  C8  UNL     1       3.295   2.864   1.186  1.00  0.00     0.206 C 
BRANCH  30  31
HETATM   31  O9  UNL     1       3.426   4.291   1.296  1.00  0.00    -0.315 OA
BRANCH  31  32
HETATM   32  C9  UNL     1       4.213   4.784   0.181  1.00  0.00     0.295 C 
HETATM   33  O10 UNL     1       4.997   3.884  -0.270  1.00  0.00    -0.259 OA
BRANCH  32  34
HETATM   34  C10 UNL     1       4.141   6.091  -0.314  1.00  0.00     0.063 A 
HETATM   35  C11 UNL     1       5.068   7.068  -0.111  1.00  0.00     0.019 A 
HETATM   36  C12 UNL     1       4.867   8.315  -0.705  1.00  0.00     0.001 A 
HETATM   37  C13 UNL     1       3.785   8.571  -1.460  1.00  0.00     0.002 A 
HETATM   38  C14 UNL     1       2.813   7.600  -1.685  1.00  0.00     0.027 A 
HETATM   39  C15 UNL     1       2.997   6.377  -1.113  1.00  0.00     0.062 A 
HETATM   40  N3  UNL     1       2.049   5.376  -1.290  1.00  0.00    -0.101 NA
ENDBRANCH  32  34
ENDBRANCH  31  32
ENDBRANCH  30  31
ENDBRANCH  29  30
ENDBRANCH  28  29
ENDBRANCH  25  28
ENDBRANCH  24  25
ENDBRANCH  21  24
ENDBRANCH   1  21
TORSDOF 14
ENDMDL
