MODEL 3
REMARK VINA RESULT: -8.055431363      3.305      5.686
REMARK  14 active torsions:
REMARK  status: ('A' for Active; 'I' for Inactive)
REMARK    1  A    between atoms: N2_5  and  C4_6 
REMARK    2  A    between atoms: C5_8  and  C6_9 
REMARK    3  A    between atoms: C6_9  and  O2_10 
REMARK    4  A    between atoms: O2_10  and  P1_11 
REMARK    5  A    between atoms: P1_11  and  O5_14 
REMARK    6  A    between atoms: O5_14  and  P2_15 
REMARK    7  A    between atoms: P2_15  and  O8_18 
REMARK    8  A    between atoms: O8_18  and  C7_19 
REMARK    9  A    between atoms: C7_19  and  C8_20 
REMARK   10  A    between atoms: C8_20  and  O9_21 
REMARK   11  A    between atoms: O9_21  and  C9_22 
REMARK   12  A    between atoms: C9_22  and  C10_24 
REMARK   13  A    between atoms: C16_31  and  O11_32 
REMARK   14  A    between atoms: C17_34  and  O12_35 
ROOT
HETATM    1  O2  UNL     1      -0.523   4.314   5.701  1.00  0.00    -0.287 OA
ENDROOT
BRANCH   1   2
HETATM    2  C6  UNL     1      -0.509   3.975   6.971  1.00  0.00     0.216 C 
BRANCH   2   3
HETATM    3  C5  UNL     1      -1.307   4.976   7.687  1.00  0.00     0.180 C 
HETATM    4  O1  UNL     1      -2.119   4.686   8.735  1.00  0.00    -0.353 OA
HETATM    5  C4  UNL     1      -2.134   5.829   9.597  1.00  0.00     0.263 C 
HETATM    6  C17 UNL     1      -1.975   6.964   8.537  1.00  0.00     0.198 C 
HETATM    7  C16 UNL     1      -0.678   6.361   7.909  1.00  0.00     0.182 C 
BRANCH   5   8
HETATM    8  N2  UNL     1      -0.948   5.700  10.428  1.00  0.00    -0.280 N 
HETATM    9  C3  UNL     1      -0.266   4.542  10.440  1.00  0.00     0.102 A 
HETATM   10  C2  UNL     1       0.852   4.398  11.196  1.00  0.00     0.062 A 
HETATM   11  C1  UNL     1       1.303   5.467  11.972  1.00  0.00     0.121 A 
HETATM   12  N1  UNL     1       2.459   5.388  12.774  1.00  0.00    -0.083 NA
HETATM   13  N4  UNL     1       0.574   6.602  11.919  1.00  0.00    -0.297 N 
HETATM   14  C18 UNL     1      -0.552   6.754  11.160  1.00  0.00     0.329 A 
ATOM     15  H4  UNL     1       0.884   7.396  12.480  1.00  0.00     0.171 HD
HETATM   16  O13 UNL     1      -1.134   7.867  11.210  1.00  0.00    -0.246 OA
ENDBRANCH   5   8
BRANCH   6  17
HETATM   17  O12 UNL     1      -3.046   6.702   7.669  1.00  0.00    -0.388 OA
ATOM     18  H12 UNL     1      -2.598   6.548   6.846  1.00  0.00     0.210 HD
ENDBRANCH   6  17
BRANCH   7  19
HETATM   19  O11 UNL     1      -0.388   6.973   6.717  1.00  0.00    -0.390 OA
ATOM     20  H11 UNL     1      -0.361   7.918   6.812  1.00  0.00     0.210 HD
ENDBRANCH   7  19
ENDBRANCH   2   3
ENDBRANCH   1   2
BRANCH   1  21
HETATM   21  P1  UNL     1      -0.113   3.466   4.403  1.00  0.00     0.417 P 
HETATM   22  O3  UNL     1      -1.048   3.350   3.087  1.00  0.00    -0.624 OA
HETATM   23  O4  UNL     1       1.340   2.588   4.376  1.00  0.00    -0.624 OA
BRANCH  21  24
HETATM   24  O5  UNL     1       0.661   4.647   3.904  1.00  0.00    -0.180 OA
BRANCH  24  25
HETATM   25  P2  UNL     1       2.147   5.158   4.503  1.00  0.00     0.417 P 
HETATM   26  O6  UNL     1       2.485   4.892   6.116  1.00  0.00    -0.624 OA
HETATM   27  O7  UNL     1       1.684   6.541   4.857  1.00  0.00    -0.624 OA
BRANCH  25  28
HETATM   28  O8  UNL     1       3.139   5.495   3.324  1.00  0.00    -0.287 OA
BRANCH  28  29
HETATM   29  C7  UNL     1       3.326   6.619   2.668  1.00  0.00     0.208 C 
BRANCH  29  30
HETATM   30  C8  UNL     1       4.719   6.289   1.956  1.00  0.00     0.206 C 
BRANCH  30  31
HETATM   31  O9  UNL     1       4.506   6.313   0.536  1.00  0.00    -0.315 OA
BRANCH  31  32
HETATM   32  C9  UNL     1       4.287   4.957   0.065  1.00  0.00     0.295 C 
HETATM   33  O10 UNL     1       5.372   4.425  -0.344  1.00  0.00    -0.259 OA
BRANCH  32  34
HETATM   34  C10 UNL     1       3.037   4.328   0.036  1.00  0.00     0.063 A 
HETATM   35  C11 UNL     1       2.689   3.221   0.749  1.00  0.00     0.019 A 
HETATM   36  C12 UNL     1       1.386   2.735   0.637  1.00  0.00     0.001 A 
HETATM   37  C13 UNL     1       0.477   3.326  -0.158  1.00  0.00     0.002 A 
HETATM   38  C14 UNL     1       0.797   4.455  -0.907  1.00  0.00     0.027 A 
HETATM   39  C15 UNL     1       2.065   4.943  -0.806  1.00  0.00     0.062 A 
HETATM   40  N3  UNL     1       2.444   6.058  -1.544  1.00  0.00    -0.101 NA
ENDBRANCH  32  34
ENDBRANCH  31  32
ENDBRANCH  30  31
ENDBRANCH  29  30
ENDBRANCH  28  29
ENDBRANCH  25  28
ENDBRANCH  24  25
ENDBRANCH  21  24
ENDBRANCH   1  21
TORSDOF 14
ENDMDL
