MODEL 4
REMARK VINA RESULT: -7.299897778      1.033      1.347
REMARK  6 active torsions:
REMARK  status: ('A' for Active; 'I' for Inactive)
REMARK    1  A    between atoms: C2_2  and  N1_3 
REMARK    2  A    between atoms: C5_6  and  C6_7 
REMARK    3  A    between atoms: C6_7  and  O2_9 
REMARK    4  A    between atoms: O2_9  and  C7_10 
REMARK    5  A    between atoms: C17_21  and  C18_22 
REMARK    6  A    between atoms: C19_25  and  C20_26 
ROOT
HETATM    1  N1  UNL     1      26.226   2.441  52.384  1.00  0.00    -0.344 N 
HETATM    2  C3  UNL     1      26.386   1.104  52.455  1.00  0.00     0.025 A 
HETATM    3  C4  UNL     1      25.519   0.272  53.331  1.00  0.00     0.069 C 
HETATM    4  C5  UNL     1      27.375   0.440  51.764  1.00  0.00     0.074 A 
HETATM    5  C10 UNL     1      28.246   1.137  50.972  1.00  0.00     0.013 A 
HETATM    6  C11 UNL     1      29.295   0.490  50.231  1.00  0.00    -0.002 A 
HETATM    7  C12 UNL     1      29.148   0.008  48.952  1.00  0.00     0.014 A 
HETATM    8  C13 UNL     1      30.230  -0.601  48.367  1.00  0.00     0.001 A 
HETATM    9  C14 UNL     1      31.453  -0.749  49.005  1.00  0.00     0.002 A 
HETATM   10  C15 UNL     1      31.608  -0.269  50.290  1.00  0.00     0.024 A 
HETATM   11  C16 UNL     1      30.528   0.346  50.890  1.00  0.00     0.045 A 
HETATM   12 CL1  UNL     1      30.757   0.947  52.523  1.00  0.00    -0.083 Cl
HETATM   13  C17 UNL     1      28.110   2.538  50.880  1.00  0.00     0.086 A 
HETATM   14  C19 UNL     1      27.105   3.157  51.589  1.00  0.00     0.130 A 
ENDROOT
BRANCH   4  15
HETATM   15  C6  UNL     1      27.525  -1.018  51.806  1.00  0.00     0.296 C 
HETATM   16  O1  UNL     1      26.791  -1.776  51.126  1.00  0.00    -0.259 OA
BRANCH  15  17
HETATM   17  O2  UNL     1      28.476  -1.580  52.595  1.00  0.00    -0.313 OA
BRANCH  17  18
HETATM   18  C7  UNL     1      29.112  -2.812  52.395  1.00  0.00     0.124 C 
HETATM   19  C8  UNL     1      28.518  -3.933  53.198  1.00  0.00     0.040 C 
HETATM   20  C9  UNL     1      30.557  -2.672  52.773  1.00  0.00     0.040 C 
ENDBRANCH  17  18
ENDBRANCH  15  17
ENDBRANCH   4  15
BRANCH  13  21
HETATM   21  C18 UNL     1      29.058   3.244  50.036  1.00  0.00     0.212 C 
HETATM   22  O3  UNL     1      30.178   3.644  50.569  1.00  0.00    -0.644 OA
HETATM   23  O4  UNL     1      28.965   3.567  48.736  1.00  0.00    -0.644 OA
ENDBRANCH  13  21
BRANCH  14  24
HETATM   24  C20 UNL     1      26.960   4.584  51.620  1.00  0.00     0.228 C 
HETATM   25  O5  UNL     1      27.626   5.325  52.438  1.00  0.00    -0.643 OA
HETATM   26  O6  UNL     1      26.109   5.294  50.798  1.00  0.00    -0.643 OA
ENDBRANCH  14  24
BRANCH   1  27
HETATM   27  C2  UNL     1      25.115   3.085  53.075  1.00  0.00     0.125 C 
HETATM   28  C1  UNL     1      25.411   3.620  54.416  1.00  0.00     0.027 C 
ENDBRANCH   1  27
TORSDOF 6
ENDMDL
