MODEL 2
REMARK VINA RESULT: -7.571900704      1.014      1.120
REMARK  6 active torsions:
REMARK  status: ('A' for Active; 'I' for Inactive)
REMARK    1  A    between atoms: C2_2  and  N1_3 
REMARK    2  A    between atoms: C5_6  and  C6_7 
REMARK    3  A    between atoms: C6_7  and  O2_9 
REMARK    4  A    between atoms: O2_9  and  C7_10 
REMARK    5  A    between atoms: C17_21  and  C18_22 
REMARK    6  A    between atoms: C19_25  and  C20_26 
ROOT
HETATM    1  N1  UNL     1      25.320   2.001  51.566  1.00  0.00    -0.344 N 
HETATM    2  C3  UNL     1      25.617   0.696  51.728  1.00  0.00     0.025 A 
HETATM    3  C4  UNL     1      24.631  -0.250  52.313  1.00  0.00     0.069 C 
HETATM    4  C5  UNL     1      26.851   0.174  51.408  1.00  0.00     0.074 A 
HETATM    5  C10 UNL     1      27.832   0.986  50.909  1.00  0.00     0.013 A 
HETATM    6  C11 UNL     1      29.136   0.489  50.560  1.00  0.00    -0.002 A 
HETATM    7  C12 UNL     1      29.465   0.003  49.317  1.00  0.00     0.014 A 
HETATM    8  C13 UNL     1      30.746  -0.454  49.125  1.00  0.00     0.001 A 
HETATM    9  C14 UNL     1      31.711  -0.446  50.121  1.00  0.00     0.002 A 
HETATM   10  C15 UNL     1      31.387   0.039  51.372  1.00  0.00     0.024 A 
HETATM   11  C16 UNL     1      30.103   0.502  51.579  1.00  0.00     0.045 A 
HETATM   12 CL1  UNL     1      29.723   1.113  53.180  1.00  0.00    -0.083 Cl
HETATM   13  C17 UNL     1      27.556   2.358  50.733  1.00  0.00     0.086 A 
HETATM   14  C19 UNL     1      26.307   2.833  51.067  1.00  0.00     0.130 A 
ENDROOT
BRANCH   4  15
HETATM   15  C6  UNL     1      27.164  -1.252  51.543  1.00  0.00     0.296 C 
HETATM   16  O1  UNL     1      26.924  -2.071  50.622  1.00  0.00    -0.259 OA
BRANCH  15  17
HETATM   17  O2  UNL     1      27.728  -1.718  52.687  1.00  0.00    -0.313 OA
BRANCH  17  18
HETATM   18  C7  UNL     1      28.220  -3.009  52.915  1.00  0.00     0.124 C 
HETATM   19  C8  UNL     1      27.878  -3.553  54.273  1.00  0.00     0.040 C 
HETATM   20  C9  UNL     1      29.714  -2.983  52.778  1.00  0.00     0.040 C 
ENDBRANCH  17  18
ENDBRANCH  15  17
ENDBRANCH   4  15
BRANCH  13  21
HETATM   21  C18 UNL     1      28.624   3.190  50.209  1.00  0.00     0.212 C 
HETATM   22  O3  UNL     1      28.705   3.348  48.918  1.00  0.00    -0.644 OA
HETATM   23  O4  UNL     1      29.588   3.854  50.868  1.00  0.00    -0.644 OA
ENDBRANCH  13  21
BRANCH  14  24
HETATM   24  C20 UNL     1      25.980   4.229  51.003  1.00  0.00     0.228 C 
HETATM   25  O5  UNL     1      26.297   5.052  51.942  1.00  0.00    -0.643 OA
HETATM   26  O6  UNL     1      25.304   4.818  49.954  1.00  0.00    -0.643 OA
ENDBRANCH  14  24
BRANCH   1  27
HETATM   27  C2  UNL     1      23.974   2.487  51.848  1.00  0.00     0.125 C 
HETATM   28  C1  UNL     1      23.719   2.913  53.236  1.00  0.00     0.027 C 
ENDBRANCH   1  27
TORSDOF 6
ENDMDL
