MODEL 1
REMARK VINA RESULT: -8.291364770      0.000      0.000
REMARK  6 active torsions:
REMARK  status: ('A' for Active; 'I' for Inactive)
REMARK    1  A    between atoms: C2_2  and  N1_3 
REMARK    2  A    between atoms: C5_6  and  C6_7 
REMARK    3  A    between atoms: C6_7  and  O2_9 
REMARK    4  A    between atoms: O2_9  and  C7_10 
REMARK    5  A    between atoms: C17_21  and  C18_22 
REMARK    6  A    between atoms: C19_25  and  C20_26 
ROOT
HETATM    1  N1  UNL     1      26.311   1.961  51.389  1.00  0.00    -0.344 N 
HETATM    2  C3  UNL     1      26.473   0.639  51.599  1.00  0.00     0.025 A 
HETATM    3  C4  UNL     1      25.417  -0.167  52.268  1.00  0.00     0.069 C 
HETATM    4  C5  UNL     1      27.626  -0.030  51.253  1.00  0.00     0.074 A 
HETATM    5  C10 UNL     1      28.665   0.647  50.676  1.00  0.00     0.013 A 
HETATM    6  C11 UNL     1      29.890  -0.005  50.297  1.00  0.00    -0.002 A 
HETATM    7  C12 UNL     1      30.106  -0.576  49.065  1.00  0.00     0.014 A 
HETATM    8  C13 UNL     1      31.319  -1.180  48.841  1.00  0.00     0.001 A 
HETATM    9  C14 UNL     1      32.324  -1.237  49.795  1.00  0.00     0.002 A 
HETATM   10  C15 UNL     1      32.113  -0.667  51.034  1.00  0.00     0.024 A 
HETATM   11  C16 UNL     1      30.899  -0.056  51.273  1.00  0.00     0.045 A 
HETATM   12 CL1  UNL     1      30.662   0.660  52.858  1.00  0.00    -0.083 Cl
HETATM   13  C17 UNL     1      28.531   2.032  50.447  1.00  0.00     0.086 A 
HETATM   14  C19 UNL     1      27.359   2.657  50.810  1.00  0.00     0.130 A 
ENDROOT
BRANCH   4  15
HETATM   15  C6  UNL     1      27.788  -1.475  51.442  1.00  0.00     0.296 C 
HETATM   16  O1  UNL     1      27.380  -2.302  50.590  1.00  0.00    -0.259 OA
BRANCH  15  17
HETATM   17  O2  UNL     1      28.392  -1.950  52.561  1.00  0.00    -0.313 OA
BRANCH  17  18
HETATM   18  C7  UNL     1      29.041  -3.182  52.707  1.00  0.00     0.124 C 
HETATM   19  C8  UNL     1      28.245  -4.193  53.483  1.00  0.00     0.040 C 
HETATM   20  C9  UNL     1      30.342  -2.957  53.418  1.00  0.00     0.040 C 
ENDBRANCH  17  18
ENDBRANCH  15  17
ENDBRANCH   4  15
BRANCH  13  21
HETATM   21  C18 UNL     1      29.658   2.718  49.840  1.00  0.00     0.212 C 
HETATM   22  O3  UNL     1      29.676   2.845  48.544  1.00  0.00    -0.644 OA
HETATM   23  O4  UNL     1      30.735   3.270  50.424  1.00  0.00    -0.644 OA
ENDBRANCH  13  21
BRANCH  14  24
HETATM   24  C20 UNL     1      27.182   4.076  50.694  1.00  0.00     0.228 C 
HETATM   25  O5  UNL     1      27.450   4.883  51.663  1.00  0.00    -0.643 OA
HETATM   26  O6  UNL     1      26.715   4.707  49.560  1.00  0.00    -0.643 OA
ENDBRANCH  14  24
BRANCH   1  27
HETATM   27  C2  UNL     1      25.041   2.604  51.703  1.00  0.00     0.125 C 
HETATM   28  C1  UNL     1      24.001   2.523  50.662  1.00  0.00     0.027 C 
ENDBRANCH   1  27
TORSDOF 6
ENDMDL
