MODEL 1
REMARK VINA RESULT: -7.305686510      0.000      0.000
REMARK  6 active torsions:
REMARK  status: ('A' for Active; 'I' for Inactive)
REMARK    1  A    between atoms: C7_8  and  O1_9 
REMARK    2  A    between atoms: O1_9  and  C8_10 
REMARK    3  A    between atoms: C8_10  and  C9_12 
REMARK    4  A    between atoms: C9_12  and  C10_13 
REMARK    5  A    between atoms: C9_12  and  C11_16 
REMARK    6  A    between atoms: C10_13  and  O3_14 
ROOT
HETATM    1  C8  UNL     1       7.104  24.655   5.206  1.00  0.00     0.270 C 
HETATM    2  O2  UNL     1       7.356  25.822   4.831  1.00  0.00    -0.264 OA
ENDROOT
BRANCH   1   3
HETATM    3  O1  UNL     1       8.094  23.711   5.113  1.00  0.00    -0.315 OA
BRANCH   3   4
HETATM    4  C7  UNL     1       8.698  23.303   3.893  1.00  0.00     0.136 C 
HETATM    5  C6  UNL     1       9.910  24.201   3.697  1.00  0.00     0.068 C 
HETATM    6  C5  UNL     1      10.399  24.104   2.281  1.00  0.00     0.225 C 
HETATM    7  N1  UNL     1       9.366  24.653   1.423  1.00  0.00     0.093 N 
HETATM    8  C4  UNL     1      10.512  22.679   1.794  1.00  0.00     0.038 C 
HETATM    9  C1  UNL     1       8.872  25.917   1.886  1.00  0.00     0.310 C 
HETATM   10  C2  UNL     1       8.385  23.602   1.420  1.00  0.00     0.225 C 
HETATM   11  C3  UNL     1       9.241  22.396   1.014  1.00  0.00     0.038 C 
HETATM   12  C17 UNL     1       7.745  23.369   2.752  1.00  0.00     0.068 C 
ENDBRANCH   3   4
ENDBRANCH   1   3
BRANCH   1  13
HETATM   13  C9  UNL     1       5.753  24.348   5.729  1.00  0.00     0.142 C 
BRANCH  13  14
HETATM   14  C10 UNL     1       5.787  24.534   7.235  1.00  0.00     0.183 C 
BRANCH  14  15
HETATM   15  O3  UNL     1       6.948  25.190   7.642  1.00  0.00    -0.400 OA
ATOM     16  H3  UNL     1       7.358  24.748   8.376  1.00  0.00     0.209 HD
ENDBRANCH  14  15
ENDBRANCH  13  14
BRANCH  13  17
HETATM   17  C11 UNL     1       5.291  23.006   5.362  1.00  0.00    -0.043 A 
HETATM   18  C12 UNL     1       4.729  22.783   4.126  1.00  0.00     0.008 A 
HETATM   19  C13 UNL     1       4.279  21.518   3.747  1.00  0.00     0.001 A 
HETATM   20  C14 UNL     1       4.402  20.475   4.632  1.00  0.00     0.000 A 
HETATM   21  C15 UNL     1       4.959  20.696   5.854  1.00  0.00     0.001 A 
HETATM   22  C16 UNL     1       5.409  21.965   6.231  1.00  0.00     0.008 A 
ENDBRANCH  13  17
ENDBRANCH   1  13
TORSDOF 6
ENDMDL
