MODEL 2
REMARK VINA RESULT: -7.203513288      1.367      1.890
REMARK  6 active torsions:
REMARK  status: ('A' for Active; 'I' for Inactive)
REMARK    1  A    between atoms: C7_8  and  O1_9 
REMARK    2  A    between atoms: O1_9  and  C8_10 
REMARK    3  A    between atoms: C8_10  and  C9_12 
REMARK    4  A    between atoms: C9_12  and  C10_13 
REMARK    5  A    between atoms: C9_12  and  C11_16 
REMARK    6  A    between atoms: C10_13  and  O3_14 
ROOT
HETATM    1  C8  UNL     1       8.028  25.801   4.615  1.00  0.00     0.270 C 
HETATM    2  O2  UNL     1       7.740  26.380   3.544  1.00  0.00    -0.264 OA
ENDROOT
BRANCH   1   3
HETATM    3  O1  UNL     1       9.187  25.072   4.672  1.00  0.00    -0.315 OA
BRANCH   3   4
HETATM    4  C7  UNL     1       9.622  24.180   3.654  1.00  0.00     0.136 C 
HETATM    5  C6  UNL     1      10.652  24.941   2.833  1.00  0.00     0.068 C 
HETATM    6  C5  UNL     1      10.900  24.234   1.533  1.00  0.00     0.225 C 
HETATM    7  N1  UNL     1       9.671  24.292   0.763  1.00  0.00     0.093 N 
HETATM    8  C4  UNL     1      11.114  22.749   1.702  1.00  0.00     0.038 C 
HETATM    9  C1  UNL     1       9.101  25.606   0.723  1.00  0.00     0.310 C 
HETATM   10  C2  UNL     1       8.852  23.314   1.427  1.00  0.00     0.225 C 
HETATM   11  C3  UNL     1       9.778  22.091   1.414  1.00  0.00     0.038 C 
HETATM   12  C17 UNL     1       8.487  23.682   2.830  1.00  0.00     0.068 C 
ENDBRANCH   3   4
ENDBRANCH   1   3
BRANCH   1  13
HETATM   13  C9  UNL     1       7.107  25.929   5.768  1.00  0.00     0.142 C 
BRANCH  13  14
HETATM   14  C10 UNL     1       7.933  26.320   6.979  1.00  0.00     0.183 C 
BRANCH  14  15
HETATM   15  O3  UNL     1       8.920  27.247   6.647  1.00  0.00    -0.400 OA
ATOM     16  H3  UNL     1       9.046  27.884   7.340  1.00  0.00     0.209 HD
ENDBRANCH  14  15
ENDBRANCH  13  14
BRANCH  13  17
HETATM   17  C11 UNL     1       6.331  24.710   6.015  1.00  0.00    -0.043 A 
HETATM   18  C12 UNL     1       6.234  23.744   5.041  1.00  0.00     0.008 A 
HETATM   19  C13 UNL     1       5.502  22.573   5.245  1.00  0.00     0.001 A 
HETATM   20  C14 UNL     1       4.867  22.387   6.448  1.00  0.00     0.000 A 
HETATM   21  C15 UNL     1       4.964  23.343   7.412  1.00  0.00     0.001 A 
HETATM   22  C16 UNL     1       5.698  24.516   7.204  1.00  0.00     0.008 A 
ENDBRANCH  13  17
ENDBRANCH   1  13
TORSDOF 6
ENDMDL
