MODEL 3
REMARK VINA RESULT: -7.116472833      1.051      1.992
REMARK  6 active torsions:
REMARK  status: ('A' for Active; 'I' for Inactive)
REMARK    1  A    between atoms: C7_8  and  O1_9 
REMARK    2  A    between atoms: O1_9  and  C8_10 
REMARK    3  A    between atoms: C8_10  and  C9_12 
REMARK    4  A    between atoms: C9_12  and  C10_13 
REMARK    5  A    between atoms: C9_12  and  C11_16 
REMARK    6  A    between atoms: C10_13  and  O3_14 
ROOT
HETATM    1  C8  UNL     1       7.232  23.900   5.279  1.00  0.00     0.270 C 
HETATM    2  O2  UNL     1       7.859  24.761   5.935  1.00  0.00    -0.264 OA
ENDROOT
BRANCH   1   3
HETATM    3  O1  UNL     1       7.928  23.118   4.394  1.00  0.00    -0.315 OA
BRANCH   3   4
HETATM    4  C7  UNL     1       8.889  23.616   3.472  1.00  0.00     0.136 C 
HETATM    5  C6  UNL     1       8.100  24.271   2.349  1.00  0.00     0.068 C 
HETATM    6  C5  UNL     1       8.988  24.499   1.160  1.00  0.00     0.225 C 
HETATM    7  N1  UNL     1       9.380  23.198   0.651  1.00  0.00     0.093 N 
HETATM    8  C4  UNL     1      10.313  25.123   1.527  1.00  0.00     0.038 C 
HETATM    9  C1  UNL     1       8.272  22.300   0.508  1.00  0.00     0.310 C 
HETATM   10  C2  UNL     1      10.358  22.778   1.617  1.00  0.00     0.225 C 
HETATM   11  C3  UNL     1      11.308  23.982   1.623  1.00  0.00     0.038 C 
HETATM   12  C17 UNL     1       9.797  22.543   2.983  1.00  0.00     0.068 C 
ENDBRANCH   3   4
ENDBRANCH   1   3
BRANCH   1  13
HETATM   13  C9  UNL     1       5.772  23.765   5.488  1.00  0.00     0.142 C 
BRANCH  13  14
HETATM   14  C10 UNL     1       5.494  23.986   6.964  1.00  0.00     0.183 C 
BRANCH  14  15
HETATM   15  O3  UNL     1       4.982  25.260   7.202  1.00  0.00    -0.400 OA
ATOM     16  H3  UNL     1       4.081  25.334   6.908  1.00  0.00     0.209 HD
ENDBRANCH  14  15
ENDBRANCH  13  14
BRANCH  13  17
HETATM   17  C11 UNL     1       5.246  22.477   5.027  1.00  0.00    -0.043 A 
HETATM   18  C12 UNL     1       5.301  21.375   5.849  1.00  0.00     0.008 A 
HETATM   19  C13 UNL     1       4.810  20.134   5.440  1.00  0.00     0.001 A 
HETATM   20  C14 UNL     1       4.261  20.017   4.187  1.00  0.00     0.000 A 
HETATM   21  C15 UNL     1       4.206  21.108   3.374  1.00  0.00     0.001 A 
HETATM   22  C16 UNL     1       4.700  22.350   3.787  1.00  0.00     0.008 A 
ENDBRANCH  13  17
ENDBRANCH   1  13
TORSDOF 6
ENDMDL
