MODEL 2
REMARK VINA RESULT: -10.468982911      1.257      1.562
REMARK  14 active torsions:
REMARK  status: ('A' for Active; 'I' for Inactive)
REMARK    1  A    between atoms: C2_2  and  N1_5 
REMARK       I    between atoms: N1_5  and  C5_7 
REMARK    2  A    between atoms: C5_7  and  C6_9 
REMARK    3  A    between atoms: N2_11  and  C8_12 
REMARK    4  A    between atoms: C8_12  and  C9_13 
REMARK    5  A    between atoms: N4_22  and  C16_23 
REMARK    6  A    between atoms: C16_23  and  C17_24 
REMARK    7  A    between atoms: C17_24  and  O2_25 
REMARK    8  A    between atoms: C17_24  and  C18_27 
REMARK    9  A    between atoms: C18_27  and  C19_28 
REMARK   10  A    between atoms: C19_28  and  C20_29 
REMARK   11  A    between atoms: C19_28  and  C27_36 
REMARK   12  A    between atoms: C20_29  and  C21_30 
REMARK       I    between atoms: C27_36  and  N5_38 
REMARK   13  A    between atoms: N5_38  and  C28_40 
REMARK   14  A    between atoms: C36_48  and  O4_49 
ROOT
HETATM    1  C17 UNL     1      22.060  32.258  15.611  1.00  0.00     0.147 C 
ENDROOT
BRANCH   1   2
HETATM    2  C16 UNL     1      22.107  33.523  16.424  1.00  0.00     0.305 C 
BRANCH   2   3
HETATM    3  N4  UNL     1      20.909  34.288  16.450  1.00  0.00     0.108 N 
HETATM    4  C6  UNL     1      20.311  34.532  17.716  1.00  0.00     0.342 C 
HETATM    5  C7  UNL     1      20.888  35.669  18.479  1.00  0.00     0.318 C 
HETATM    6  N2  UNL     1      21.211  36.844  17.738  1.00  0.00     0.097 N 
HETATM    7  C14 UNL     1      21.912  36.525  16.508  1.00  0.00     0.303 C 
HETATM    8  C15 UNL     1      21.145  35.521  15.719  1.00  0.00     0.303 C 
BRANCH   4   9
HETATM    9  C5  UNL     1      18.821  34.665  17.507  1.00  0.00     0.253 C 
HETATM   10  N1  UNL     1      18.183  33.914  16.484  1.00  0.00    -0.351 N 
ATOM     11  H1  UNL     1      18.730  33.285  15.896  1.00  0.00     0.163 HD
HETATM   12  O1  UNL     1      18.139  35.438  18.229  1.00  0.00    -0.271 OA
BRANCH  10  13
HETATM   13  C2  UNL     1      16.757  34.042  16.275  1.00  0.00     0.022 C 
HETATM   14  C1  UNL     1      16.040  34.322  17.572  1.00  0.00     0.037 C 
HETATM   15  C3  UNL     1      16.221  32.726  15.729  1.00  0.00     0.037 C 
HETATM   16  C4  UNL     1      16.442  35.149  15.278  1.00  0.00     0.037 C 
ENDBRANCH  10  13
ENDBRANCH   4   9
BRANCH   6  17
HETATM   17  C8  UNL     1      20.132  37.763  17.533  1.00  0.00     0.312 C 
BRANCH  17  18
HETATM   18  C9  UNL     1      20.701  39.146  17.349  1.00  0.00    -0.015 A 
HETATM   19  C10 UNL     1      20.376  39.902  16.249  1.00  0.00     0.011 A 
HETATM   20  C11 UNL     1      20.900  41.157  16.096  1.00  0.00     0.018 A 
HETATM   21  C12 UNL     1      21.755  41.656  17.046  1.00  0.00     0.087 A 
HETATM   22  N3  UNL     1      22.076  40.919  18.124  1.00  0.00    -0.375 N 
HETATM   23  C13 UNL     1      21.562  39.680  18.282  1.00  0.00     0.096 A 
ATOM     24  H3  UNL     1      22.711  41.297  18.826  1.00  0.00     0.164 HD
ENDBRANCH  17  18
ENDBRANCH   6  17
ENDBRANCH   2   3
ENDBRANCH   1   2
BRANCH   1  25
HETATM   25  O2  UNL     1      20.678  31.979  15.437  1.00  0.00    -0.394 OA
ATOM     26  H2  UNL     1      20.643  31.305  14.768  1.00  0.00     0.210 HD
ENDBRANCH   1  25
BRANCH   1  27
HETATM   27  C18 UNL     1      22.562  32.511  14.211  1.00  0.00     0.047 C 
BRANCH  27  28
HETATM   28  C19 UNL     1      22.426  31.345  13.267  1.00  0.00     0.084 C 
BRANCH  28  29
HETATM   29  C20 UNL     1      23.099  30.117  13.696  1.00  0.00     0.052 C 
BRANCH  29  30
HETATM   30  C21 UNL     1      23.905  29.422  12.683  1.00  0.00    -0.057 A 
HETATM   31  C22 UNL     1      25.133  28.903  13.113  1.00  0.00     0.007 A 
HETATM   32  C23 UNL     1      25.964  28.197  12.265  1.00  0.00     0.001 A 
HETATM   33  C24 UNL     1      25.606  27.979  10.952  1.00  0.00     0.000 A 
HETATM   34  C25 UNL     1      24.400  28.486  10.521  1.00  0.00     0.001 A 
HETATM   35  C26 UNL     1      23.554  29.202  11.378  1.00  0.00     0.007 A 
ENDBRANCH  29  30
ENDBRANCH  28  29
BRANCH  28  36
HETATM   36  C27 UNL     1      21.044  31.132  12.832  1.00  0.00     0.222 C 
HETATM   37  O3  UNL     1      20.410  31.996  12.215  1.00  0.00    -0.273 OA
HETATM   38  N5  UNL     1      20.345  29.915  13.093  1.00  0.00    -0.350 N 
ATOM     39  H5  UNL     1      20.819  29.165  13.597  1.00  0.00     0.163 HD
BRANCH  38  40
HETATM   40  C28 UNL     1      18.994  29.725  12.661  1.00  0.00     0.147 C 
HETATM   41  C29 UNL     1      18.806  28.508  11.859  1.00  0.00    -0.027 A 
HETATM   42  C30 UNL     1      18.985  28.271  10.519  1.00  0.00     0.010 A 
HETATM   43  C34 UNL     1      18.380  27.492  12.679  1.00  0.00    -0.047 A 
HETATM   44  C31 UNL     1      18.741  27.029   9.988  1.00  0.00     0.001 A 
HETATM   45  C32 UNL     1      18.313  26.018  10.831  1.00  0.00     0.001 A 
HETATM   46  C33 UNL     1      18.121  26.224  12.197  1.00  0.00     0.008 A 
HETATM   47  C35 UNL     1      18.260  27.990  14.084  1.00  0.00     0.073 C 
HETATM   48  C36 UNL     1      18.137  29.487  13.893  1.00  0.00     0.149 C 
BRANCH  48  49
HETATM   49  O4  UNL     1      18.759  30.106  14.962  1.00  0.00    -0.393 OA
ATOM     50  H4  UNL     1      18.413  30.989  15.024  1.00  0.00     0.210 HD
ENDBRANCH  48  49
ENDBRANCH  38  40
ENDBRANCH  28  36
ENDBRANCH  27  28
ENDBRANCH   1  27
TORSDOF 14
ENDMDL
