MODEL 4
REMARK VINA RESULT: -10.020130482      2.220     10.202
REMARK  14 active torsions:
REMARK  status: ('A' for Active; 'I' for Inactive)
REMARK    1  A    between atoms: C2_2  and  N1_5 
REMARK       I    between atoms: N1_5  and  C5_7 
REMARK    2  A    between atoms: C5_7  and  C6_9 
REMARK    3  A    between atoms: N2_11  and  C8_12 
REMARK    4  A    between atoms: C8_12  and  C9_13 
REMARK    5  A    between atoms: N4_22  and  C16_23 
REMARK    6  A    between atoms: C16_23  and  C17_24 
REMARK    7  A    between atoms: C17_24  and  O2_25 
REMARK    8  A    between atoms: C17_24  and  C18_27 
REMARK    9  A    between atoms: C18_27  and  C19_28 
REMARK   10  A    between atoms: C19_28  and  C20_29 
REMARK   11  A    between atoms: C19_28  and  C27_36 
REMARK   12  A    between atoms: C20_29  and  C21_30 
REMARK       I    between atoms: C27_36  and  N5_38 
REMARK   13  A    between atoms: N5_38  and  C28_40 
REMARK   14  A    between atoms: C36_48  and  O4_49 
ROOT
HETATM    1  C17 UNL     1      20.768  31.434  16.684  1.00  0.00     0.147 C 
ENDROOT
BRANCH   1   2
HETATM    2  C16 UNL     1      21.289  31.314  15.279  1.00  0.00     0.305 C 
BRANCH   2   3
HETATM    3  N4  UNL     1      20.800  30.210  14.528  1.00  0.00     0.108 N 
HETATM    4  C6  UNL     1      20.454  30.439  13.169  1.00  0.00     0.342 C 
HETATM    5  C7  UNL     1      21.590  30.405  12.212  1.00  0.00     0.318 C 
HETATM    6  N2  UNL     1      22.571  29.390  12.413  1.00  0.00     0.097 N 
HETATM    7  C14 UNL     1      22.953  29.282  13.808  1.00  0.00     0.303 C 
HETATM    8  C15 UNL     1      21.746  29.116  14.666  1.00  0.00     0.303 C 
BRANCH   4   9
HETATM    9  C5  UNL     1      19.353  29.472  12.802  1.00  0.00     0.253 C 
HETATM   10  N1  UNL     1      19.308  28.917  11.495  1.00  0.00    -0.351 N 
ATOM     11  H1  UNL     1      20.020  29.170  10.809  1.00  0.00     0.163 HD
HETATM   12  O1  UNL     1      18.472  29.154  13.643  1.00  0.00    -0.271 OA
BRANCH  10  13
HETATM   13  C2  UNL     1      18.252  27.995  11.136  1.00  0.00     0.022 C 
HETATM   14  C1  UNL     1      18.173  26.851  12.115  1.00  0.00     0.037 C 
HETATM   15  C3  UNL     1      18.559  27.408   9.766  1.00  0.00     0.037 C 
HETATM   16  C4  UNL     1      16.903  28.698  11.075  1.00  0.00     0.037 C 
ENDBRANCH  10  13
ENDBRANCH   4   9
BRANCH   6  17
HETATM   17  C8  UNL     1      22.272  28.117  11.826  1.00  0.00     0.312 C 
BRANCH  17  18
HETATM   18  C9  UNL     1      23.549  27.517  11.295  1.00  0.00    -0.015 A 
HETATM   19  C10 UNL     1      24.688  28.275  11.176  1.00  0.00     0.011 A 
HETATM   20  C11 UNL     1      25.841  27.717  10.693  1.00  0.00     0.018 A 
HETATM   21  C12 UNL     1      25.852  26.395  10.326  1.00  0.00     0.087 A 
HETATM   22  N3  UNL     1      24.739  25.650  10.440  1.00  0.00    -0.375 N 
HETATM   23  C13 UNL     1      23.597  26.194  10.916  1.00  0.00     0.096 A 
ATOM     24  H3  UNL     1      24.755  24.668  10.165  1.00  0.00     0.164 HD
ENDBRANCH  17  18
ENDBRANCH   6  17
ENDBRANCH   2   3
ENDBRANCH   1   2
BRANCH   1  25
HETATM   25  O2  UNL     1      21.908  31.722  17.481  1.00  0.00    -0.394 OA
ATOM     26  H2  UNL     1      21.562  32.048  18.303  1.00  0.00     0.210 HD
ENDBRANCH   1  25
BRANCH   1  27
HETATM   27  C18 UNL     1      19.904  32.664  16.824  1.00  0.00     0.047 C 
BRANCH  27  28
HETATM   28  C19 UNL     1      20.138  33.726  15.783  1.00  0.00     0.084 C 
BRANCH  28  29
HETATM   29  C20 UNL     1      18.928  34.243  15.140  1.00  0.00     0.052 C 
BRANCH  29  30
HETATM   30  C21 UNL     1      17.657  33.985  15.829  1.00  0.00    -0.057 A 
HETATM   31  C22 UNL     1      17.297  34.895  16.831  1.00  0.00     0.007 A 
HETATM   32  C23 UNL     1      16.108  34.782  17.527  1.00  0.00     0.001 A 
HETATM   33  C24 UNL     1      15.229  33.757  17.253  1.00  0.00     0.000 A 
HETATM   34  C25 UNL     1      15.576  32.858  16.269  1.00  0.00     0.001 A 
HETATM   35  C26 UNL     1      16.779  32.969  15.561  1.00  0.00     0.007 A 
ENDBRANCH  29  30
ENDBRANCH  28  29
BRANCH  28  36
HETATM   36  C27 UNL     1      21.047  34.777  16.246  1.00  0.00     0.222 C 
HETATM   37  O3  UNL     1      22.274  34.620  16.269  1.00  0.00    -0.273 OA
HETATM   38  N5  UNL     1      20.573  36.046  16.699  1.00  0.00    -0.350 N 
ATOM     39  H5  UNL     1      19.571  36.232  16.701  1.00  0.00     0.163 HD
BRANCH  38  40
HETATM   40  C28 UNL     1      21.477  37.060  17.149  1.00  0.00     0.147 C 
HETATM   41  C29 UNL     1      21.582  38.197  16.223  1.00  0.00    -0.027 A 
HETATM   42  C30 UNL     1      22.353  38.384  15.104  1.00  0.00     0.010 A 
HETATM   43  C34 UNL     1      20.724  39.188  16.632  1.00  0.00    -0.047 A 
HETATM   44  C31 UNL     1      22.278  39.551  14.387  1.00  0.00     0.001 A 
HETATM   45  C32 UNL     1      21.407  40.538  14.814  1.00  0.00     0.001 A 
HETATM   46  C33 UNL     1      20.609  40.382  15.946  1.00  0.00     0.008 A 
HETATM   47  C35 UNL     1      19.998  38.756  17.866  1.00  0.00     0.073 C 
HETATM   48  C36 UNL     1      20.902  37.672  18.415  1.00  0.00     0.149 C 
BRANCH  48  49
HETATM   49  O4  UNL     1      20.103  36.716  19.017  1.00  0.00    -0.393 OA
ATOM     50  H4  UNL     1      20.280  36.741  19.950  1.00  0.00     0.210 HD
ENDBRANCH  48  49
ENDBRANCH  38  40
ENDBRANCH  28  36
ENDBRANCH  27  28
ENDBRANCH   1  27
TORSDOF 14
ENDMDL
