MODEL 1
REMARK VINA RESULT: -10.613840484      0.000      0.000
REMARK  14 active torsions:
REMARK  status: ('A' for Active; 'I' for Inactive)
REMARK    1  A    between atoms: C2_2  and  N1_5 
REMARK       I    between atoms: N1_5  and  C5_7 
REMARK    2  A    between atoms: C5_7  and  C6_9 
REMARK    3  A    between atoms: N2_11  and  C8_12 
REMARK    4  A    between atoms: C8_12  and  C9_13 
REMARK    5  A    between atoms: N4_22  and  C16_23 
REMARK    6  A    between atoms: C16_23  and  C17_24 
REMARK    7  A    between atoms: C17_24  and  O2_25 
REMARK    8  A    between atoms: C17_24  and  C18_27 
REMARK    9  A    between atoms: C18_27  and  C19_28 
REMARK   10  A    between atoms: C19_28  and  C20_29 
REMARK   11  A    between atoms: C19_28  and  C27_36 
REMARK   12  A    between atoms: C20_29  and  C21_30 
REMARK       I    between atoms: C27_36  and  N5_38 
REMARK   13  A    between atoms: N5_38  and  C28_40 
REMARK   14  A    between atoms: C36_48  and  O4_49 
ROOT
HETATM    1  C17 UNL     1      22.737  32.195  15.666  1.00  0.00     0.147 C 
ENDROOT
BRANCH   1   2
HETATM    2  C16 UNL     1      22.311  33.389  16.475  1.00  0.00     0.305 C 
BRANCH   2   3
HETATM    3  N4  UNL     1      21.056  33.959  16.126  1.00  0.00     0.108 N 
HETATM    4  C6  UNL     1      20.008  33.882  17.082  1.00  0.00     0.342 C 
HETATM    5  C7  UNL     1      20.033  34.932  18.133  1.00  0.00     0.318 C 
HETATM    6  N2  UNL     1      20.360  36.255  17.714  1.00  0.00     0.097 N 
HETATM    7  C14 UNL     1      21.503  36.268  16.821  1.00  0.00     0.303 C 
HETATM    8  C15 UNL     1      21.287  35.325  15.688  1.00  0.00     0.303 C 
BRANCH   4   9
HETATM    9  C5  UNL     1      18.698  33.839  16.331  1.00  0.00     0.253 C 
HETATM   10  N1  UNL     1      17.506  34.281  16.966  1.00  0.00    -0.351 N 
ATOM     11  H1  UNL     1      17.538  34.630  17.924  1.00  0.00     0.163 HD
HETATM   12  O1  UNL     1      18.651  33.412  15.149  1.00  0.00    -0.271 OA
BRANCH  10  13
HETATM   13  C2  UNL     1      16.248  34.237  16.254  1.00  0.00     0.022 C 
HETATM   14  C1  UNL     1      16.314  35.043  14.981  1.00  0.00     0.037 C 
HETATM   15  C3  UNL     1      15.166  34.851  17.131  1.00  0.00     0.037 C 
HETATM   16  C4  UNL     1      15.852  32.805  15.922  1.00  0.00     0.037 C 
ENDBRANCH  10  13
ENDBRANCH   4   9
BRANCH   6  17
HETATM   17  C8  UNL     1      19.266  37.034  17.215  1.00  0.00     0.312 C 
BRANCH  17  18
HETATM   18  C9  UNL     1      19.097  38.250  18.091  1.00  0.00    -0.015 A 
HETATM   19  C10 UNL     1      17.856  38.796  18.307  1.00  0.00     0.011 A 
HETATM   20  C11 UNL     1      17.718  39.899  19.105  1.00  0.00     0.018 A 
HETATM   21  C12 UNL     1      18.828  40.458  19.687  1.00  0.00     0.087 A 
HETATM   22  N3  UNL     1      20.044  39.927  19.478  1.00  0.00    -0.375 N 
HETATM   23  C13 UNL     1      20.188  38.837  18.692  1.00  0.00     0.096 A 
ATOM     24  H3  UNL     1      20.864  40.348  19.915  1.00  0.00     0.164 HD
ENDBRANCH  17  18
ENDBRANCH   6  17
ENDBRANCH   2   3
ENDBRANCH   1   2
BRANCH   1  25
HETATM   25  O2  UNL     1      21.660  31.274  15.766  1.00  0.00    -0.394 OA
ATOM     26  H2  UNL     1      21.899  30.688  16.475  1.00  0.00     0.210 HD
ENDBRANCH   1  25
BRANCH   1  27
HETATM   27  C18 UNL     1      22.787  32.542  14.198  1.00  0.00     0.047 C 
BRANCH  27  28
HETATM   28  C19 UNL     1      22.614  31.375  13.263  1.00  0.00     0.084 C 
BRANCH  28  29
HETATM   29  C20 UNL     1      23.252  30.130  13.698  1.00  0.00     0.052 C 
BRANCH  29  30
HETATM   30  C21 UNL     1      24.005  29.388  12.678  1.00  0.00    -0.057 A 
HETATM   31  C22 UNL     1      25.234  28.850  13.081  1.00  0.00     0.007 A 
HETATM   32  C23 UNL     1      26.018  28.100  12.225  1.00  0.00     0.001 A 
HETATM   33  C24 UNL     1      25.610  27.856  10.932  1.00  0.00     0.000 A 
HETATM   34  C25 UNL     1      24.402  28.381  10.528  1.00  0.00     0.001 A 
HETATM   35  C26 UNL     1      23.604  29.141  11.392  1.00  0.00     0.007 A 
ENDBRANCH  29  30
ENDBRANCH  28  29
BRANCH  28  36
HETATM   36  C27 UNL     1      21.224  31.199  12.834  1.00  0.00     0.222 C 
HETATM   37  O3  UNL     1      20.644  32.035  12.130  1.00  0.00    -0.273 OA
HETATM   38  N5  UNL     1      20.455  30.054  13.202  1.00  0.00    -0.350 N 
ATOM     39  H5  UNL     1      20.881  29.331  13.781  1.00  0.00     0.163 HD
BRANCH  38  40
HETATM   40  C28 UNL     1      19.098  29.901  12.775  1.00  0.00     0.147 C 
HETATM   41  C29 UNL     1      18.869  28.674  11.998  1.00  0.00    -0.027 A 
HETATM   42  C30 UNL     1      19.038  28.404  10.663  1.00  0.00     0.010 A 
HETATM   43  C34 UNL     1      18.410  27.690  12.838  1.00  0.00    -0.047 A 
HETATM   44  C31 UNL     1      18.753  27.161  10.157  1.00  0.00     0.001 A 
HETATM   45  C32 UNL     1      18.292  26.182  11.020  1.00  0.00     0.001 A 
HETATM   46  C33 UNL     1      18.109  26.422  12.382  1.00  0.00     0.008 A 
HETATM   47  C35 UNL     1      18.308  28.219  14.233  1.00  0.00     0.073 C 
HETATM   48  C36 UNL     1      18.235  29.716  14.012  1.00  0.00     0.149 C 
BRANCH  48  49
HETATM   49  O4  UNL     1      18.878  30.335  15.068  1.00  0.00    -0.393 OA
ATOM     50  H4  UNL     1      18.397  31.128  15.272  1.00  0.00     0.210 HD
ENDBRANCH  48  49
ENDBRANCH  38  40
ENDBRANCH  28  36
ENDBRANCH  27  28
ENDBRANCH   1  27
TORSDOF 14
ENDMDL
