MODEL 3
REMARK VINA RESULT: -10.213072755      1.883      4.762
REMARK  14 active torsions:
REMARK  status: ('A' for Active; 'I' for Inactive)
REMARK    1  A    between atoms: C2_2  and  N1_5 
REMARK       I    between atoms: N1_5  and  C5_7 
REMARK    2  A    between atoms: C5_7  and  C6_9 
REMARK    3  A    between atoms: N2_11  and  C8_12 
REMARK    4  A    between atoms: C8_12  and  C9_13 
REMARK    5  A    between atoms: N4_22  and  C16_23 
REMARK    6  A    between atoms: C16_23  and  C17_24 
REMARK    7  A    between atoms: C17_24  and  O2_25 
REMARK    8  A    between atoms: C17_24  and  C18_27 
REMARK    9  A    between atoms: C18_27  and  C19_28 
REMARK   10  A    between atoms: C19_28  and  C20_29 
REMARK   11  A    between atoms: C19_28  and  C27_36 
REMARK   12  A    between atoms: C20_29  and  C21_30 
REMARK       I    between atoms: C27_36  and  N5_38 
REMARK   13  A    between atoms: N5_38  and  C28_40 
REMARK   14  A    between atoms: C36_48  and  O4_49 
ROOT
HETATM    1  C17 UNL     1      20.879  29.923  15.678  1.00  0.00     0.147 C 
ENDROOT
BRANCH   1   2
HETATM    2  C16 UNL     1      21.617  31.223  15.510  1.00  0.00     0.305 C 
BRANCH   2   3
HETATM    3  N4  UNL     1      20.813  32.396  15.503  1.00  0.00     0.108 N 
HETATM    4  C6  UNL     1      20.646  33.087  16.733  1.00  0.00     0.342 C 
HETATM    5  C7  UNL     1      21.750  34.015  17.092  1.00  0.00     0.318 C 
HETATM    6  N2  UNL     1      22.297  34.803  16.037  1.00  0.00     0.097 N 
HETATM    7  C14 UNL     1      22.538  34.010  14.846  1.00  0.00     0.303 C 
HETATM    8  C15 UNL     1      21.304  33.274  14.454  1.00  0.00     0.303 C 
BRANCH   4   9
HETATM    9  C5  UNL     1      19.298  33.767  16.704  1.00  0.00     0.253 C 
HETATM   10  N1  UNL     1      18.185  33.101  16.125  1.00  0.00    -0.351 N 
ATOM     11  H1  UNL     1      18.297  32.166  15.734  1.00  0.00     0.163 HD
HETATM   12  O1  UNL     1      19.151  34.921  17.185  1.00  0.00    -0.271 OA
BRANCH  10  13
HETATM   13  C2  UNL     1      16.892  33.750  16.088  1.00  0.00     0.022 C 
HETATM   14  C1  UNL     1      16.597  34.450  17.391  1.00  0.00     0.037 C 
HETATM   15  C3  UNL     1      15.818  32.692  15.882  1.00  0.00     0.037 C 
HETATM   16  C4  UNL     1      16.811  34.756  14.948  1.00  0.00     0.037 C 
ENDBRANCH  10  13
ENDBRANCH   4   9
BRANCH   6  17
HETATM   17  C8  UNL     1      21.604  36.024  15.753  1.00  0.00     0.312 C 
BRANCH  17  18
HETATM   18  C9  UNL     1      22.143  37.108  16.650  1.00  0.00    -0.015 A 
HETATM   19  C10 UNL     1      23.488  37.383  16.695  1.00  0.00     0.011 A 
HETATM   20  C11 UNL     1      23.963  38.370  17.514  1.00  0.00     0.018 A 
HETATM   21  C12 UNL     1      23.088  39.085  18.293  1.00  0.00     0.087 A 
HETATM   22  N3  UNL     1      21.771  38.819  18.253  1.00  0.00    -0.375 N 
HETATM   23  C13 UNL     1      21.294  37.846  17.446  1.00  0.00     0.096 A 
ATOM     24  H3  UNL     1      21.127  39.355  18.834  1.00  0.00     0.164 HD
ENDBRANCH  17  18
ENDBRANCH   6  17
ENDBRANCH   2   3
ENDBRANCH   1   2
BRANCH   1  25
HETATM   25  O2  UNL     1      20.458  29.908  17.035  1.00  0.00    -0.394 OA
ATOM     26  H2  UNL     1      21.220  30.173  17.535  1.00  0.00     0.210 HD
ENDBRANCH   1  25
BRANCH   1  27
HETATM   27  C18 UNL     1      19.589  29.942  14.895  1.00  0.00     0.047 C 
BRANCH  27  28
HETATM   28  C19 UNL     1      19.523  28.959  13.756  1.00  0.00     0.084 C 
BRANCH  28  29
HETATM   29  C20 UNL     1      18.188  28.752  13.191  1.00  0.00     0.052 C 
BRANCH  29  30
HETATM   30  C21 UNL     1      18.080  27.768  12.106  1.00  0.00    -0.057 A 
HETATM   31  C22 UNL     1      18.284  26.428  12.458  1.00  0.00     0.007 A 
HETATM   32  C23 UNL     1      18.173  25.406  11.535  1.00  0.00     0.001 A 
HETATM   33  C24 UNL     1      17.855  25.677  10.222  1.00  0.00     0.000 A 
HETATM   34  C25 UNL     1      17.653  26.992   9.867  1.00  0.00     0.001 A 
HETATM   35  C26 UNL     1      17.763  28.031  10.800  1.00  0.00     0.007 A 
ENDBRANCH  29  30
ENDBRANCH  28  29
BRANCH  28  36
HETATM   36  C27 UNL     1      20.555  29.200  12.745  1.00  0.00     0.222 C 
HETATM   37  O3  UNL     1      20.664  30.287  12.164  1.00  0.00    -0.273 OA
HETATM   38  N5  UNL     1      21.497  28.196  12.367  1.00  0.00    -0.350 N 
ATOM     39  H5  UNL     1      21.457  27.280  12.814  1.00  0.00     0.163 HD
BRANCH  38  40
HETATM   40  C28 UNL     1      22.497  28.449  11.376  1.00  0.00     0.147 C 
HETATM   41  C29 UNL     1      23.868  28.380  11.902  1.00  0.00    -0.027 A 
HETATM   42  C30 UNL     1      24.642  29.319  12.537  1.00  0.00     0.010 A 
HETATM   43  C34 UNL     1      24.373  27.124  11.673  1.00  0.00    -0.047 A 
HETATM   44  C31 UNL     1      25.917  29.018  12.946  1.00  0.00     0.001 A 
HETATM   45  C32 UNL     1      26.408  27.747  12.706  1.00  0.00     0.001 A 
HETATM   46  C33 UNL     1      25.649  26.768  12.064  1.00  0.00     0.008 A 
HETATM   47  C35 UNL     1      23.353  26.285  10.973  1.00  0.00     0.073 C 
HETATM   48  C36 UNL     1      22.441  27.325  10.355  1.00  0.00     0.149 C 
BRANCH  48  49
HETATM   49  O4  UNL     1      21.154  26.820  10.359  1.00  0.00    -0.393 OA
ATOM     50  H4  UNL     1      20.962  26.529  11.242  1.00  0.00     0.210 HD
ENDBRANCH  48  49
ENDBRANCH  38  40
ENDBRANCH  28  36
ENDBRANCH  27  28
ENDBRANCH   1  27
TORSDOF 14
ENDMDL
