MODEL 4
REMARK VINA RESULT: -9.669749288      2.297      9.971
REMARK  14 active torsions:
REMARK  status: ('A' for Active; 'I' for Inactive)
REMARK    1  A    between atoms: C2_2  and  N1_5 
REMARK       I    between atoms: N1_5  and  C5_7 
REMARK    2  A    between atoms: C5_7  and  C6_9 
REMARK    3  A    between atoms: N2_11  and  C8_12 
REMARK    4  A    between atoms: C8_12  and  C9_13 
REMARK    5  A    between atoms: N4_22  and  C16_23 
REMARK    6  A    between atoms: C16_23  and  C17_24 
REMARK    7  A    between atoms: C17_24  and  O2_25 
REMARK    8  A    between atoms: C17_24  and  C18_27 
REMARK    9  A    between atoms: C18_27  and  C19_28 
REMARK   10  A    between atoms: C19_28  and  C20_29 
REMARK   11  A    between atoms: C19_28  and  C27_36 
REMARK   12  A    between atoms: C20_29  and  C21_30 
REMARK       I    between atoms: C27_36  and  N5_38 
REMARK   13  A    between atoms: N5_38  and  C28_40 
REMARK   14  A    between atoms: C36_48  and  O4_49 
ROOT
HETATM    1  C17 UNL     1      21.181  32.315  16.188  1.00  0.00     0.147 C 
ENDROOT
BRANCH   1   2
HETATM    2  C16 UNL     1      21.678  31.785  14.871  1.00  0.00     0.305 C 
BRANCH   2   3
HETATM    3  N4  UNL     1      20.993  30.648  14.361  1.00  0.00     0.108 N 
HETATM    4  C6  UNL     1      20.710  30.619  12.969  1.00  0.00     0.342 C 
HETATM    5  C7  UNL     1      21.828  30.157  12.106  1.00  0.00     0.318 C 
HETATM    6  N2  UNL     1      22.592  29.051  12.581  1.00  0.00     0.097 N 
HETATM    7  C14 UNL     1      22.934  29.197  13.983  1.00  0.00     0.303 C 
HETATM    8  C15 UNL     1      21.709  29.459  14.791  1.00  0.00     0.303 C 
BRANCH   4   9
HETATM    9  C5  UNL     1      19.447  29.815  12.770  1.00  0.00     0.253 C 
HETATM   10  N1  UNL     1      19.378  28.859  11.721  1.00  0.00    -0.351 N 
ATOM     11  H1  UNL     1      20.181  28.715  11.108  1.00  0.00     0.163 HD
HETATM   12  O1  UNL     1      18.453  29.985  13.522  1.00  0.00    -0.271 OA
BRANCH  10  13
HETATM   13  C2  UNL     1      18.169  28.090  11.521  1.00  0.00     0.022 C 
HETATM   14  C1  UNL     1      17.745  27.402  12.795  1.00  0.00     0.037 C 
HETATM   15  C3  UNL     1      18.440  27.010  10.484  1.00  0.00     0.037 C 
HETATM   16  C4  UNL     1      17.030  28.970  11.024  1.00  0.00     0.037 C 
ENDBRANCH  10  13
ENDBRANCH   4   9
BRANCH   6  17
HETATM   17  C8  UNL     1      22.061  27.755  12.278  1.00  0.00     0.312 C 
BRANCH  17  18
HETATM   18  C9  UNL     1      23.042  27.022  11.400  1.00  0.00    -0.015 A 
HETATM   19  C10 UNL     1      24.371  27.368  11.385  1.00  0.00     0.011 A 
HETATM   20  C11 UNL     1      25.250  26.693  10.582  1.00  0.00     0.018 A 
HETATM   21  C12 UNL     1      24.797  25.668   9.791  1.00  0.00     0.087 A 
HETATM   22  N3  UNL     1      23.497  25.326   9.803  1.00  0.00    -0.375 N 
HETATM   23  C13 UNL     1      22.623  25.988  10.592  1.00  0.00     0.096 A 
ATOM     24  H3  UNL     1      23.168  24.562   9.212  1.00  0.00     0.164 HD
ENDBRANCH  17  18
ENDBRANCH   6  17
ENDBRANCH   2   3
ENDBRANCH   1   2
BRANCH   1  25
HETATM   25  O2  UNL     1      22.190  31.979  17.129  1.00  0.00    -0.394 OA
ATOM     26  H2  UNL     1      21.726  31.810  17.941  1.00  0.00     0.210 HD
ENDBRANCH   1  25
BRANCH   1  27
HETATM   27  C18 UNL     1      21.175  33.824  16.181  1.00  0.00     0.047 C 
BRANCH  27  28
HETATM   28  C19 UNL     1      19.818  34.455  16.353  1.00  0.00     0.084 C 
BRANCH  28  29
HETATM   29  C20 UNL     1      18.723  33.515  16.602  1.00  0.00     0.052 C 
BRANCH  29  30
HETATM   30  C21 UNL     1      17.547  33.630  15.729  1.00  0.00    -0.057 A 
HETATM   31  C22 UNL     1      16.620  32.583  15.792  1.00  0.00     0.007 A 
HETATM   32  C23 UNL     1      15.456  32.593  15.048  1.00  0.00     0.001 A 
HETATM   33  C24 UNL     1      15.168  33.648  14.209  1.00  0.00     0.000 A 
HETATM   34  C25 UNL     1      16.075  34.682  14.141  1.00  0.00     0.001 A 
HETATM   35  C26 UNL     1      17.255  34.676  14.895  1.00  0.00     0.007 A 
ENDBRANCH  29  30
ENDBRANCH  28  29
BRANCH  28  36
HETATM   36  C27 UNL     1      19.838  35.588  17.280  1.00  0.00     0.222 C 
HETATM   37  O3  UNL     1      20.700  35.701  18.161  1.00  0.00    -0.273 OA
HETATM   38  N5  UNL     1      18.865  36.631  17.225  1.00  0.00    -0.350 N 
ATOM     39  H5  UNL     1      18.130  36.592  16.519  1.00  0.00     0.163 HD
BRANCH  38  40
HETATM   40  C28 UNL     1      18.899  37.730  18.142  1.00  0.00     0.147 C 
HETATM   41  C29 UNL     1      19.410  38.971  17.542  1.00  0.00    -0.027 A 
HETATM   42  C30 UNL     1      20.692  39.428  17.363  1.00  0.00     0.010 A 
HETATM   43  C34 UNL     1      18.350  39.734  17.119  1.00  0.00    -0.047 A 
HETATM   44  C31 UNL     1      20.927  40.641  16.765  1.00  0.00     0.001 A 
HETATM   45  C32 UNL     1      19.846  41.395  16.345  1.00  0.00     0.001 A 
HETATM   46  C33 UNL     1      18.531  40.961  16.511  1.00  0.00     0.008 A 
HETATM   47  C35 UNL     1      17.065  39.031  17.421  1.00  0.00     0.073 C 
HETATM   48  C36 UNL     1      17.467  38.070  18.520  1.00  0.00     0.149 C 
BRANCH  48  49
HETATM   49  O4  UNL     1      16.712  36.921  18.378  1.00  0.00    -0.393 OA
ATOM     50  H4  UNL     1      17.276  36.249  18.014  1.00  0.00     0.210 HD
ENDBRANCH  48  49
ENDBRANCH  38  40
ENDBRANCH  28  36
ENDBRANCH  27  28
ENDBRANCH   1  27
TORSDOF 14
ENDMDL
