MODEL 3
REMARK VINA RESULT: -9.757672317      1.799      5.787
REMARK  14 active torsions:
REMARK  status: ('A' for Active; 'I' for Inactive)
REMARK    1  A    between atoms: C2_2  and  N1_5 
REMARK       I    between atoms: N1_5  and  C5_7 
REMARK    2  A    between atoms: C5_7  and  C6_9 
REMARK    3  A    between atoms: N2_11  and  C8_12 
REMARK    4  A    between atoms: C8_12  and  C9_13 
REMARK    5  A    between atoms: N4_22  and  C16_23 
REMARK    6  A    between atoms: C16_23  and  C17_24 
REMARK    7  A    between atoms: C17_24  and  O2_25 
REMARK    8  A    between atoms: C17_24  and  C18_27 
REMARK    9  A    between atoms: C18_27  and  C19_28 
REMARK   10  A    between atoms: C19_28  and  C20_29 
REMARK   11  A    between atoms: C19_28  and  C27_36 
REMARK   12  A    between atoms: C20_29  and  C21_30 
REMARK       I    between atoms: C27_36  and  N5_38 
REMARK   13  A    between atoms: N5_38  and  C28_40 
REMARK   14  A    between atoms: C36_48  and  O4_49 
ROOT
HETATM    1  C17 UNL     1      21.818  29.435  14.646  1.00  0.00     0.147 C 
ENDROOT
BRANCH   1   2
HETATM    2  C16 UNL     1      20.953  30.642  14.412  1.00  0.00     0.305 C 
BRANCH   2   3
HETATM    3  N4  UNL     1      21.093  31.698  15.354  1.00  0.00     0.108 N 
HETATM    4  C6  UNL     1      20.858  33.023  14.899  1.00  0.00     0.342 C 
HETATM    5  C7  UNL     1      19.431  33.436  14.862  1.00  0.00     0.318 C 
HETATM    6  N2  UNL     1      18.615  33.030  15.959  1.00  0.00     0.097 N 
HETATM    7  C14 UNL     1      18.833  31.638  16.303  1.00  0.00     0.303 C 
HETATM    8  C15 UNL     1      20.284  31.377  16.517  1.00  0.00     0.303 C 
BRANCH   4   9
HETATM    9  C5  UNL     1      21.714  33.956  15.723  1.00  0.00     0.253 C 
HETATM   10  N1  UNL     1      21.238  35.257  16.037  1.00  0.00    -0.351 N 
ATOM     11  H1  UNL     1      20.320  35.557  15.709  1.00  0.00     0.163 HD
HETATM   12  O1  UNL     1      22.847  33.592  16.133  1.00  0.00    -0.271 OA
BRANCH  10  13
HETATM   13  C2  UNL     1      22.056  36.157  16.822  1.00  0.00     0.022 C 
HETATM   14  C1  UNL     1      22.484  35.513  18.117  1.00  0.00     0.037 C 
HETATM   15  C3  UNL     1      21.233  37.389  17.170  1.00  0.00     0.037 C 
HETATM   16  C4  UNL     1      23.291  36.597  16.047  1.00  0.00     0.037 C 
ENDBRANCH  10  13
ENDBRANCH   4   9
BRANCH   6  17
HETATM   17  C8  UNL     1      18.648  33.890  17.105  1.00  0.00     0.312 C 
BRANCH  17  18
HETATM   18  C9  UNL     1      17.417  34.760  17.093  1.00  0.00    -0.015 A 
HETATM   19  C10 UNL     1      16.177  34.223  16.847  1.00  0.00     0.011 A 
HETATM   20  C11 UNL     1      15.067  35.025  16.839  1.00  0.00     0.018 A 
HETATM   21  C12 UNL     1      15.201  36.370  17.079  1.00  0.00     0.087 A 
HETATM   22  N3  UNL     1      16.413  36.899  17.320  1.00  0.00    -0.375 N 
HETATM   23  C13 UNL     1      17.512  36.113  17.329  1.00  0.00     0.096 A 
ATOM     24  H3  UNL     1      16.503  37.899  17.497  1.00  0.00     0.164 HD
ENDBRANCH  17  18
ENDBRANCH   6  17
ENDBRANCH   2   3
ENDBRANCH   1   2
BRANCH   1  25
HETATM   25  O2  UNL     1      21.052  28.586  15.490  1.00  0.00    -0.394 OA
ATOM     26  H2  UNL     1      21.431  28.688  16.355  1.00  0.00     0.210 HD
ENDBRANCH   1  25
BRANCH   1  27
HETATM   27  C18 UNL     1      21.973  28.641  13.372  1.00  0.00     0.047 C 
BRANCH  27  28
HETATM   28  C19 UNL     1      21.627  29.389  12.112  1.00  0.00     0.084 C 
BRANCH  28  29
HETATM   29  C20 UNL     1      22.638  29.323  11.054  1.00  0.00     0.052 C 
BRANCH  29  30
HETATM   30  C21 UNL     1      23.907  28.668  11.398  1.00  0.00    -0.057 A 
HETATM   31  C22 UNL     1      24.133  27.410  10.826  1.00  0.00     0.007 A 
HETATM   32  C23 UNL     1      25.304  26.709  11.043  1.00  0.00     0.001 A 
HETATM   33  C24 UNL     1      26.298  27.233  11.840  1.00  0.00     0.000 A 
HETATM   34  C25 UNL     1      26.084  28.470  12.407  1.00  0.00     0.001 A 
HETATM   35  C26 UNL     1      24.899  29.184  12.188  1.00  0.00     0.007 A 
ENDBRANCH  29  30
ENDBRANCH  28  29
BRANCH  28  36
HETATM   36  C27 UNL     1      20.270  29.102  11.642  1.00  0.00     0.222 C 
HETATM   37  O3  UNL     1      19.345  29.912  11.776  1.00  0.00    -0.273 OA
HETATM   38  N5  UNL     1      19.933  27.872  11.001  1.00  0.00    -0.350 N 
ATOM     39  H5  UNL     1      20.656  27.166  10.861  1.00  0.00     0.163 HD
BRANCH  38  40
HETATM   40  C28 UNL     1      18.601  27.609  10.549  1.00  0.00     0.147 C 
HETATM   41  C29 UNL     1      18.540  27.154   9.152  1.00  0.00    -0.027 A 
HETATM   42  C30 UNL     1      18.514  27.855   7.973  1.00  0.00     0.010 A 
HETATM   43  C34 UNL     1      18.508  25.781   9.129  1.00  0.00    -0.047 A 
HETATM   44  C31 UNL     1      18.456  27.200   6.769  1.00  0.00     0.001 A 
HETATM   45  C32 UNL     1      18.425  25.817   6.766  1.00  0.00     0.001 A 
HETATM   46  C33 UNL     1      18.450  25.073   7.945  1.00  0.00     0.008 A 
HETATM   47  C35 UNL     1      18.545  25.248  10.526  1.00  0.00     0.073 C 
HETATM   48  C36 UNL     1      18.061  26.429  11.341  1.00  0.00     0.149 C 
BRANCH  48  49
HETATM   49  O4  UNL     1      18.719  26.405  12.557  1.00  0.00    -0.393 OA
ATOM     50  H4  UNL     1      18.967  25.505  12.732  1.00  0.00     0.210 HD
ENDBRANCH  48  49
ENDBRANCH  38  40
ENDBRANCH  28  36
ENDBRANCH  27  28
ENDBRANCH   1  27
TORSDOF 14
ENDMDL
