MODEL 2
REMARK VINA RESULT: -9.784035511      3.397     10.990
REMARK  14 active torsions:
REMARK  status: ('A' for Active; 'I' for Inactive)
REMARK    1  A    between atoms: C2_2  and  N1_5 
REMARK       I    between atoms: N1_5  and  C5_7 
REMARK    2  A    between atoms: C5_7  and  C6_9 
REMARK    3  A    between atoms: N2_11  and  C8_12 
REMARK    4  A    between atoms: C8_12  and  C9_13 
REMARK    5  A    between atoms: N4_22  and  C16_23 
REMARK    6  A    between atoms: C16_23  and  C17_24 
REMARK    7  A    between atoms: C17_24  and  O2_25 
REMARK    8  A    between atoms: C17_24  and  C18_27 
REMARK    9  A    between atoms: C18_27  and  C19_28 
REMARK   10  A    between atoms: C19_28  and  C20_29 
REMARK   11  A    between atoms: C19_28  and  C27_36 
REMARK   12  A    between atoms: C20_29  and  C21_30 
REMARK       I    between atoms: C27_36  and  N5_38 
REMARK   13  A    between atoms: N5_38  and  C28_40 
REMARK   14  A    between atoms: C36_48  and  O4_49 
ROOT
HETATM    1  C17 UNL     1      22.362  37.159  16.536  1.00  0.00     0.147 C 
ENDROOT
BRANCH   1   2
HETATM    2  C16 UNL     1      22.457  35.740  16.049  1.00  0.00     0.305 C 
BRANCH   2   3
HETATM    3  N4  UNL     1      21.363  34.895  16.384  1.00  0.00     0.108 N 
HETATM    4  C6  UNL     1      20.590  34.364  15.316  1.00  0.00     0.342 C 
HETATM    5  C7  UNL     1      21.151  33.147  14.673  1.00  0.00     0.318 C 
HETATM    6  N2  UNL     1      21.722  32.168  15.538  1.00  0.00     0.097 N 
HETATM    7  C14 UNL     1      22.581  32.772  16.539  1.00  0.00     0.303 C 
HETATM    8  C15 UNL     1      21.853  33.850  17.266  1.00  0.00     0.303 C 
BRANCH   4   9
HETATM    9  C5  UNL     1      19.180  34.161  15.820  1.00  0.00     0.253 C 
HETATM   10  N1  UNL     1      18.098  34.148  14.901  1.00  0.00    -0.351 N 
ATOM     11  H1  UNL     1      18.274  34.271  13.903  1.00  0.00     0.163 HD
HETATM   12  O1  UNL     1      18.955  34.007  17.049  1.00  0.00    -0.271 OA
BRANCH  10  13
HETATM   13  C2  UNL     1      16.745  33.960  15.378  1.00  0.00     0.022 C 
HETATM   14  C1  UNL     1      16.471  32.507  15.680  1.00  0.00     0.037 C 
HETATM   15  C3  UNL     1      15.776  34.393  14.288  1.00  0.00     0.037 C 
HETATM   16  C4  UNL     1      16.480  34.790  16.627  1.00  0.00     0.037 C 
ENDBRANCH  10  13
ENDBRANCH   4   9
BRANCH   6  17
HETATM   17  C8  UNL     1      20.800  31.227  16.102  1.00  0.00     0.312 C 
BRANCH  17  18
HETATM   18  C9  UNL     1      20.354  30.278  15.019  1.00  0.00    -0.015 A 
HETATM   19  C10 UNL     1      19.101  30.379  14.465  1.00  0.00     0.011 A 
HETATM   20  C11 UNL     1      18.709  29.511  13.482  1.00  0.00     0.018 A 
HETATM   21  C12 UNL     1      19.575  28.536  13.054  1.00  0.00     0.087 A 
HETATM   22  N3  UNL     1      20.802  28.434  13.594  1.00  0.00    -0.375 N 
HETATM   23  C13 UNL     1      21.196  29.288  14.564  1.00  0.00     0.096 A 
ATOM     24  H3  UNL     1      21.440  27.707  13.269  1.00  0.00     0.164 HD
ENDBRANCH  17  18
ENDBRANCH   6  17
ENDBRANCH   2   3
ENDBRANCH   1   2
BRANCH   1  25
HETATM   25  O2  UNL     1      23.589  37.404  17.210  1.00  0.00    -0.394 OA
ATOM     26  H2  UNL     1      23.342  37.771  18.050  1.00  0.00     0.210 HD
ENDBRANCH   1  25
BRANCH   1  27
HETATM   27  C18 UNL     1      22.386  38.120  15.373  1.00  0.00     0.047 C 
BRANCH  27  28
HETATM   28  C19 UNL     1      21.986  39.532  15.707  1.00  0.00     0.084 C 
BRANCH  28  29
HETATM   29  C20 UNL     1      21.489  40.321  14.577  1.00  0.00     0.052 C 
BRANCH  29  30
HETATM   30  C21 UNL     1      22.450  40.607  13.503  1.00  0.00    -0.057 A 
HETATM   31  C22 UNL     1      22.143  40.088  12.239  1.00  0.00     0.007 A 
HETATM   32  C23 UNL     1      22.948  40.318  11.140  1.00  0.00     0.001 A 
HETATM   33  C24 UNL     1      24.093  41.076  11.255  1.00  0.00     0.000 A 
HETATM   34  C25 UNL     1      24.403  41.589  12.495  1.00  0.00     0.001 A 
HETATM   35  C26 UNL     1      23.589  41.359  13.611  1.00  0.00     0.007 A 
ENDBRANCH  29  30
ENDBRANCH  28  29
BRANCH  28  36
HETATM   36  C27 UNL     1      21.130  39.609  16.893  1.00  0.00     0.222 C 
HETATM   37  O3  UNL     1      21.579  39.901  18.008  1.00  0.00    -0.273 OA
HETATM   38  N5  UNL     1      19.727  39.351  16.835  1.00  0.00    -0.350 N 
ATOM     39  H5  UNL     1      19.301  39.106  15.941  1.00  0.00     0.163 HD
BRANCH  38  40
HETATM   40  C28 UNL     1      18.907  39.428  18.005  1.00  0.00     0.147 C 
HETATM   41  C29 UNL     1      17.940  40.536  17.964  1.00  0.00    -0.027 A 
HETATM   42  C30 UNL     1      18.069  41.861  18.293  1.00  0.00     0.010 A 
HETATM   43  C34 UNL     1      16.736  40.061  17.506  1.00  0.00    -0.047 A 
HETATM   44  C31 UNL     1      17.006  42.721  18.169  1.00  0.00     0.001 A 
HETATM   45  C32 UNL     1      15.801  42.225  17.705  1.00  0.00     0.001 A 
HETATM   46  C33 UNL     1      15.635  40.883  17.362  1.00  0.00     0.008 A 
HETATM   47  C35 UNL     1      16.842  38.598  17.217  1.00  0.00     0.073 C 
HETATM   48  C36 UNL     1      18.036  38.184  18.052  1.00  0.00     0.149 C 
BRANCH  48  49
HETATM   49  O4  UNL     1      18.703  37.181  17.373  1.00  0.00    -0.393 OA
ATOM     50  H4  UNL     1      18.675  36.400  17.914  1.00  0.00     0.210 HD
ENDBRANCH  48  49
ENDBRANCH  38  40
ENDBRANCH  28  36
ENDBRANCH  27  28
ENDBRANCH   1  27
TORSDOF 14
ENDMDL
