MODEL 1
REMARK VINA RESULT: -10.129660538      0.000      0.000
REMARK  14 active torsions:
REMARK  status: ('A' for Active; 'I' for Inactive)
REMARK    1  A    between atoms: C2_2  and  N1_5 
REMARK       I    between atoms: N1_5  and  C5_7 
REMARK    2  A    between atoms: C5_7  and  C6_9 
REMARK    3  A    between atoms: N2_11  and  C8_12 
REMARK    4  A    between atoms: C8_12  and  C9_13 
REMARK    5  A    between atoms: N4_22  and  C16_23 
REMARK    6  A    between atoms: C16_23  and  C17_24 
REMARK    7  A    between atoms: C17_24  and  O2_25 
REMARK    8  A    between atoms: C17_24  and  C18_27 
REMARK    9  A    between atoms: C18_27  and  C19_28 
REMARK   10  A    between atoms: C19_28  and  C20_29 
REMARK   11  A    between atoms: C19_28  and  C27_36 
REMARK   12  A    between atoms: C20_29  and  C21_30 
REMARK       I    between atoms: C27_36  and  N5_38 
REMARK   13  A    between atoms: N5_38  and  C28_40 
REMARK   14  A    between atoms: C36_48  and  O4_49 
ROOT
HETATM    1  C17 UNL     1      21.011  30.132  15.463  1.00  0.00     0.147 C 
ENDROOT
BRANCH   1   2
HETATM    2  C16 UNL     1      21.687  31.473  15.512  1.00  0.00     0.305 C 
BRANCH   2   3
HETATM    3  N4  UNL     1      20.825  32.603  15.536  1.00  0.00     0.108 N 
HETATM    4  C6  UNL     1      20.545  33.192  16.799  1.00  0.00     0.342 C 
HETATM    5  C7  UNL     1      21.572  34.143  17.296  1.00  0.00     0.318 C 
HETATM    6  N2  UNL     1      22.141  35.033  16.338  1.00  0.00     0.097 N 
HETATM    7  C14 UNL     1      22.498  34.345  15.111  1.00  0.00     0.303 C 
HETATM    8  C15 UNL     1      21.332  33.580  14.588  1.00  0.00     0.303 C 
BRANCH   4   9
HETATM    9  C5  UNL     1      19.166  33.806  16.730  1.00  0.00     0.253 C 
HETATM   10  N1  UNL     1      18.139  33.151  15.999  1.00  0.00    -0.351 N 
ATOM     11  H1  UNL     1      18.332  32.268  15.527  1.00  0.00     0.163 HD
HETATM   12  O1  UNL     1      18.919  34.894  17.311  1.00  0.00    -0.271 OA
BRANCH  10  13
HETATM   13  C2  UNL     1      16.818  33.737  15.924  1.00  0.00     0.022 C 
HETATM   14  C1  UNL     1      16.417  34.346  17.244  1.00  0.00     0.037 C 
HETATM   15  C3  UNL     1      15.813  32.641  15.600  1.00  0.00     0.037 C 
HETATM   16  C4  UNL     1      16.747  34.802  14.838  1.00  0.00     0.037 C 
ENDBRANCH  10  13
ENDBRANCH   4   9
BRANCH   6  17
HETATM   17  C8  UNL     1      21.402  36.237  16.096  1.00  0.00     0.312 C 
BRANCH  17  18
HETATM   18  C9  UNL     1      22.280  37.418  16.422  1.00  0.00    -0.015 A 
HETATM   19  C10 UNL     1      23.279  37.317  17.359  1.00  0.00     0.011 A 
HETATM   20  C11 UNL     1      24.069  38.397  17.645  1.00  0.00     0.018 A 
HETATM   21  C12 UNL     1      23.856  39.585  16.990  1.00  0.00     0.087 A 
HETATM   22  N3  UNL     1      22.880  39.688  16.072  1.00  0.00    -0.375 N 
HETATM   23  C13 UNL     1      22.096  38.625  15.785  1.00  0.00     0.096 A 
ATOM     24  H3  UNL     1      22.728  40.573  15.590  1.00  0.00     0.164 HD
ENDBRANCH  17  18
ENDBRANCH   6  17
ENDBRANCH   2   3
ENDBRANCH   1   2
BRANCH   1  25
HETATM   25  O2  UNL     1      20.541  29.903  16.784  1.00  0.00    -0.394 OA
ATOM     26  H2  UNL     1      20.602  28.964  16.911  1.00  0.00     0.210 HD
ENDBRANCH   1  25
BRANCH   1  27
HETATM   27  C18 UNL     1      19.751  30.205  14.635  1.00  0.00     0.047 C 
BRANCH  27  28
HETATM   28  C19 UNL     1      19.642  29.165  13.551  1.00  0.00     0.084 C 
BRANCH  28  29
HETATM   29  C20 UNL     1      18.292  28.959  13.022  1.00  0.00     0.052 C 
BRANCH  29  30
HETATM   30  C21 UNL     1      18.140  27.916  11.999  1.00  0.00    -0.057 A 
HETATM   31  C22 UNL     1      18.283  26.592  12.433  1.00  0.00     0.007 A 
HETATM   32  C23 UNL     1      18.127  25.521  11.574  1.00  0.00     0.001 A 
HETATM   33  C24 UNL     1      17.821  25.726  10.246  1.00  0.00     0.000 A 
HETATM   34  C25 UNL     1      17.679  27.025   9.811  1.00  0.00     0.001 A 
HETATM   35  C26 UNL     1      17.835  28.113  10.678  1.00  0.00     0.007 A 
ENDBRANCH  29  30
ENDBRANCH  28  29
BRANCH  28  36
HETATM   36  C27 UNL     1      20.658  29.329  12.510  1.00  0.00     0.222 C 
HETATM   37  O3  UNL     1      20.829  30.404  11.923  1.00  0.00    -0.273 OA
HETATM   38  N5  UNL     1      21.515  28.258  12.110  1.00  0.00    -0.350 N 
ATOM     39  H5  UNL     1      21.421  27.349  12.561  1.00  0.00     0.163 HD
BRANCH  38  40
HETATM   40  C28 UNL     1      22.501  28.437  11.089  1.00  0.00     0.147 C 
HETATM   41  C29 UNL     1      23.877  28.447  11.607  1.00  0.00    -0.027 A 
HETATM   42  C30 UNL     1      24.635  29.459  12.142  1.00  0.00     0.010 A 
HETATM   43  C34 UNL     1      24.408  27.186  11.494  1.00  0.00    -0.047 A 
HETATM   44  C31 UNL     1      25.919  29.224  12.565  1.00  0.00     0.001 A 
HETATM   45  C32 UNL     1      26.436  27.947  12.443  1.00  0.00     0.001 A 
HETATM   46  C33 UNL     1      25.694  26.896  11.905  1.00  0.00     0.008 A 
HETATM   47  C35 UNL     1      23.401  26.263  10.886  1.00  0.00     0.073 C 
HETATM   48  C36 UNL     1      22.462  27.220  10.181  1.00  0.00     0.149 C 
BRANCH  48  49
HETATM   49  O4  UNL     1      21.187  26.690  10.245  1.00  0.00    -0.393 OA
ATOM     50  H4  UNL     1      21.138  25.979   9.616  1.00  0.00     0.210 HD
ENDBRANCH  48  49
ENDBRANCH  38  40
ENDBRANCH  28  36
ENDBRANCH  27  28
ENDBRANCH   1  27
TORSDOF 14
ENDMDL
