MODEL 3
REMARK VINA RESULT: -8.542783059      1.349      1.548
REMARK  6 active torsions:
REMARK  status: ('A' for Active; 'I' for Inactive)
REMARK    1  A    between atoms: C2_2  and  O1_3 
REMARK    2  A    between atoms: C2_2  and  C3_5 
REMARK    3  A    between atoms: C2_2  and  C4_7 
REMARK       I    between atoms: C4_7  and  N1_9 
REMARK    4  A    between atoms: N1_9  and  C5_11 
REMARK    5  A    between atoms: C8_14  and  N2_15 
REMARK    6  A    between atoms: C9_18  and  C10_19 
ROOT
HETATM    1  C5  UNL     1      27.750   3.852   3.782  1.00  0.00     0.035 A 
HETATM    2  C6  UNL     1      28.133   5.158   3.637  1.00  0.00     0.032 A 
HETATM    3  C7  UNL     1      27.177   6.147   3.629  1.00  0.00     0.039 A 
HETATM    4  C8  UNL     1      25.811   5.875   3.763  1.00  0.00     0.118 A 
HETATM    5  C9  UNL     1      25.409   4.567   3.909  1.00  0.00     0.083 A 
HETATM    6  C11 UNL     1      26.379   3.597   3.915  1.00  0.00     0.048 A 
ENDROOT
BRANCH   1   7
HETATM    7  N1  UNL     1      28.611   2.752   3.825  1.00  0.00    -0.325 N 
HETATM    8  C4  UNL     1      29.215   2.184   4.954  1.00  0.00     0.257 C 
HETATM    9  O2  UNL     1      29.010   2.654   6.091  1.00  0.00    -0.270 OA
ATOM     10  H1  UNL     1      28.825   2.312   2.930  1.00  0.00     0.169 HD
BRANCH   8  11
HETATM   11  C2  UNL     1      30.134   0.999   4.906  1.00  0.00     0.144 C 
HETATM   12  C1  UNL     1      31.431   1.258   5.608  1.00  0.00     0.057 C 
BRANCH  11  13
HETATM   13  O1  UNL     1      29.463  -0.065   5.468  1.00  0.00    -0.380 OA
ATOM     14  H1  UNL     1      30.065  -0.737   5.764  1.00  0.00     0.211 HD
ENDBRANCH  11  13
BRANCH  11  15
HETATM   15  C3  UNL     1      30.385   0.712   3.438  1.00  0.00     0.132 C 
HETATM   16 BR1  UNL     1      29.392  -0.850   2.868  1.00  0.00    -0.093 Br
ENDBRANCH  11  15
ENDBRANCH   8  11
ENDBRANCH   1   7
BRANCH   5  17
HETATM   17  C10 UNL     1      23.968   4.236   4.071  1.00  0.00     0.419 C 
HETATM   18  F1  UNL     1      23.483   4.462   5.332  1.00  0.00    -0.166 F 
HETATM   19  F2  UNL     1      23.206   4.884   3.096  1.00  0.00    -0.166 F 
HETATM   20  F3  UNL     1      23.830   2.881   3.797  1.00  0.00    -0.166 F 
ENDBRANCH   5  17
BRANCH   4  21
HETATM   21  N2  UNL     1      24.920   6.975   3.722  1.00  0.00    -0.115 N 
HETATM   22  O3  UNL     1      24.307   7.468   4.663  1.00  0.00    -0.532 OA
HETATM   23  O4  UNL     1      24.708   7.582   2.485  1.00  0.00    -0.532 OA
ENDBRANCH   4  21
TORSDOF 6
ENDMDL
