MODEL 7
REMARK VINA RESULT: -6.053344132      4.330      7.296
REMARK  6 active torsions:
REMARK  status: ('A' for Active; 'I' for Inactive)
REMARK    1  A    between atoms: C2_2  and  O1_3 
REMARK    2  A    between atoms: C2_2  and  C3_5 
REMARK    3  A    between atoms: C2_2  and  C4_7 
REMARK       I    between atoms: C4_7  and  N1_9 
REMARK    4  A    between atoms: N1_9  and  C5_11 
REMARK    5  A    between atoms: C8_14  and  N2_15 
REMARK    6  A    between atoms: C9_18  and  C10_19 
ROOT
HETATM    1  C5  UNL     1      27.451   2.264   3.696  1.00  0.00     0.035 A 
HETATM    2  C6  UNL     1      27.336   1.430   2.617  1.00  0.00     0.032 A 
HETATM    3  C7  UNL     1      28.255   0.422   2.439  1.00  0.00     0.039 A 
HETATM    4  C8  UNL     1      29.319   0.209   3.323  1.00  0.00     0.118 A 
HETATM    5  C9  UNL     1      29.450   1.040   4.413  1.00  0.00     0.083 A 
HETATM    6  C11 UNL     1      28.521   2.038   4.570  1.00  0.00     0.048 A 
ENDROOT
BRANCH   1   7
HETATM    7  N1  UNL     1      26.582   3.313   4.008  1.00  0.00    -0.325 N 
HETATM    8  C4  UNL     1      25.216   3.230   4.308  1.00  0.00     0.257 C 
HETATM    9  O2  UNL     1      24.632   2.129   4.321  1.00  0.00    -0.270 OA
ATOM     10  H1  UNL     1      26.990   4.248   4.019  1.00  0.00     0.169 HD
BRANCH   8  11
HETATM   11  C2  UNL     1      24.356   4.417   4.630  1.00  0.00     0.144 C 
HETATM   12  C1  UNL     1      23.287   4.637   3.605  1.00  0.00     0.057 C 
BRANCH  11  13
HETATM   13  O1  UNL     1      23.816   4.207   5.880  1.00  0.00    -0.380 OA
ATOM     14  H1  UNL     1      24.351   3.612   6.393  1.00  0.00     0.211 HD
ENDBRANCH  11  13
BRANCH  11  15
HETATM   15  C3  UNL     1      25.283   5.616   4.681  1.00  0.00     0.132 C 
HETATM   16 BR1  UNL     1      24.915   6.827   3.216  1.00  0.00    -0.093 Br
ENDBRANCH  11  15
ENDBRANCH   8  11
ENDBRANCH   1   7
BRANCH   5  17
HETATM   17  C10 UNL     1      30.557   0.838   5.384  1.00  0.00     0.419 C 
HETATM   18  F1  UNL     1      31.118  -0.411   5.337  1.00  0.00    -0.166 F 
HETATM   19  F2  UNL     1      31.515   1.845   5.250  1.00  0.00    -0.166 F 
HETATM   20  F3  UNL     1      30.020   1.016   6.653  1.00  0.00    -0.166 F 
ENDBRANCH   5  17
BRANCH   4  21
HETATM   21  N2  UNL     1      30.212  -0.849   3.025  1.00  0.00    -0.115 N 
HETATM   22  O3  UNL     1      31.212  -0.798   2.317  1.00  0.00    -0.532 OA
HETATM   23  O4  UNL     1      29.945  -2.093   3.596  1.00  0.00    -0.532 OA
ENDBRANCH   4  21
TORSDOF 6
ENDMDL
