MODEL 13
REMARK VINA RESULT: -4.557182641      1.237      1.456
REMARK  6 active torsions:
REMARK  status: ('A' for Active; 'I' for Inactive)
REMARK    1  A    between atoms: C2_2  and  O1_3 
REMARK    2  A    between atoms: C2_2  and  C3_5 
REMARK    3  A    between atoms: C2_2  and  C4_7 
REMARK       I    between atoms: C4_7  and  N1_9 
REMARK    4  A    between atoms: N1_9  and  C5_11 
REMARK    5  A    between atoms: C8_14  and  N2_15 
REMARK    6  A    between atoms: C9_18  and  C10_19 
ROOT
HETATM    1  C5  UNL     1      28.072   3.150   4.107  1.00  0.00     0.035 A 
HETATM    2  C6  UNL     1      28.445   4.345   3.555  1.00  0.00     0.032 A 
HETATM    3  C7  UNL     1      27.495   5.315   3.335  1.00  0.00     0.039 A 
HETATM    4  C8  UNL     1      26.144   5.132   3.653  1.00  0.00     0.118 A 
HETATM    5  C9  UNL     1      25.752   3.934   4.208  1.00  0.00     0.083 A 
HETATM    6  C11 UNL     1      26.717   2.982   4.419  1.00  0.00     0.048 A 
ENDROOT
BRANCH   1   7
HETATM    7  N1  UNL     1      28.931   2.086   4.400  1.00  0.00    -0.325 N 
HETATM    8  C4  UNL     1      29.470   1.744   5.647  1.00  0.00     0.257 C 
HETATM    9  O2  UNL     1      29.200   2.413   6.664  1.00  0.00    -0.270 OA
ATOM     10  H1  UNL     1      29.196   1.491   3.615  1.00  0.00     0.169 HD
BRANCH   8  11
HETATM   11  C2  UNL     1      30.392   0.581   5.870  1.00  0.00     0.144 C 
HETATM   12  C1  UNL     1      30.361   0.096   7.286  1.00  0.00     0.057 C 
BRANCH  11  13
HETATM   13  O1  UNL     1      30.020  -0.413   4.991  1.00  0.00    -0.380 OA
ATOM     14  H1  UNL     1      29.206  -0.825   5.258  1.00  0.00     0.211 HD
ENDBRANCH  11  13
BRANCH  11  15
HETATM   15  C3  UNL     1      31.785   1.065   5.515  1.00  0.00     0.132 C 
HETATM   16 BR1  UNL     1      32.087   2.846   6.210  1.00  0.00    -0.093 Br
ENDBRANCH  11  15
ENDBRANCH   8  11
ENDBRANCH   1   7
BRANCH   5  17
HETATM   17  C10 UNL     1      24.330   3.705   4.575  1.00  0.00     0.419 C 
HETATM   18  F1  UNL     1      23.759   4.743   5.265  1.00  0.00    -0.166 F 
HETATM   19  F2  UNL     1      23.584   3.357   3.447  1.00  0.00    -0.166 F 
HETATM   20  F3  UNL     1      24.298   2.582   5.392  1.00  0.00    -0.166 F 
ENDBRANCH   5  17
BRANCH   4  21
HETATM   21  N2  UNL     1      25.256   6.196   3.364  1.00  0.00    -0.115 N 
HETATM   22  O3  UNL     1      24.055   6.248   3.610  1.00  0.00    -0.532 OA
HETATM   23  O4  UNL     1      25.788   7.321   2.734  1.00  0.00    -0.532 OA
ENDBRANCH   4  21
TORSDOF 6
ENDMDL
