MODEL 2
REMARK VINA RESULT: -8.556278954      1.152      1.242
REMARK  6 active torsions:
REMARK  status: ('A' for Active; 'I' for Inactive)
REMARK    1  A    between atoms: C2_2  and  O1_3 
REMARK    2  A    between atoms: C2_2  and  C3_5 
REMARK    3  A    between atoms: C2_2  and  C4_7 
REMARK       I    between atoms: C4_7  and  N1_9 
REMARK    4  A    between atoms: N1_9  and  C5_11 
REMARK    5  A    between atoms: C8_14  and  N2_15 
REMARK    6  A    between atoms: C9_18  and  C10_19 
ROOT
HETATM    1  C5  UNL     1      27.763   4.017   3.855  1.00  0.00     0.035 A 
HETATM    2  C6  UNL     1      28.103   5.330   3.675  1.00  0.00     0.032 A 
HETATM    3  C7  UNL     1      27.116   6.286   3.637  1.00  0.00     0.039 A 
HETATM    4  C8  UNL     1      25.758   5.974   3.775  1.00  0.00     0.118 A 
HETATM    5  C9  UNL     1      25.399   4.657   3.956  1.00  0.00     0.083 A 
HETATM    6  C11 UNL     1      26.401   3.720   3.991  1.00  0.00     0.048 A 
ENDROOT
BRANCH   1   7
HETATM    7  N1  UNL     1      28.660   2.947   3.931  1.00  0.00    -0.325 N 
HETATM    8  C4  UNL     1      28.561   1.703   3.295  1.00  0.00     0.257 C 
HETATM    9  O2  UNL     1      27.591   1.440   2.556  1.00  0.00    -0.270 OA
ATOM     10  H1  UNL     1      29.482   3.090   4.518  1.00  0.00     0.169 HD
BRANCH   8  11
HETATM   11  C2  UNL     1      29.575   0.607   3.437  1.00  0.00     0.144 C 
HETATM   12  C1  UNL     1      29.302  -0.541   2.516  1.00  0.00     0.057 C 
BRANCH  11  13
HETATM   13  O1  UNL     1      30.814   1.159   3.197  1.00  0.00    -0.380 OA
ATOM     14  H1  UNL     1      31.310   1.260   4.002  1.00  0.00     0.211 HD
ENDBRANCH  11  13
BRANCH  11  15
HETATM   15  C3  UNL     1      29.506   0.144   4.880  1.00  0.00     0.132 C 
HETATM   16 BR1  UNL     1      30.920   0.954   5.926  1.00  0.00    -0.093 Br
ENDBRANCH  11  15
ENDBRANCH   8  11
ENDBRANCH   1   7
BRANCH   5  17
HETATM   17  C10 UNL     1      23.969   4.284   4.123  1.00  0.00     0.419 C 
HETATM   18  F1  UNL     1      23.466   4.551   5.369  1.00  0.00    -0.166 F 
HETATM   19  F2  UNL     1      23.194   4.857   3.113  1.00  0.00    -0.166 F 
HETATM   20  F3  UNL     1      23.881   2.913   3.913  1.00  0.00    -0.166 F 
ENDBRANCH   5  17
BRANCH   4  21
HETATM   21  N2  UNL     1      24.832   7.042   3.701  1.00  0.00    -0.115 N 
HETATM   22  O3  UNL     1      24.221   7.559   4.631  1.00  0.00    -0.532 OA
HETATM   23  O4  UNL     1      24.577   7.583   2.441  1.00  0.00    -0.532 OA
ENDBRANCH   4  21
TORSDOF 6
ENDMDL
