MODEL 10
REMARK VINA RESULT: -5.457160272      3.914      7.010
REMARK  6 active torsions:
REMARK  status: ('A' for Active; 'I' for Inactive)
REMARK    1  A    between atoms: C2_2  and  O1_3 
REMARK    2  A    between atoms: C2_2  and  C3_5 
REMARK    3  A    between atoms: C2_2  and  C4_7 
REMARK       I    between atoms: C4_7  and  N1_9 
REMARK    4  A    between atoms: N1_9  and  C5_11 
REMARK    5  A    between atoms: C8_14  and  N2_15 
REMARK    6  A    between atoms: C9_18  and  C10_19 
ROOT
HETATM    1  C5  UNL     1      26.928   2.930   3.524  1.00  0.00     0.035 A 
HETATM    2  C6  UNL     1      26.893   1.974   2.546  1.00  0.00     0.032 A 
HETATM    3  C7  UNL     1      27.854   0.989   2.527  1.00  0.00     0.039 A 
HETATM    4  C8  UNL     1      28.881   0.922   3.476  1.00  0.00     0.118 A 
HETATM    5  C9  UNL     1      28.931   1.878   4.466  1.00  0.00     0.083 A 
HETATM    6  C11 UNL     1      27.961   2.849   4.464  1.00  0.00     0.048 A 
ENDROOT
BRANCH   1   7
HETATM    7  N1  UNL     1      26.009   3.974   3.673  1.00  0.00    -0.325 N 
HETATM    8  C4  UNL     1      26.159   5.307   3.270  1.00  0.00     0.257 C 
HETATM    9  O2  UNL     1      27.202   5.689   2.703  1.00  0.00    -0.270 OA
ATOM     10  H1  UNL     1      25.128   3.736   4.128  1.00  0.00     0.169 HD
BRANCH   8  11
HETATM   11  C2  UNL     1      25.116   6.366   3.476  1.00  0.00     0.144 C 
HETATM   12  C1  UNL     1      24.973   6.749   4.916  1.00  0.00     0.057 C 
BRANCH  11  13
HETATM   13  O1  UNL     1      25.471   7.448   2.701  1.00  0.00    -0.380 OA
ATOM     14  H1  UNL     1      25.660   7.188   1.807  1.00  0.00     0.211 HD
ENDBRANCH  11  13
BRANCH  11  15
HETATM   15  C3  UNL     1      23.812   5.788   2.959  1.00  0.00     0.132 C 
HETATM   16 BR1  UNL     1      23.087   4.506   4.216  1.00  0.00    -0.093 Br
ENDBRANCH  11  15
ENDBRANCH   8  11
ENDBRANCH   1   7
BRANCH   5  17
HETATM   17  C10 UNL     1      29.996   1.833   5.502  1.00  0.00     0.419 C 
HETATM   18  F1  UNL     1      29.887   0.776   6.367  1.00  0.00    -0.166 F 
HETATM   19  F2  UNL     1      31.258   1.891   4.907  1.00  0.00    -0.166 F 
HETATM   20  F3  UNL     1      29.890   3.003   6.243  1.00  0.00    -0.166 F 
ENDBRANCH   5  17
BRANCH   4  21
HETATM   21  N2  UNL     1      29.823  -0.127   3.343  1.00  0.00    -0.115 N 
HETATM   22  O3  UNL     1      29.975  -1.086   4.093  1.00  0.00    -0.532 OA
HETATM   23  O4  UNL     1      30.678  -0.086   2.242  1.00  0.00    -0.532 OA
ENDBRANCH   4  21
TORSDOF 6
ENDMDL
