MODEL 11
REMARK VINA RESULT: -4.730148467      3.865      6.999
REMARK  6 active torsions:
REMARK  status: ('A' for Active; 'I' for Inactive)
REMARK    1  A    between atoms: C2_2  and  O1_3 
REMARK    2  A    between atoms: C2_2  and  C3_5 
REMARK    3  A    between atoms: C2_2  and  C4_7 
REMARK       I    between atoms: C4_7  and  N1_9 
REMARK    4  A    between atoms: N1_9  and  C5_11 
REMARK    5  A    between atoms: C8_14  and  N2_15 
REMARK    6  A    between atoms: C9_18  and  C10_19 
ROOT
HETATM    1  C5  UNL     1      26.946   2.359   3.475  1.00  0.00     0.035 A 
HETATM    2  C6  UNL     1      27.001   1.457   2.448  1.00  0.00     0.032 A 
HETATM    3  C7  UNL     1      28.034   0.551   2.397  1.00  0.00     0.039 A 
HETATM    4  C8  UNL     1      29.048   0.508   3.361  1.00  0.00     0.118 A 
HETATM    5  C9  UNL     1      29.008   1.410   4.401  1.00  0.00     0.083 A 
HETATM    6  C11 UNL     1      27.968   2.304   4.432  1.00  0.00     0.048 A 
ENDROOT
BRANCH   1   7
HETATM    7  N1  UNL     1      25.949   3.320   3.661  1.00  0.00    -0.325 N 
HETATM    8  C4  UNL     1      26.020   4.690   3.376  1.00  0.00     0.257 C 
HETATM    9  O2  UNL     1      27.057   5.189   2.897  1.00  0.00    -0.270 OA
ATOM     10  H1  UNL     1      25.067   2.985   4.049  1.00  0.00     0.169 HD
BRANCH   8  11
HETATM   11  C2  UNL     1      24.895   5.654   3.612  1.00  0.00     0.144 C 
HETATM   12  C1  UNL     1      25.236   7.043   3.171  1.00  0.00     0.057 C 
BRANCH  11  13
HETATM   13  O1  UNL     1      23.791   5.171   2.942  1.00  0.00    -0.380 OA
ATOM     14  H1  UNL     1      23.300   5.874   2.532  1.00  0.00     0.211 HD
ENDBRANCH  11  13
BRANCH  11  15
HETATM   15  C3  UNL     1      24.620   5.635   5.104  1.00  0.00     0.132 C 
HETATM   16 BR1  UNL     1      24.047   3.874   5.670  1.00  0.00    -0.093 Br
ENDBRANCH  11  15
ENDBRANCH   8  11
ENDBRANCH   1   7
BRANCH   5  17
HETATM   17  C10 UNL     1      30.056   1.388   5.455  1.00  0.00     0.419 C 
HETATM   18  F1  UNL     1      31.336   1.360   4.967  1.00  0.00    -0.166 F 
HETATM   19  F2  UNL     1      29.865   2.439   6.356  1.00  0.00    -0.166 F 
HETATM   20  F3  UNL     1      29.858   0.233   6.200  1.00  0.00    -0.166 F 
ENDBRANCH   5  17
BRANCH   4  21
HETATM   21  N2  UNL     1      30.069  -0.458   3.193  1.00  0.00    -0.115 N 
HETATM   22  O3  UNL     1      30.217  -1.498   3.826  1.00  0.00    -0.532 OA
HETATM   23  O4  UNL     1      31.017  -0.222   2.198  1.00  0.00    -0.532 OA
ENDBRANCH   4  21
TORSDOF 6
ENDMDL
