MODEL 1
REMARK VINA RESULT: -6.384137787      0.000      0.000
REMARK  5 active torsions:
REMARK  status: ('A' for Active; 'I' for Inactive)
REMARK    1  A    between atoms: O1_2  and  C2_3 
REMARK    2  A    between atoms: C5_6  and  C6_7 
REMARK    3  A    between atoms: C6_7  and  C7_8 
REMARK    4  A    between atoms: C7_8  and  C8_9 
REMARK    5  A    between atoms: C10_13  and  O4_14 
ROOT
HETATM    1  C2  UNL     1      95.624  18.209  -0.455  1.00  0.00     0.101 A 
HETATM    2  C3  UNL     1      95.725  17.009  -1.123  1.00  0.00     0.040 A 
HETATM    3  C4  UNL     1      95.116  16.765  -2.339  1.00  0.00     0.010 A 
HETATM    4  C5  UNL     1      94.366  17.768  -2.927  1.00  0.00    -0.055 A 
HETATM    5  C9  UNL     1      94.269  18.975  -2.250  1.00  0.00     0.046 A 
HETATM    6  C10 UNL     1      94.876  19.216  -1.036  1.00  0.00     0.102 A 
ENDROOT
BRANCH   4   7
HETATM    7  C6  UNL     1      93.728  17.497  -4.208  1.00  0.00     0.049 C 
BRANCH   7   8
HETATM    8  C7  UNL     1      93.308  16.087  -4.443  1.00  0.00     0.117 C 
BRANCH   8   9
HETATM    9  C8  UNL     1      91.848  15.914  -4.181  1.00  0.00     0.172 C 
HETATM   10  O2  UNL     1      91.443  15.013  -3.384  1.00  0.00    -0.648 OA
HETATM   11  O3  UNL     1      90.893  16.736  -4.805  1.00  0.00    -0.648 OA
ENDBRANCH   8   9
ENDBRANCH   7   8
ENDBRANCH   4   7
BRANCH   6  12
HETATM   12  O4  UNL     1      94.744  20.428  -0.418  1.00  0.00    -0.353 OA
HETATM   13  C11 UNL     1      94.088  21.543  -0.926  1.00  0.00     0.210 C 
ENDBRANCH   6  12
BRANCH   1  14
HETATM   14  O1  UNL     1      96.260  18.424   0.787  1.00  0.00    -0.353 OA
HETATM   15  C1  UNL     1      97.143  17.401   1.248  1.00  0.00     0.210 C 
ENDBRANCH   1  14
TORSDOF 5
ENDMDL
