MODEL 2
REMARK VINA RESULT: -6.232295120      4.774      7.789
REMARK  5 active torsions:
REMARK  status: ('A' for Active; 'I' for Inactive)
REMARK    1  A    between atoms: O1_2  and  C2_3 
REMARK    2  A    between atoms: C5_6  and  C6_7 
REMARK    3  A    between atoms: C6_7  and  C7_8 
REMARK    4  A    between atoms: C7_8  and  C8_9 
REMARK    5  A    between atoms: C10_13  and  O4_14 
ROOT
HETATM    1  C2  UNL     1      87.991  18.690  -1.184  1.00  0.00     0.101 A 
HETATM    2  C3  UNL     1      87.500  19.672  -0.352  1.00  0.00     0.040 A 
HETATM    3  C4  UNL     1      88.093  20.911  -0.210  1.00  0.00     0.010 A 
HETATM    4  C5  UNL     1      89.237  21.195  -0.935  1.00  0.00    -0.055 A 
HETATM    5  C9  UNL     1      89.726  20.203  -1.772  1.00  0.00     0.046 A 
HETATM    6  C10 UNL     1      89.134  18.967  -1.912  1.00  0.00     0.102 A 
ENDROOT
BRANCH   4   7
HETATM    7  C6  UNL     1      89.853  22.505  -0.773  1.00  0.00     0.049 C 
BRANCH   7   8
HETATM    8  C7  UNL     1      90.847  22.892  -1.813  1.00  0.00     0.117 C 
BRANCH   8   9
HETATM    9  C8  UNL     1      92.074  23.472  -1.190  1.00  0.00     0.172 C 
HETATM   10  O2  UNL     1      91.978  24.408  -0.338  1.00  0.00    -0.648 OA
HETATM   11  O3  UNL     1      93.355  23.002  -1.529  1.00  0.00    -0.648 OA
ENDBRANCH   8   9
ENDBRANCH   7   8
ENDBRANCH   4   7
BRANCH   6  12
HETATM   12  O4  UNL     1      89.663  18.030  -2.754  1.00  0.00    -0.353 OA
HETATM   13  C11 UNL     1      90.967  18.000  -3.235  1.00  0.00     0.210 C 
ENDBRANCH   6  12
BRANCH   1  14
HETATM   14  O1  UNL     1      87.359  17.434  -1.305  1.00  0.00    -0.353 OA
HETATM   15  C1  UNL     1      86.085  17.287  -0.676  1.00  0.00     0.210 C 
ENDBRANCH   1  14
TORSDOF 5
ENDMDL
