MODEL 3
REMARK VINA RESULT: -11.655052614      1.497      2.526
REMARK  9 active torsions:
REMARK  status: ('A' for Active; 'I' for Inactive)
REMARK    1  A    between atoms: S1_2  and  C2_5 
REMARK    2  A    between atoms: C5_8  and  C6_9 
REMARK    3  A    between atoms: C11_14  and  O3_15 
REMARK    4  A    between atoms: C15_20  and  O4_21 
REMARK    5  A    between atoms: O4_21  and  C16_22 
REMARK    6  A    between atoms: C19_25  and  O5_26 
REMARK    7  A    between atoms: O5_26  and  C20_27 
REMARK    8  A    between atoms: C20_27  and  C21_28 
REMARK    9  A    between atoms: C21_28  and  N1_29 
ROOT
HETATM    1  C6  UNL     1      31.042   0.678  28.239  1.00  0.00     0.009 A 
HETATM    2  C7  UNL     1      30.230   1.750  28.563  1.00  0.00     0.016 A 
HETATM    3  C8  UNL     1      28.854   1.702  28.388  1.00  0.00     0.013 A 
HETATM    4  C9  UNL     1      28.246   0.575  27.881  1.00  0.00    -0.021 A 
HETATM    5  C10 UNL     1      26.873   0.497  27.695  1.00  0.00     0.049 A 
HETATM    6  C11 UNL     1      26.298  -0.649  27.185  1.00  0.00     0.066 A 
HETATM    7  C12 UNL     1      27.117  -1.712  26.865  1.00  0.00     0.037 A 
HETATM    8  C13 UNL     1      28.488  -1.659  27.041  1.00  0.00     0.018 A 
HETATM    9  C14 UNL     1      29.042  -0.502  27.553  1.00  0.00     0.009 A 
HETATM   10  C15 UNL     1      30.423  -0.445  27.733  1.00  0.00     0.098 A 
ENDROOT
BRANCH  10  11
HETATM   11  O4  UNL     1      31.218  -1.508  27.410  1.00  0.00    -0.309 OA
BRANCH  11  12
HETATM   12  C16 UNL     1      31.641  -1.746  26.109  1.00  0.00     0.076 A 
HETATM   13  C17 UNL     1      31.410  -0.836  25.088  1.00  0.00     0.040 A 
HETATM   14  C18 UNL     1      31.833  -1.082  23.810  1.00  0.00     0.039 A 
HETATM   15  C19 UNL     1      32.520  -2.256  23.453  1.00  0.00     0.069 A 
HETATM   16  C27 UNL     1      32.744  -3.148  24.456  1.00  0.00     0.039 A 
HETATM   17  C28 UNL     1      32.312  -2.887  25.740  1.00  0.00     0.040 A 
BRANCH  15  18
HETATM   18  O5  UNL     1      32.912  -2.446  22.162  1.00  0.00    -0.349 OA
BRANCH  18  19
HETATM   19  C20 UNL     1      34.005  -3.144  21.716  1.00  0.00     0.206 C 
BRANCH  19  20
HETATM   20  C21 UNL     1      35.221  -2.343  21.388  1.00  0.00     0.299 C 
BRANCH  20  21
HETATM   21  N1  UNL     1      35.040  -1.482  20.245  1.00  0.00     0.090 N 
HETATM   22  C22 UNL     1      36.269  -0.910  19.739  1.00  0.00     0.272 C 
HETATM   23  C23 UNL     1      35.813   0.209  18.785  1.00  0.00     0.030 C 
HETATM   24  C24 UNL     1      35.274  -0.544  17.561  1.00  0.00     0.003 C 
HETATM   25  C25 UNL     1      34.076  -1.345  17.999  1.00  0.00     0.030 C 
HETATM   26  C26 UNL     1      34.480  -2.255  19.144  1.00  0.00     0.272 C 
ENDBRANCH  20  21
ENDBRANCH  19  20
ENDBRANCH  18  19
ENDBRANCH  15  18
ENDBRANCH  11  12
ENDBRANCH  10  11
BRANCH   1  27
HETATM   27  C5  UNL     1      32.457   0.723  28.417  1.00  0.00    -0.023 A 
HETATM   28  C4  UNL     1      33.036   0.340  29.630  1.00  0.00     0.014 A 
HETATM   29  C3  UNL     1      34.397   0.378  29.819  1.00  0.00     0.024 A 
HETATM   30  C2  UNL     1      35.256   0.793  28.823  1.00  0.00     0.058 A 
HETATM   31  C30 UNL     1      34.680   1.177  27.609  1.00  0.00     0.024 A 
HETATM   32  C29 UNL     1      33.318   1.137  27.427  1.00  0.00     0.014 A 
BRANCH  30  33
HETATM   33  S1  UNL     1      36.987   0.840  29.067  1.00  0.00     0.171 S 
HETATM   34  C1  UNL     1      37.741  -0.032  27.714  1.00  0.00     0.167 C 
HETATM   35  O1  UNL     1      37.502   2.242  29.113  1.00  0.00    -0.223 OA
HETATM   36  O2  UNL     1      37.359   0.080  30.327  1.00  0.00    -0.223 OA
ENDBRANCH  30  33
ENDBRANCH   1  27
BRANCH   6  37
HETATM   37  O3  UNL     1      24.923  -0.741  26.992  1.00  0.00    -0.361 OA
ATOM     38  H3  UNL     1      24.528  -1.526  26.631  1.00  0.00     0.217 HD
ENDBRANCH   6  37
TORSDOF 9
ENDMDL
