MODEL 6
REMARK VINA RESULT: -10.583000219      2.514      6.574
REMARK  9 active torsions:
REMARK  status: ('A' for Active; 'I' for Inactive)
REMARK    1  A    between atoms: S1_2  and  C2_5 
REMARK    2  A    between atoms: C5_8  and  C6_9 
REMARK    3  A    between atoms: C11_14  and  O3_15 
REMARK    4  A    between atoms: C15_20  and  O4_21 
REMARK    5  A    between atoms: O4_21  and  C16_22 
REMARK    6  A    between atoms: C19_25  and  O5_26 
REMARK    7  A    between atoms: O5_26  and  C20_27 
REMARK    8  A    between atoms: C20_27  and  C21_28 
REMARK    9  A    between atoms: C21_28  and  N1_29 
ROOT
HETATM    1  C6  UNL     1      32.125   0.158  28.939  1.00  0.00     0.009 A 
HETATM    2  C7  UNL     1      32.512   0.073  30.265  1.00  0.00     0.016 A 
HETATM    3  C8  UNL     1      33.799   0.396  30.671  1.00  0.00     0.013 A 
HETATM    4  C9  UNL     1      34.743   0.816  29.760  1.00  0.00    -0.021 A 
HETATM    5  C10 UNL     1      36.037   1.146  30.136  1.00  0.00     0.049 A 
HETATM    6  C11 UNL     1      36.957   1.564  29.196  1.00  0.00     0.066 A 
HETATM    7  C12 UNL     1      36.560   1.644  27.877  1.00  0.00     0.037 A 
HETATM    8  C13 UNL     1      35.276   1.321  27.476  1.00  0.00     0.018 A 
HETATM    9  C14 UNL     1      34.372   0.906  28.434  1.00  0.00     0.009 A 
HETATM   10  C15 UNL     1      33.078   0.580  28.036  1.00  0.00     0.098 A 
ENDROOT
BRANCH  10  11
HETATM   11  O4  UNL     1      32.703   0.666  26.724  1.00  0.00    -0.309 OA
BRANCH  11  12
HETATM   12  C16 UNL     1      32.635  -0.450  25.901  1.00  0.00     0.076 A 
HETATM   13  C17 UNL     1      33.243  -1.649  26.243  1.00  0.00     0.040 A 
HETATM   14  C18 UNL     1      33.167  -2.741  25.423  1.00  0.00     0.039 A 
HETATM   15  C19 UNL     1      32.478  -2.721  24.197  1.00  0.00     0.069 A 
HETATM   16  C27 UNL     1      31.884  -1.544  23.863  1.00  0.00     0.039 A 
HETATM   17  C28 UNL     1      31.968  -0.450  24.699  1.00  0.00     0.040 A 
BRANCH  15  18
HETATM   18  O5  UNL     1      32.442  -3.841  23.422  1.00  0.00    -0.349 OA
BRANCH  18  19
HETATM   19  C20 UNL     1      32.963  -4.002  22.163  1.00  0.00     0.206 C 
BRANCH  19  20
HETATM   20  C21 UNL     1      34.350  -3.497  21.945  1.00  0.00     0.299 C 
BRANCH  20  21
HETATM   21  N1  UNL     1      34.424  -2.457  20.948  1.00  0.00     0.090 N 
HETATM   22  C22 UNL     1      35.746  -1.890  20.787  1.00  0.00     0.272 C 
HETATM   23  C23 UNL     1      35.521  -0.608  19.963  1.00  0.00     0.030 C 
HETATM   24  C24 UNL     1      35.211  -1.125  18.552  1.00  0.00     0.003 C 
HETATM   25  C25 UNL     1      33.927  -1.909  18.615  1.00  0.00     0.030 C 
HETATM   26  C26 UNL     1      34.069  -3.011  19.649  1.00  0.00     0.272 C 
ENDBRANCH  20  21
ENDBRANCH  19  20
ENDBRANCH  18  19
ENDBRANCH  15  18
ENDBRANCH  11  12
ENDBRANCH  10  11
BRANCH   1  27
HETATM   27  C5  UNL     1      30.804  -0.173  28.517  1.00  0.00    -0.023 A 
HETATM   28  C4  UNL     1      29.843   0.825  28.327  1.00  0.00     0.014 A 
HETATM   29  C3  UNL     1      28.565   0.523  27.922  1.00  0.00     0.024 A 
HETATM   30  C2  UNL     1      28.169  -0.776  27.680  1.00  0.00     0.058 A 
HETATM   31  C30 UNL     1      29.126  -1.775  27.868  1.00  0.00     0.024 A 
HETATM   32  C29 UNL     1      30.403  -1.467  28.275  1.00  0.00     0.014 A 
BRANCH  30  33
HETATM   33  S1  UNL     1      26.541  -1.155  27.164  1.00  0.00     0.171 S 
HETATM   34  C1  UNL     1      25.972  -2.518  28.153  1.00  0.00     0.167 C 
HETATM   35  O1  UNL     1      25.621   0.010  27.333  1.00  0.00    -0.223 OA
HETATM   36  O2  UNL     1      26.548  -1.642  25.727  1.00  0.00    -0.223 OA
ENDBRANCH  30  33
ENDBRANCH   1  27
BRANCH   6  37
HETATM   37  O3  UNL     1      38.258   1.897  29.558  1.00  0.00    -0.361 OA
ATOM     38  H3  UNL     1      39.006   1.509  29.120  1.00  0.00     0.217 HD
ENDBRANCH   6  37
TORSDOF 9
ENDMDL
