MODEL 4
REMARK VINA RESULT: -10.765359775      2.835      6.845
REMARK  9 active torsions:
REMARK  status: ('A' for Active; 'I' for Inactive)
REMARK    1  A    between atoms: S1_2  and  C2_5 
REMARK    2  A    between atoms: C5_8  and  C6_9 
REMARK    3  A    between atoms: C11_14  and  O3_15 
REMARK    4  A    between atoms: C15_20  and  O4_21 
REMARK    5  A    between atoms: O4_21  and  C16_22 
REMARK    6  A    between atoms: C19_25  and  O5_26 
REMARK    7  A    between atoms: O5_26  and  C20_27 
REMARK    8  A    between atoms: C20_27  and  C21_28 
REMARK    9  A    between atoms: C21_28  and  N1_29 
ROOT
HETATM    1  C6  UNL     1      31.962   0.199  28.908  1.00  0.00     0.009 A 
HETATM    2  C7  UNL     1      32.364   0.138  30.231  1.00  0.00     0.016 A 
HETATM    3  C8  UNL     1      33.662   0.448  30.613  1.00  0.00     0.013 A 
HETATM    4  C9  UNL     1      34.601   0.831  29.681  1.00  0.00    -0.021 A 
HETATM    5  C10 UNL     1      35.905   1.147  30.033  1.00  0.00     0.049 A 
HETATM    6  C11 UNL     1      36.819   1.527  29.071  1.00  0.00     0.066 A 
HETATM    7  C12 UNL     1      36.407   1.584  27.756  1.00  0.00     0.037 A 
HETATM    8  C13 UNL     1      35.113   1.274  27.379  1.00  0.00     0.018 A 
HETATM    9  C14 UNL     1      34.215   0.896  28.358  1.00  0.00     0.009 A 
HETATM   10  C15 UNL     1      32.909   0.583  27.984  1.00  0.00     0.098 A 
ENDROOT
BRANCH  10  11
HETATM   11  O4  UNL     1      32.520   0.646  26.676  1.00  0.00    -0.309 OA
BRANCH  11  12
HETATM   12  C16 UNL     1      32.570  -0.459  25.837  1.00  0.00     0.076 A 
HETATM   13  C17 UNL     1      33.106  -1.669  26.253  1.00  0.00     0.040 A 
HETATM   14  C18 UNL     1      33.148  -2.751  25.416  1.00  0.00     0.039 A 
HETATM   15  C19 UNL     1      32.658  -2.708  24.098  1.00  0.00     0.069 A 
HETATM   16  C27 UNL     1      32.135  -1.520  23.692  1.00  0.00     0.039 A 
HETATM   17  C28 UNL     1      32.098  -0.437  24.546  1.00  0.00     0.040 A 
BRANCH  15  18
HETATM   18  O5  UNL     1      32.732  -3.818  23.312  1.00  0.00    -0.349 OA
BRANCH  18  19
HETATM   19  C20 UNL     1      32.238  -3.976  22.043  1.00  0.00     0.206 C 
BRANCH  19  20
HETATM   20  C21 UNL     1      33.226  -3.899  20.927  1.00  0.00     0.299 C 
BRANCH  20  21
HETATM   21  N1  UNL     1      32.627  -3.537  19.665  1.00  0.00     0.090 N 
HETATM   22  C22 UNL     1      31.260  -3.075  19.774  1.00  0.00     0.272 C 
HETATM   23  C23 UNL     1      30.729  -3.086  18.328  1.00  0.00     0.030 C 
HETATM   24  C24 UNL     1      31.428  -1.891  17.667  1.00  0.00     0.003 C 
HETATM   25  C25 UNL     1      32.909  -2.166  17.657  1.00  0.00     0.030 C 
HETATM   26  C26 UNL     1      33.373  -2.433  19.077  1.00  0.00     0.272 C 
ENDBRANCH  20  21
ENDBRANCH  19  20
ENDBRANCH  18  19
ENDBRANCH  15  18
ENDBRANCH  11  12
ENDBRANCH  10  11
BRANCH   1  27
HETATM   27  C5  UNL     1      30.630  -0.119  28.511  1.00  0.00    -0.023 A 
HETATM   28  C4  UNL     1      30.254  -1.443  28.267  1.00  0.00     0.014 A 
HETATM   29  C3  UNL     1      28.975  -1.767  27.882  1.00  0.00     0.024 A 
HETATM   30  C2  UNL     1      28.001  -0.804  27.720  1.00  0.00     0.058 A 
HETATM   31  C30 UNL     1      28.373   0.520  27.963  1.00  0.00     0.024 A 
HETATM   32  C29 UNL     1      29.654   0.838  28.347  1.00  0.00     0.014 A 
BRANCH  30  33
HETATM   33  S1  UNL     1      26.374  -1.221  27.231  1.00  0.00     0.171 S 
HETATM   34  C1  UNL     1      25.934  -2.725  28.068  1.00  0.00     0.167 C 
HETATM   35  O1  UNL     1      25.398  -0.144  27.581  1.00  0.00    -0.223 OA
HETATM   36  O2  UNL     1      26.337  -1.530  25.746  1.00  0.00    -0.223 OA
ENDBRANCH  30  33
ENDBRANCH   1  27
BRANCH   6  37
HETATM   37  O3  UNL     1      38.131   1.847  29.409  1.00  0.00    -0.361 OA
ATOM     38  H3  UNL     1      38.757   2.117  28.749  1.00  0.00     0.217 HD
ENDBRANCH   6  37
TORSDOF 9
ENDMDL
