MODEL 2
REMARK VINA RESULT: -11.951062512      1.811      2.960
REMARK  9 active torsions:
REMARK  status: ('A' for Active; 'I' for Inactive)
REMARK    1  A    between atoms: S1_2  and  C2_5 
REMARK    2  A    between atoms: C5_8  and  C6_9 
REMARK    3  A    between atoms: C11_14  and  O3_15 
REMARK    4  A    between atoms: C15_20  and  O4_21 
REMARK    5  A    between atoms: O4_21  and  C16_22 
REMARK    6  A    between atoms: C19_25  and  O5_26 
REMARK    7  A    between atoms: O5_26  and  C20_27 
REMARK    8  A    between atoms: C20_27  and  C21_28 
REMARK    9  A    between atoms: C21_28  and  N1_29 
ROOT
HETATM    1  C6  UNL     1      31.001   0.638  28.229  1.00  0.00     0.009 A 
HETATM    2  C7  UNL     1      30.206   1.744  28.472  1.00  0.00     0.016 A 
HETATM    3  C8  UNL     1      28.833   1.714  28.274  1.00  0.00     0.013 A 
HETATM    4  C9  UNL     1      28.209   0.570  27.826  1.00  0.00    -0.021 A 
HETATM    5  C10 UNL     1      26.838   0.509  27.619  1.00  0.00     0.049 A 
HETATM    6  C11 UNL     1      26.247  -0.654  27.169  1.00  0.00     0.066 A 
HETATM    7  C12 UNL     1      27.049  -1.751  26.930  1.00  0.00     0.037 A 
HETATM    8  C13 UNL     1      28.418  -1.716  27.128  1.00  0.00     0.018 A 
HETATM    9  C14 UNL     1      28.988  -0.541  27.579  1.00  0.00     0.009 A 
HETATM   10  C15 UNL     1      30.366  -0.501  27.781  1.00  0.00     0.098 A 
ENDROOT
BRANCH  10  11
HETATM   11  O4  UNL     1      31.144  -1.598  27.539  1.00  0.00    -0.309 OA
BRANCH  11  12
HETATM   12  C16 UNL     1      31.679  -1.862  26.285  1.00  0.00     0.076 A 
HETATM   13  C17 UNL     1      32.412  -3.012  26.030  1.00  0.00     0.040 A 
HETATM   14  C18 UNL     1      32.933  -3.259  24.789  1.00  0.00     0.039 A 
HETATM   15  C19 UNL     1      32.763  -2.377  23.707  1.00  0.00     0.069 A 
HETATM   16  C27 UNL     1      32.046  -1.249  23.960  1.00  0.00     0.039 A 
HETATM   17  C28 UNL     1      31.525  -1.012  25.215  1.00  0.00     0.040 A 
BRANCH  15  18
HETATM   18  O5  UNL     1      33.310  -2.678  22.496  1.00  0.00    -0.349 OA
BRANCH  18  19
HETATM   19  C20 UNL     1      33.173  -3.842  21.784  1.00  0.00     0.206 C 
BRANCH  19  20
HETATM   20  C21 UNL     1      33.757  -3.858  20.411  1.00  0.00     0.299 C 
BRANCH  20  21
HETATM   21  N1  UNL     1      32.799  -3.526  19.385  1.00  0.00     0.090 N 
HETATM   22  C22 UNL     1      31.511  -3.108  19.896  1.00  0.00     0.272 C 
HETATM   23  C23 UNL     1      30.576  -3.148  18.673  1.00  0.00     0.030 C 
HETATM   24  C24 UNL     1      31.007  -1.935  17.838  1.00  0.00     0.003 C 
HETATM   25  C25 UNL     1      32.426  -2.160  17.388  1.00  0.00     0.030 C 
HETATM   26  C26 UNL     1      33.300  -2.402  18.606  1.00  0.00     0.272 C 
ENDBRANCH  20  21
ENDBRANCH  19  20
ENDBRANCH  18  19
ENDBRANCH  15  18
ENDBRANCH  11  12
ENDBRANCH  10  11
BRANCH   1  27
HETATM   27  C5  UNL     1      32.412   0.664  28.430  1.00  0.00    -0.023 A 
HETATM   28  C4  UNL     1      33.267   1.145  27.434  1.00  0.00     0.014 A 
HETATM   29  C3  UNL     1      34.630   1.177  27.612  1.00  0.00     0.024 A 
HETATM   30  C2  UNL     1      35.219   0.740  28.779  1.00  0.00     0.058 A 
HETATM   31  C30 UNL     1      34.368   0.259  29.777  1.00  0.00     0.024 A 
HETATM   32  C29 UNL     1      33.005   0.229  29.593  1.00  0.00     0.014 A 
BRANCH  30  33
HETATM   33  S1  UNL     1      36.954   0.782  29.001  1.00  0.00     0.171 S 
HETATM   34  C1  UNL     1      37.691  -0.021  27.598  1.00  0.00     0.167 C 
HETATM   35  O1  UNL     1      37.464   2.183  29.105  1.00  0.00    -0.223 OA
HETATM   36  O2  UNL     1      37.347  -0.034  30.218  1.00  0.00    -0.223 OA
ENDBRANCH  30  33
ENDBRANCH   1  27
BRANCH   6  37
HETATM   37  O3  UNL     1      24.874  -0.730  26.957  1.00  0.00    -0.361 OA
ATOM     38  H3  UNL     1      24.512  -1.277  26.270  1.00  0.00     0.217 HD
ENDBRANCH   6  37
TORSDOF 9
ENDMDL
