MODEL 5
REMARK VINA RESULT: -10.688613346      2.480      6.457
REMARK  9 active torsions:
REMARK  status: ('A' for Active; 'I' for Inactive)
REMARK    1  A    between atoms: S1_2  and  C2_5 
REMARK    2  A    between atoms: C5_8  and  C6_9 
REMARK    3  A    between atoms: C11_14  and  O3_15 
REMARK    4  A    between atoms: C15_20  and  O4_21 
REMARK    5  A    between atoms: O4_21  and  C16_22 
REMARK    6  A    between atoms: C19_25  and  O5_26 
REMARK    7  A    between atoms: O5_26  and  C20_27 
REMARK    8  A    between atoms: C20_27  and  C21_28 
REMARK    9  A    between atoms: C21_28  and  N1_29 
ROOT
HETATM    1  C6  UNL     1      32.014   0.150  28.899  1.00  0.00     0.009 A 
HETATM    2  C7  UNL     1      32.408   0.092  30.224  1.00  0.00     0.016 A 
HETATM    3  C8  UNL     1      33.703   0.406  30.614  1.00  0.00     0.013 A 
HETATM    4  C9  UNL     1      34.647   0.790  29.687  1.00  0.00    -0.021 A 
HETATM    5  C10 UNL     1      35.948   1.111  30.047  1.00  0.00     0.049 A 
HETATM    6  C11 UNL     1      36.867   1.492  29.091  1.00  0.00     0.066 A 
HETATM    7  C12 UNL     1      36.463   1.547  27.773  1.00  0.00     0.037 A 
HETATM    8  C13 UNL     1      35.171   1.233  27.388  1.00  0.00     0.018 A 
HETATM    9  C14 UNL     1      34.268   0.854  28.362  1.00  0.00     0.009 A 
HETATM   10  C15 UNL     1      32.966   0.536  27.980  1.00  0.00     0.098 A 
ENDROOT
BRANCH  10  11
HETATM   11  O4  UNL     1      32.585   0.597  26.669  1.00  0.00    -0.309 OA
BRANCH  11  12
HETATM   12  C16 UNL     1      32.575  -0.524  25.851  1.00  0.00     0.076 A 
HETATM   13  C17 UNL     1      32.009  -0.501  24.584  1.00  0.00     0.040 A 
HETATM   14  C18 UNL     1      32.007  -1.613  23.787  1.00  0.00     0.039 A 
HETATM   15  C19 UNL     1      32.570  -2.836  24.194  1.00  0.00     0.069 A 
HETATM   16  C27 UNL     1      33.123  -2.858  25.437  1.00  0.00     0.039 A 
HETATM   17  C28 UNL     1      33.118  -1.729  26.230  1.00  0.00     0.040 A 
BRANCH  15  18
HETATM   18  O5  UNL     1      32.534  -3.910  23.356  1.00  0.00    -0.349 OA
BRANCH  18  19
HETATM   19  C20 UNL     1      32.473  -3.898  21.986  1.00  0.00     0.206 C 
BRANCH  19  20
HETATM   20  C21 UNL     1      33.648  -4.463  21.260  1.00  0.00     0.299 C 
BRANCH  20  21
HETATM   21  N1  UNL     1      34.420  -3.462  20.566  1.00  0.00     0.090 N 
HETATM   22  C22 UNL     1      33.617  -2.468  19.885  1.00  0.00     0.272 C 
HETATM   23  C23 UNL     1      34.607  -1.740  18.956  1.00  0.00     0.030 C 
HETATM   24  C24 UNL     1      35.449  -0.883  19.910  1.00  0.00     0.003 C 
HETATM   25  C25 UNL     1      36.210  -1.811  20.820  1.00  0.00     0.030 C 
HETATM   26  C26 UNL     1      35.228  -2.726  21.529  1.00  0.00     0.272 C 
ENDBRANCH  20  21
ENDBRANCH  19  20
ENDBRANCH  18  19
ENDBRANCH  15  18
ENDBRANCH  11  12
ENDBRANCH  10  11
BRANCH   1  27
HETATM   27  C5  UNL     1      30.685  -0.172  28.493  1.00  0.00    -0.023 A 
HETATM   28  C4  UNL     1      30.304  -1.501  28.288  1.00  0.00     0.014 A 
HETATM   29  C3  UNL     1      29.027  -1.828  27.896  1.00  0.00     0.024 A 
HETATM   30  C2  UNL     1      28.063  -0.865  27.688  1.00  0.00     0.058 A 
HETATM   31  C30 UNL     1      28.441   0.464  27.892  1.00  0.00     0.024 A 
HETATM   32  C29 UNL     1      29.720   0.786  28.283  1.00  0.00     0.014 A 
BRANCH  30  33
HETATM   33  S1  UNL     1      26.440  -1.287  27.190  1.00  0.00     0.171 S 
HETATM   34  C1  UNL     1      25.990  -2.778  28.045  1.00  0.00     0.167 C 
HETATM   35  O1  UNL     1      25.462  -0.204  27.515  1.00  0.00    -0.223 OA
HETATM   36  O2  UNL     1      26.416  -1.617  25.709  1.00  0.00    -0.223 OA
ENDBRANCH  30  33
ENDBRANCH   1  27
BRANCH   6  37
HETATM   37  O3  UNL     1      38.175   1.816  29.437  1.00  0.00    -0.361 OA
ATOM     38  H3  UNL     1      38.732   2.311  28.848  1.00  0.00     0.217 HD
ENDBRANCH   6  37
TORSDOF 9
ENDMDL
