MODEL 3
REMARK VINA RESULT: -8.915641308      2.574      4.942
REMARK  9 active torsions:
REMARK  status: ('A' for Active; 'I' for Inactive)
REMARK    1  A    between atoms: C6_7  and  C7_8 
REMARK    2  A    between atoms: C7_8  and  N1_9 
REMARK    3  A    between atoms: N1_9  and  C9_11 
REMARK    4  A    between atoms: C9_11  and  C10_12 
REMARK    5  A    between atoms: C10_12  and  N2_13 
REMARK    6  A    between atoms: N2_13  and  C12_15 
REMARK    7  A    between atoms: C12_15  and  C13_16 
REMARK    8  A    between atoms: N3_18  and  C15_19 
REMARK    9  A    between atoms: C19_23  and  C20_24 
ROOT
HETATM    1  N2  UNL     1     -23.043  73.441  30.284  1.00  0.00    -0.374 N 
HETATM    2  C11 UNL     1     -22.291  74.070  29.343  1.00  0.00     0.120 C 
ENDROOT
BRANCH   1   3
HETATM    3  C10 UNL     1     -23.730  72.227  30.058  1.00  0.00     0.141 C 
BRANCH   3   4
HETATM    4  C9  UNL     1     -22.996  71.139  29.297  1.00  0.00     0.114 C 
BRANCH   4   5
HETATM    5  N1  UNL     1     -22.248  70.444  30.379  1.00  0.00    -0.294 NA
HETATM    6  C8  UNL     1     -22.599  68.986  30.030  1.00  0.00     0.116 C 
BRANCH   5   7
HETATM    7  C7  UNL     1     -20.850  70.500  30.291  1.00  0.00     0.076 C 
BRANCH   7   8
HETATM    8  C6  UNL     1     -20.055  70.576  31.518  1.00  0.00     0.048 A 
HETATM    9  C5  UNL     1     -19.868  69.581  32.426  1.00  0.00     0.159 A 
HETATM   10  O1  UNL     1     -19.053  69.694  33.475  1.00  0.00    -0.321 OA
HETATM   11  C4  UNL     1     -18.354  70.776  33.728  1.00  0.00     0.089 A 
HETATM   12  C3  UNL     1     -17.495  70.875  34.819  1.00  0.00     0.045 A 
HETATM   13  C29 UNL     1     -18.484  71.838  32.863  1.00  0.00     0.049 A 
HETATM   14  C2  UNL     1     -16.745  72.016  35.079  1.00  0.00    -0.053 A 
HETATM   15  C1  UNL     1     -15.799  72.102  36.245  1.00  0.00     0.049 C 
HETATM   16  C31 UNL     1     -16.891  73.067  34.204  1.00  0.00    -0.055 A 
HETATM   17  C30 UNL     1     -17.745  72.972  33.118  1.00  0.00     0.025 A 
HETATM   18  C32 UNL     1     -16.107  74.312  34.420  1.00  0.00     0.049 C 
HETATM   19  C28 UNL     1     -19.320  71.757  31.766  1.00  0.00     0.198 A 
HETATM   20  O2  UNL     1     -19.453  72.716  30.967  1.00  0.00    -0.286 OA
ENDBRANCH   7   8
ENDBRANCH   5   7
ENDBRANCH   4   5
ENDBRANCH   3   4
ENDBRANCH   1   3
BRANCH   1  21
HETATM   21  C12 UNL     1     -23.447  74.000  31.502  1.00  0.00     0.103 C 
BRANCH  21  22
HETATM   22  C13 UNL     1     -22.483  74.120  32.588  1.00  0.00     0.008 A 
HETATM   23  C14 UNL     1     -21.611  75.095  32.989  1.00  0.00     0.111 A 
HETATM   24  N3  UNL     1     -20.910  74.689  34.083  1.00  0.00    -0.321 N 
HETATM   25  C22 UNL     1     -21.319  73.460  34.399  1.00  0.00     0.050 A 
HETATM   26  C23 UNL     1     -20.959  72.544  35.395  1.00  0.00     0.031 A 
HETATM   27  C27 UNL     1     -22.307  73.047  33.500  1.00  0.00     0.004 A 
HETATM   28  C24 UNL     1     -21.548  71.300  35.484  1.00  0.00     0.002 A 
HETATM   29  C25 UNL     1     -22.510  70.913  34.601  1.00  0.00     0.001 A 
HETATM   30  C26 UNL     1     -22.868  71.801  33.624  1.00  0.00     0.014 A 
BRANCH  24  31
HETATM   31  C15 UNL     1     -19.942  75.506  34.705  1.00  0.00     0.040 A 
HETATM   32  C16 UNL     1     -19.397  76.616  34.088  1.00  0.00     0.030 A 
HETATM   33  C17 UNL     1     -18.416  77.375  34.699  1.00  0.00     0.003 A 
HETATM   34  C18 UNL     1     -17.953  77.031  35.960  1.00  0.00     0.016 A 
HETATM   35  C19 UNL     1     -18.479  75.923  36.612  1.00  0.00     0.050 A 
HETATM   36  C21 UNL     1     -19.458  75.196  35.962  1.00  0.00     0.046 A 
BRANCH  35  37
HETATM   37  C20 UNL     1     -18.001  75.512  37.958  1.00  0.00     0.417 C 
HETATM   38  F1  UNL     1     -16.765  74.872  37.850  1.00  0.00    -0.166 F 
HETATM   39  F2  UNL     1     -18.902  74.614  38.458  1.00  0.00    -0.166 F 
HETATM   40  F3  UNL     1     -17.897  76.628  38.767  1.00  0.00    -0.166 F 
ENDBRANCH  35  37
ENDBRANCH  24  31
ENDBRANCH  21  22
ENDBRANCH   1  21
TORSDOF 9
ENDMDL
