MODEL 4
REMARK VINA RESULT: -8.709776528      3.071      5.854
REMARK  9 active torsions:
REMARK  status: ('A' for Active; 'I' for Inactive)
REMARK    1  A    between atoms: C6_7  and  C7_8 
REMARK    2  A    between atoms: C7_8  and  N1_9 
REMARK    3  A    between atoms: N1_9  and  C9_11 
REMARK    4  A    between atoms: C9_11  and  C10_12 
REMARK    5  A    between atoms: C10_12  and  N2_13 
REMARK    6  A    between atoms: N2_13  and  C12_15 
REMARK    7  A    between atoms: C12_15  and  C13_16 
REMARK    8  A    between atoms: N3_18  and  C15_19 
REMARK    9  A    between atoms: C19_23  and  C20_24 
ROOT
HETATM    1  N2  UNL     1     -18.829  78.717  33.112  1.00  0.00    -0.374 N 
HETATM    2  C11 UNL     1     -19.946  79.456  32.882  1.00  0.00     0.120 C 
ENDROOT
BRANCH   1   3
HETATM    3  C10 UNL     1     -18.062  78.113  32.090  1.00  0.00     0.141 C 
BRANCH   3   4
HETATM    4  C9  UNL     1     -18.751  77.844  30.765  1.00  0.00     0.114 C 
BRANCH   4   5
HETATM    5  N1  UNL     1     -18.969  76.372  30.813  1.00  0.00    -0.294 NA
HETATM    6  C8  UNL     1     -19.339  76.125  29.340  1.00  0.00     0.116 C 
BRANCH   5   7
HETATM    7  C7  UNL     1     -17.825  75.590  31.025  1.00  0.00     0.076 C 
BRANCH   7   8
HETATM    8  C6  UNL     1     -17.906  74.420  31.901  1.00  0.00     0.048 A 
HETATM    9  C5  UNL     1     -18.727  73.347  31.747  1.00  0.00     0.159 A 
HETATM   10  O1  UNL     1     -18.681  72.273  32.535  1.00  0.00    -0.321 OA
HETATM   11  C4  UNL     1     -17.836  72.150  33.533  1.00  0.00     0.089 A 
HETATM   12  C3  UNL     1     -17.787  71.016  34.338  1.00  0.00     0.045 A 
HETATM   13  C29 UNL     1     -16.967  73.192  33.766  1.00  0.00     0.049 A 
HETATM   14  C2  UNL     1     -16.884  70.882  35.386  1.00  0.00    -0.053 A 
HETATM   15  C1  UNL     1     -16.820  69.640  36.232  1.00  0.00     0.049 C 
HETATM   16  C31 UNL     1     -16.026  71.934  35.604  1.00  0.00    -0.055 A 
HETATM   17  C30 UNL     1     -16.072  73.064  34.806  1.00  0.00     0.025 A 
HETATM   18  C32 UNL     1     -15.026  71.848  36.702  1.00  0.00     0.049 C 
HETATM   19  C28 UNL     1     -16.988  74.321  32.971  1.00  0.00     0.198 A 
HETATM   20  O2  UNL     1     -16.205  75.282  33.170  1.00  0.00    -0.286 OA
ENDBRANCH   7   8
ENDBRANCH   5   7
ENDBRANCH   4   5
ENDBRANCH   3   4
ENDBRANCH   1   3
BRANCH   1  21
HETATM   21  C12 UNL     1     -18.416  78.242  34.363  1.00  0.00     0.103 C 
BRANCH  21  22
HETATM   22  C13 UNL     1     -18.866  76.930  34.812  1.00  0.00     0.008 A 
HETATM   23  C14 UNL     1     -19.807  76.039  34.373  1.00  0.00     0.111 A 
HETATM   24  N3  UNL     1     -19.839  74.942  35.177  1.00  0.00    -0.321 N 
HETATM   25  C22 UNL     1     -18.926  75.110  36.135  1.00  0.00     0.050 A 
HETATM   26  C23 UNL     1     -18.521  74.342  37.234  1.00  0.00     0.031 A 
HETATM   27  C27 UNL     1     -18.279  76.338  35.960  1.00  0.00     0.004 A 
HETATM   28  C24 UNL     1     -17.537  74.775  38.098  1.00  0.00     0.002 A 
HETATM   29  C25 UNL     1     -16.916  75.972  37.913  1.00  0.00     0.001 A 
HETATM   30  C26 UNL     1     -17.305  76.730  36.843  1.00  0.00     0.014 A 
BRANCH  24  31
HETATM   31  C15 UNL     1     -20.720  73.864  34.949  1.00  0.00     0.040 A 
HETATM   32  C16 UNL     1     -20.703  72.713  35.714  1.00  0.00     0.030 A 
HETATM   33  C17 UNL     1     -21.545  71.651  35.443  1.00  0.00     0.003 A 
HETATM   34  C18 UNL     1     -22.435  71.721  34.383  1.00  0.00     0.016 A 
HETATM   35  C19 UNL     1     -22.483  72.863  33.593  1.00  0.00     0.050 A 
HETATM   36  C21 UNL     1     -21.623  73.899  33.903  1.00  0.00     0.046 A 
BRANCH  35  37
HETATM   37  C20 UNL     1     -23.414  72.973  32.439  1.00  0.00     0.417 C 
HETATM   38  F1  UNL     1     -23.705  74.314  32.189  1.00  0.00    -0.166 F 
HETATM   39  F2  UNL     1     -24.576  72.343  32.787  1.00  0.00    -0.166 F 
HETATM   40  F3  UNL     1     -22.834  72.390  31.327  1.00  0.00    -0.166 F 
ENDBRANCH  35  37
ENDBRANCH  24  31
ENDBRANCH  21  22
ENDBRANCH   1  21
TORSDOF 9
ENDMDL
