MODEL 2
REMARK VINA RESULT: -8.997949469      2.426      5.071
REMARK  9 active torsions:
REMARK  status: ('A' for Active; 'I' for Inactive)
REMARK    1  A    between atoms: C6_7  and  C7_8 
REMARK    2  A    between atoms: C7_8  and  N1_9 
REMARK    3  A    between atoms: N1_9  and  C9_11 
REMARK    4  A    between atoms: C9_11  and  C10_12 
REMARK    5  A    between atoms: C10_12  and  N2_13 
REMARK    6  A    between atoms: N2_13  and  C12_15 
REMARK    7  A    between atoms: C12_15  and  C13_16 
REMARK    8  A    between atoms: N3_18  and  C15_19 
REMARK    9  A    between atoms: C19_23  and  C20_24 
ROOT
HETATM    1  N2  UNL     1     -20.016  78.189  33.301  1.00  0.00    -0.374 N 
HETATM    2  C11 UNL     1     -18.870  78.914  33.381  1.00  0.00     0.120 C 
ENDROOT
BRANCH   1   3
HETATM    3  C10 UNL     1     -20.860  78.176  32.167  1.00  0.00     0.141 C 
BRANCH   3   4
HETATM    4  C9  UNL     1     -20.236  77.797  30.837  1.00  0.00     0.114 C 
BRANCH   4   5
HETATM    5  N1  UNL     1     -19.981  76.341  31.007  1.00  0.00    -0.294 NA
HETATM    6  C8  UNL     1     -20.959  75.790  29.955  1.00  0.00     0.116 C 
BRANCH   5   7
HETATM    7  C7  UNL     1     -18.722  75.886  30.590  1.00  0.00     0.076 C 
BRANCH   7   8
HETATM    8  C6  UNL     1     -17.791  75.340  31.579  1.00  0.00     0.048 A 
HETATM    9  C5  UNL     1     -17.224  76.013  32.615  1.00  0.00     0.159 A 
HETATM   10  O1  UNL     1     -16.455  75.426  33.534  1.00  0.00    -0.321 OA
HETATM   11  C4  UNL     1     -16.177  74.143  33.523  1.00  0.00     0.089 A 
HETATM   12  C3  UNL     1     -15.386  73.540  34.497  1.00  0.00     0.045 A 
HETATM   13  C29 UNL     1     -16.707  73.382  32.506  1.00  0.00     0.049 A 
HETATM   14  C2  UNL     1     -15.102  72.179  34.492  1.00  0.00    -0.053 A 
HETATM   15  C1  UNL     1     -14.270  71.533  35.565  1.00  0.00     0.049 C 
HETATM   16  C31 UNL     1     -15.639  71.437  33.466  1.00  0.00    -0.055 A 
HETATM   17  C30 UNL     1     -16.426  72.033  32.496  1.00  0.00     0.025 A 
HETATM   18  C32 UNL     1     -15.383  69.973  33.411  1.00  0.00     0.049 C 
HETATM   19  C28 UNL     1     -17.505  73.957  31.537  1.00  0.00     0.198 A 
HETATM   20  O2  UNL     1     -17.995  73.279  30.600  1.00  0.00    -0.286 OA
ENDBRANCH   7   8
ENDBRANCH   5   7
ENDBRANCH   4   5
ENDBRANCH   3   4
ENDBRANCH   1   3
BRANCH   1  21
HETATM   21  C12 UNL     1     -20.654  77.562  34.378  1.00  0.00     0.103 C 
BRANCH  21  22
HETATM   22  C13 UNL     1     -20.468  76.131  34.582  1.00  0.00     0.008 A 
HETATM   23  C14 UNL     1     -21.085  75.008  34.101  1.00  0.00     0.111 A 
HETATM   24  N3  UNL     1     -20.522  73.889  34.632  1.00  0.00    -0.321 N 
HETATM   25  C22 UNL     1     -19.543  74.272  35.453  1.00  0.00     0.050 A 
HETATM   26  C23 UNL     1     -18.642  73.585  36.276  1.00  0.00     0.031 A 
HETATM   27  C27 UNL     1     -19.458  75.668  35.464  1.00  0.00     0.004 A 
HETATM   28  C24 UNL     1     -17.720  74.250  37.056  1.00  0.00     0.002 A 
HETATM   29  C25 UNL     1     -17.648  75.610  37.054  1.00  0.00     0.001 A 
HETATM   30  C26 UNL     1     -18.524  76.291  36.254  1.00  0.00     0.014 A 
BRANCH  24  31
HETATM   31  C15 UNL     1     -20.966  72.591  34.303  1.00  0.00     0.040 A 
HETATM   32  C16 UNL     1     -22.257  72.160  34.549  1.00  0.00     0.030 A 
HETATM   33  C17 UNL     1     -22.657  70.870  34.259  1.00  0.00     0.003 A 
HETATM   34  C18 UNL     1     -21.758  69.969  33.709  1.00  0.00     0.016 A 
HETATM   35  C19 UNL     1     -20.454  70.366  33.445  1.00  0.00     0.050 A 
HETATM   36  C21 UNL     1     -20.100  71.666  33.750  1.00  0.00     0.046 A 
BRANCH  35  37
HETATM   37  C20 UNL     1     -19.455  69.427  32.868  1.00  0.00     0.417 C 
HETATM   38  F1  UNL     1     -18.455  69.162  33.804  1.00  0.00    -0.166 F 
HETATM   39  F2  UNL     1     -18.880  70.048  31.794  1.00  0.00    -0.166 F 
HETATM   40  F3  UNL     1     -20.090  68.257  32.495  1.00  0.00    -0.166 F 
ENDBRANCH  35  37
ENDBRANCH  24  31
ENDBRANCH  21  22
ENDBRANCH   1  21
TORSDOF 9
ENDMDL
