MODEL 1
REMARK VINA RESULT: -9.160746461      0.000      0.000
REMARK  9 active torsions:
REMARK  status: ('A' for Active; 'I' for Inactive)
REMARK    1  A    between atoms: C6_7  and  C7_8 
REMARK    2  A    between atoms: C7_8  and  N1_9 
REMARK    3  A    between atoms: N1_9  and  C9_11 
REMARK    4  A    between atoms: C9_11  and  C10_12 
REMARK    5  A    between atoms: C10_12  and  N2_13 
REMARK    6  A    between atoms: N2_13  and  C12_15 
REMARK    7  A    between atoms: C12_15  and  C13_16 
REMARK    8  A    between atoms: N3_18  and  C15_19 
REMARK    9  A    between atoms: C19_23  and  C20_24 
ROOT
HETATM    1  N2  UNL     1     -22.053  75.014  29.595  1.00  0.00    -0.374 N 
HETATM    2  C11 UNL     1     -21.397  74.959  28.406  1.00  0.00     0.120 C 
ENDROOT
BRANCH   1   3
HETATM    3  C10 UNL     1     -22.443  76.219  30.223  1.00  0.00     0.141 C 
BRANCH   3   4
HETATM    4  C9  UNL     1     -22.116  77.517  29.508  1.00  0.00     0.114 C 
BRANCH   4   5
HETATM    5  N1  UNL     1     -20.909  77.989  30.240  1.00  0.00    -0.294 NA
HETATM    6  C8  UNL     1     -20.629  79.282  29.454  1.00  0.00     0.116 C 
BRANCH   5   7
HETATM    7  C7  UNL     1     -21.121  78.417  31.558  1.00  0.00     0.076 C 
BRANCH   7   8
HETATM    8  C6  UNL     1     -20.157  78.049  32.597  1.00  0.00     0.048 A 
HETATM    9  C5  UNL     1     -18.912  78.570  32.769  1.00  0.00     0.159 A 
HETATM   10  O1  UNL     1     -18.123  78.252  33.795  1.00  0.00    -0.321 OA
HETATM   11  C4  UNL     1     -18.476  77.408  34.737  1.00  0.00     0.089 A 
HETATM   12  C3  UNL     1     -17.648  77.097  35.813  1.00  0.00     0.045 A 
HETATM   13  C29 UNL     1     -19.721  76.828  34.643  1.00  0.00     0.049 A 
HETATM   14  C2  UNL     1     -18.028  76.214  36.816  1.00  0.00    -0.053 A 
HETATM   15  C1  UNL     1     -17.137  75.906  37.988  1.00  0.00     0.049 C 
HETATM   16  C31 UNL     1     -19.274  75.643  36.703  1.00  0.00    -0.055 A 
HETATM   17  C30 UNL     1     -20.099  75.949  35.634  1.00  0.00     0.025 A 
HETATM   18  C32 UNL     1     -19.744  74.698  37.751  1.00  0.00     0.049 C 
HETATM   19  C28 UNL     1     -20.563  77.132  33.592  1.00  0.00     0.198 A 
HETATM   20  O2  UNL     1     -21.701  76.611  33.488  1.00  0.00    -0.286 OA
ENDBRANCH   7   8
ENDBRANCH   5   7
ENDBRANCH   4   5
ENDBRANCH   3   4
ENDBRANCH   1   3
BRANCH   1  21
HETATM   21  C12 UNL     1     -22.219  73.941  30.478  1.00  0.00     0.103 C 
BRANCH  21  22
HETATM   22  C13 UNL     1     -21.255  73.745  31.554  1.00  0.00     0.008 A 
HETATM   23  C14 UNL     1     -19.932  74.054  31.721  1.00  0.00     0.111 A 
HETATM   24  N3  UNL     1     -19.492  73.629  32.936  1.00  0.00    -0.321 N 
HETATM   25  C22 UNL     1     -20.516  73.047  33.562  1.00  0.00     0.050 A 
HETATM   26  C23 UNL     1     -20.663  72.421  34.806  1.00  0.00     0.031 A 
HETATM   27  C27 UNL     1     -21.652  73.090  32.748  1.00  0.00     0.004 A 
HETATM   28  C24 UNL     1     -21.864  71.875  35.206  1.00  0.00     0.002 A 
HETATM   29  C25 UNL     1     -22.961  71.926  34.402  1.00  0.00     0.001 A 
HETATM   30  C26 UNL     1     -22.828  72.535  33.185  1.00  0.00     0.014 A 
BRANCH  24  31
HETATM   31  C15 UNL     1     -18.163  73.822  33.367  1.00  0.00     0.040 A 
HETATM   32  C16 UNL     1     -17.298  74.702  32.744  1.00  0.00     0.030 A 
HETATM   33  C17 UNL     1     -15.986  74.841  33.156  1.00  0.00     0.003 A 
HETATM   34  C18 UNL     1     -15.505  74.089  34.217  1.00  0.00     0.016 A 
HETATM   35  C19 UNL     1     -16.345  73.196  34.869  1.00  0.00     0.050 A 
HETATM   36  C21 UNL     1     -17.648  73.093  34.423  1.00  0.00     0.046 A 
BRANCH  35  37
HETATM   37  C20 UNL     1     -15.865  72.362  36.002  1.00  0.00     0.417 C 
HETATM   38  F1  UNL     1     -16.709  71.263  36.175  1.00  0.00    -0.166 F 
HETATM   39  F2  UNL     1     -15.929  73.128  37.133  1.00  0.00    -0.166 F 
HETATM   40  F3  UNL     1     -14.573  71.942  35.747  1.00  0.00    -0.166 F 
ENDBRANCH  35  37
ENDBRANCH  24  31
ENDBRANCH  21  22
ENDBRANCH   1  21
TORSDOF 9
ENDMDL
