MODEL 2
REMARK VINA RESULT: -6.726874666      2.021      3.811
REMARK  4 active torsions:
REMARK  status: ('A' for Active; 'I' for Inactive)
REMARK    1  A    between atoms: C1_2  and  C2_4 
REMARK    2  A    between atoms: C2_4  and  O3_5 
REMARK    3  A    between atoms: O3_5  and  C3_6 
REMARK    4  A    between atoms: C4_7  and  C5_8 
ROOT
HETATM    1  C3  UNL     1      44.501  14.189   1.241  1.00  0.00     0.106 A 
HETATM    2  C4  UNL     1      44.278  15.154   0.303  1.00  0.00     0.117 A 
HETATM    3  S1  UNL     1      44.381  14.314  -1.165  1.00  0.00    -0.062 SA
HETATM    4  C6  UNL     1      44.709  12.739  -0.562  1.00  0.00     0.088 A 
HETATM    5  N1  UNL     1      44.920  11.522  -1.161  1.00  0.00    -0.360 N 
ATOM      6  H1  UNL     1      44.892  11.465  -2.179  1.00  0.00     0.166 HD
HETATM    7  C7  UNL     1      45.164  10.406  -0.457  1.00  0.00     0.089 A 
HETATM    8  C8  UNL     1      45.189  10.558   0.913  1.00  0.00     0.018 A 
HETATM    9  C9  UNL     1      44.981  11.762   1.538  1.00  0.00     0.018 A 
HETATM   10  C10 UNL     1      44.725  12.931   0.786  1.00  0.00     0.033 A 
ENDROOT
BRANCH   1  11
HETATM   11  O3  UNL     1      44.491  14.532   2.629  1.00  0.00    -0.338 OA
BRANCH  11  12
HETATM   12  C2  UNL     1      45.662  15.189   3.132  1.00  0.00     0.288 C 
BRANCH  12  13
HETATM   13  C1  UNL     1      45.299  16.282   4.033  1.00  0.00     0.198 C 
HETATM   14  O1  UNL     1      44.331  16.111   4.818  1.00  0.00    -0.646 OA
HETATM   15  O2  UNL     1      45.943  17.510   4.094  1.00  0.00    -0.646 OA
ENDBRANCH  12  13
ENDBRANCH  11  12
ENDBRANCH   1  11
BRANCH   2  16
HETATM   16  C5  UNL     1      44.006  16.583   0.523  1.00  0.00     0.219 C 
HETATM   17  O4  UNL     1      44.653  17.447  -0.115  1.00  0.00    -0.643 OA
HETATM   18  O5  UNL     1      43.051  17.001   1.422  1.00  0.00    -0.643 OA
ENDBRANCH   2  16
TORSDOF 4
ENDMDL
