MODEL 13
REMARK VINA RESULT: -5.302620155      3.003      5.029
REMARK  4 active torsions:
REMARK  status: ('A' for Active; 'I' for Inactive)
REMARK    1  A    between atoms: C1_2  and  C2_4 
REMARK    2  A    between atoms: C2_4  and  O3_5 
REMARK    3  A    between atoms: O3_5  and  C3_6 
REMARK    4  A    between atoms: C4_7  and  C5_8 
ROOT
HETATM    1  C3  UNL     1      44.516  13.920   0.574  1.00  0.00     0.106 A 
HETATM    2  C4  UNL     1      44.917  12.637   0.342  1.00  0.00     0.117 A 
HETATM    3  S1  UNL     1      45.125  12.580  -1.338  1.00  0.00    -0.062 SA
HETATM    4  C6  UNL     1      44.696  14.198  -1.726  1.00  0.00     0.088 A 
HETATM    5  N1  UNL     1      44.623  14.902  -2.902  1.00  0.00    -0.360 N 
ATOM      6  H1  UNL     1      44.860  14.427  -3.773  1.00  0.00     0.166 HD
HETATM    7  C7  UNL     1      44.252  16.191  -2.949  1.00  0.00     0.089 A 
HETATM    8  C8  UNL     1      43.946  16.768  -1.735  1.00  0.00     0.018 A 
HETATM    9  C9  UNL     1      44.009  16.089  -0.544  1.00  0.00     0.018 A 
HETATM   10  C10 UNL     1      44.403  14.731  -0.507  1.00  0.00     0.033 A 
ENDROOT
BRANCH   1  11
HETATM   11  O3  UNL     1      44.239  14.348   1.910  1.00  0.00    -0.338 OA
BRANCH  11  12
HETATM   12  C2  UNL     1      45.298  15.034   2.592  1.00  0.00     0.288 C 
BRANCH  12  13
HETATM   13  C1  UNL     1      44.768  16.120   3.415  1.00  0.00     0.198 C 
HETATM   14  O1  UNL     1      44.551  17.231   2.868  1.00  0.00    -0.646 OA
HETATM   15  O2  UNL     1      44.483  16.025   4.770  1.00  0.00    -0.646 OA
ENDBRANCH  12  13
ENDBRANCH  11  12
ENDBRANCH   1  11
BRANCH   2  16
HETATM   16  C5  UNL     1      45.124  11.563   1.327  1.00  0.00     0.219 C 
HETATM   17  O4  UNL     1      44.467  10.498   1.237  1.00  0.00    -0.643 OA
HETATM   18  O5  UNL     1      46.029  11.697   2.355  1.00  0.00    -0.643 OA
ENDBRANCH   2  16
TORSDOF 4
ENDMDL
