MODEL 5
REMARK VINA RESULT: -6.674568013      2.222      3.763
REMARK  4 active torsions:
REMARK  status: ('A' for Active; 'I' for Inactive)
REMARK    1  A    between atoms: C1_2  and  C2_4 
REMARK    2  A    between atoms: C2_4  and  O3_5 
REMARK    3  A    between atoms: O3_5  and  C3_6 
REMARK    4  A    between atoms: C4_7  and  C5_8 
ROOT
HETATM    1  C3  UNL     1      45.737  14.484   3.096  1.00  0.00     0.106 A 
HETATM    2  C4  UNL     1      44.838  15.411   2.657  1.00  0.00     0.117 A 
HETATM    3  S1  UNL     1      44.128  14.671   1.309  1.00  0.00    -0.062 SA
HETATM    4  C6  UNL     1      44.990  13.185   1.322  1.00  0.00     0.088 A 
HETATM    5  N1  UNL     1      44.961  12.068   0.525  1.00  0.00    -0.360 N 
ATOM      6  H1  UNL     1      44.314  12.044  -0.263  1.00  0.00     0.166 HD
HETATM    7  C7  UNL     1      45.753  11.006   0.744  1.00  0.00     0.089 A 
HETATM    8  C8  UNL     1      46.602  11.108   1.824  1.00  0.00     0.018 A 
HETATM    9  C9  UNL     1      46.653  12.213   2.637  1.00  0.00     0.018 A 
HETATM   10  C10 UNL     1      45.813  13.325   2.397  1.00  0.00     0.033 A 
ENDROOT
BRANCH   1  11
HETATM   11  O3  UNL     1      46.543  14.764   4.244  1.00  0.00    -0.338 OA
BRANCH  11  12
HETATM   12  C2  UNL     1      47.740  15.519   4.014  1.00  0.00     0.288 C 
BRANCH  12  13
HETATM   13  C1  UNL     1      47.781  16.703   4.869  1.00  0.00     0.198 C 
HETATM   14  O1  UNL     1      48.765  17.481   4.765  1.00  0.00    -0.646 OA
HETATM   15  O2  UNL     1      46.811  17.046   5.801  1.00  0.00    -0.646 OA
ENDBRANCH  12  13
ENDBRANCH  11  12
ENDBRANCH   1  11
BRANCH   2  16
HETATM   16  C5  UNL     1      44.553  16.737   3.229  1.00  0.00     0.219 C 
HETATM   17  O4  UNL     1      44.709  17.766   2.530  1.00  0.00    -0.643 OA
HETATM   18  O5  UNL     1      44.116  16.878   4.527  1.00  0.00    -0.643 OA
ENDBRANCH   2  16
TORSDOF 4
ENDMDL
