MODEL 8
REMARK VINA RESULT: -6.200807936      2.262      3.779
REMARK  4 active torsions:
REMARK  status: ('A' for Active; 'I' for Inactive)
REMARK    1  A    between atoms: C1_2  and  C2_4 
REMARK    2  A    between atoms: C2_4  and  O3_5 
REMARK    3  A    between atoms: O3_5  and  C3_6 
REMARK    4  A    between atoms: C4_7  and  C5_8 
ROOT
HETATM    1  C3  UNL     1      45.212  14.675   2.430  1.00  0.00     0.106 A 
HETATM    2  C4  UNL     1      44.664  15.759   1.808  1.00  0.00     0.117 A 
HETATM    3  S1  UNL     1      44.180  15.152   0.302  1.00  0.00    -0.062 SA
HETATM    4  C6  UNL     1      44.685  13.520   0.485  1.00  0.00     0.088 A 
HETATM    5  N1  UNL     1      44.628  12.415  -0.327  1.00  0.00    -0.360 N 
ATOM      6  H1  UNL     1      44.210  12.508  -1.253  1.00  0.00     0.166 HD
HETATM    7  C7  UNL     1      45.101  11.217   0.050  1.00  0.00     0.089 A 
HETATM    8  C8  UNL     1      45.653  11.166   1.312  1.00  0.00     0.018 A 
HETATM    9  C9  UNL     1      45.724  12.253   2.146  1.00  0.00     0.018 A 
HETATM   10  C10 UNL     1      45.221  13.510   1.737  1.00  0.00     0.033 A 
ENDROOT
BRANCH   1  11
HETATM   11  O3  UNL     1      45.742  14.808   3.752  1.00  0.00    -0.338 OA
BRANCH  11  12
HETATM   12  C2  UNL     1      47.171  14.855   3.864  1.00  0.00     0.288 C 
BRANCH  12  13
HETATM   13  C1  UNL     1      47.591  15.999   4.672  1.00  0.00     0.198 C 
HETATM   14  O1  UNL     1      46.889  16.318   5.665  1.00  0.00    -0.646 OA
HETATM   15  O2  UNL     1      48.718  16.773   4.430  1.00  0.00    -0.646 OA
ENDBRANCH  12  13
ENDBRANCH  11  12
ENDBRANCH   1  11
BRANCH   2  16
HETATM   16  C5  UNL     1      44.525  17.127   2.331  1.00  0.00     0.219 C 
HETATM   17  O4  UNL     1      43.481  17.782   2.098  1.00  0.00    -0.643 OA
HETATM   18  O5  UNL     1      45.522  17.714   3.078  1.00  0.00    -0.643 OA
ENDBRANCH   2  16
TORSDOF 4
ENDMDL
