MODEL 7
REMARK VINA RESULT: -6.201920732      1.780      3.884
REMARK  4 active torsions:
REMARK  status: ('A' for Active; 'I' for Inactive)
REMARK    1  A    between atoms: C1_2  and  C2_4 
REMARK    2  A    between atoms: C2_4  and  O3_5 
REMARK    3  A    between atoms: O3_5  and  C3_6 
REMARK    4  A    between atoms: C4_7  and  C5_8 
ROOT
HETATM    1  C3  UNL     1      44.741  14.051   1.169  1.00  0.00     0.106 A 
HETATM    2  C4  UNL     1      44.383  14.582  -0.036  1.00  0.00     0.117 A 
HETATM    3  S1  UNL     1      44.804  13.374  -1.145  1.00  0.00    -0.062 SA
HETATM    4  C6  UNL     1      45.434  12.203  -0.056  1.00  0.00     0.088 A 
HETATM    5  N1  UNL     1      45.972  10.951  -0.220  1.00  0.00    -0.360 N 
ATOM      6  H1  UNL     1      46.046  10.569  -1.163  1.00  0.00     0.166 HD
HETATM    7  C7  UNL     1      46.404  10.212   0.813  1.00  0.00     0.089 A 
HETATM    8  C8  UNL     1      46.275  10.792   2.057  1.00  0.00     0.018 A 
HETATM    9  C9  UNL     1      45.742  12.042   2.250  1.00  0.00     0.018 A 
HETATM   10  C10 UNL     1      45.288  12.811   1.153  1.00  0.00     0.033 A 
ENDROOT
BRANCH   1  11
HETATM   11  O3  UNL     1      44.532  14.804   2.367  1.00  0.00    -0.338 OA
BRANCH  11  12
HETATM   12  C2  UNL     1      45.692  15.417   2.946  1.00  0.00     0.288 C 
BRANCH  12  13
HETATM   13  C1  UNL     1      45.313  16.343   4.012  1.00  0.00     0.198 C 
HETATM   14  O1  UNL     1      44.340  16.039   4.748  1.00  0.00    -0.646 OA
HETATM   15  O2  UNL     1      45.948  17.548   4.282  1.00  0.00    -0.646 OA
ENDBRANCH  12  13
ENDBRANCH  11  12
ENDBRANCH   1  11
BRANCH   2  16
HETATM   16  C5  UNL     1      43.771  15.894  -0.299  1.00  0.00     0.219 C 
HETATM   17  O4  UNL     1      42.734  15.970  -1.000  1.00  0.00    -0.643 OA
HETATM   18  O5  UNL     1      44.314  17.053   0.208  1.00  0.00    -0.643 OA
ENDBRANCH   2  16
TORSDOF 4
ENDMDL
