MODEL 3
REMARK VINA RESULT: -6.722104540      1.706      3.680
REMARK  4 active torsions:
REMARK  status: ('A' for Active; 'I' for Inactive)
REMARK    1  A    between atoms: C1_2  and  C2_4 
REMARK    2  A    between atoms: C2_4  and  O3_5 
REMARK    3  A    between atoms: O3_5  and  C3_6 
REMARK    4  A    between atoms: C4_7  and  C5_8 
ROOT
HETATM    1  C3  UNL     1      45.038  14.388   1.898  1.00  0.00     0.106 A 
HETATM    2  C4  UNL     1      44.474  15.079   0.866  1.00  0.00     0.117 A 
HETATM    3  S1  UNL     1      44.474  13.963  -0.408  1.00  0.00    -0.062 SA
HETATM    4  C6  UNL     1      45.197  12.626   0.393  1.00  0.00     0.088 A 
HETATM    5  N1  UNL     1      45.527  11.353   0.000  1.00  0.00    -0.360 N 
ATOM      6  H1  UNL     1      45.331  11.069  -0.960  1.00  0.00     0.166 HD
HETATM    7  C7  UNL     1      46.098  10.467   0.832  1.00  0.00     0.089 A 
HETATM    8  C8  UNL     1      46.335  10.919   2.112  1.00  0.00     0.018 A 
HETATM    9  C9  UNL     1      46.016  12.186   2.532  1.00  0.00     0.018 A 
HETATM   10  C10 UNL     1      45.413  13.109   1.647  1.00  0.00     0.033 A 
ENDROOT
BRANCH   1  11
HETATM   11  O3  UNL     1      45.208  15.023   3.168  1.00  0.00    -0.338 OA
BRANCH  11  12
HETATM   12  C2  UNL     1      46.413  15.778   3.348  1.00  0.00     0.288 C 
BRANCH  12  13
HETATM   13  C1  UNL     1      46.162  16.977   4.145  1.00  0.00     0.198 C 
HETATM   14  O1  UNL     1      45.029  17.116   4.674  1.00  0.00    -0.646 OA
HETATM   15  O2  UNL     1      47.083  17.991   4.369  1.00  0.00    -0.646 OA
ENDBRANCH  12  13
ENDBRANCH  11  12
ENDBRANCH   1  11
BRANCH   2  16
HETATM   16  C5  UNL     1      43.979  16.464   0.869  1.00  0.00     0.219 C 
HETATM   17  O4  UNL     1      44.474  17.307   0.083  1.00  0.00    -0.643 OA
HETATM   18  O5  UNL     1      42.975  16.865   1.721  1.00  0.00    -0.643 OA
ENDBRANCH   2  16
TORSDOF 4
ENDMDL
