MODEL 14
REMARK VINA RESULT: -5.252921825      8.229      9.647
REMARK  4 active torsions:
REMARK  status: ('A' for Active; 'I' for Inactive)
REMARK    1  A    between atoms: C1_2  and  C2_4 
REMARK    2  A    between atoms: C2_4  and  O3_5 
REMARK    3  A    between atoms: O3_5  and  C3_6 
REMARK    4  A    between atoms: C4_7  and  C5_8 
ROOT
HETATM    1  C3  UNL     1      51.093   7.743   2.438  1.00  0.00     0.106 A 
HETATM    2  C4  UNL     1      51.178   7.060   3.617  1.00  0.00     0.117 A 
HETATM    3  S1  UNL     1      49.564   6.708   3.992  1.00  0.00    -0.062 SA
HETATM    4  C6  UNL     1      48.798   7.438   2.638  1.00  0.00     0.088 A 
HETATM    5  N1  UNL     1      47.489   7.562   2.245  1.00  0.00    -0.360 N 
ATOM      6  H1  UNL     1      46.760   7.159   2.833  1.00  0.00     0.166 HD
HETATM    7  C7  UNL     1      47.133   8.194   1.115  1.00  0.00     0.089 A 
HETATM    8  C8  UNL     1      48.170   8.715   0.371  1.00  0.00     0.018 A 
HETATM    9  C9  UNL     1      49.487   8.607   0.740  1.00  0.00     0.018 A 
HETATM   10  C10 UNL     1      49.850   7.938   1.932  1.00  0.00     0.033 A 
ENDROOT
BRANCH   1  11
HETATM   11  O3  UNL     1      52.284   8.214   1.803  1.00  0.00    -0.338 OA
BRANCH  11  12
HETATM   12  C2  UNL     1      52.699   9.547   2.132  1.00  0.00     0.288 C 
BRANCH  12  13
HETATM   13  C1  UNL     1      53.356  10.184   0.993  1.00  0.00     0.198 C 
HETATM   14  O1  UNL     1      52.764  10.180  -0.116  1.00  0.00    -0.646 OA
HETATM   15  O2  UNL     1      54.599  10.801   1.034  1.00  0.00    -0.646 OA
ENDBRANCH  12  13
ENDBRANCH  11  12
ENDBRANCH   1  11
BRANCH   2  16
HETATM   16  C5  UNL     1      52.391   6.712   4.373  1.00  0.00     0.219 C 
HETATM   17  O4  UNL     1      52.975   7.587   5.055  1.00  0.00    -0.643 OA
HETATM   18  O5  UNL     1      52.907   5.436   4.353  1.00  0.00    -0.643 OA
ENDBRANCH   2  16
TORSDOF 4
ENDMDL
