MODEL 9
REMARK VINA RESULT: -6.041585819      2.073      4.065
REMARK  4 active torsions:
REMARK  status: ('A' for Active; 'I' for Inactive)
REMARK    1  A    between atoms: C1_2  and  C2_4 
REMARK    2  A    between atoms: C2_4  and  O3_5 
REMARK    3  A    between atoms: O3_5  and  C3_6 
REMARK    4  A    between atoms: C4_7  and  C5_8 
ROOT
HETATM    1  C3  UNL     1      44.945  14.681   2.019  1.00  0.00     0.106 A 
HETATM    2  C4  UNL     1      45.292  13.366   1.904  1.00  0.00     0.117 A 
HETATM    3  S1  UNL     1      46.590  13.200   2.980  1.00  0.00    -0.062 SA
HETATM    4  C6  UNL     1      46.674  14.814   3.565  1.00  0.00     0.088 A 
HETATM    5  N1  UNL     1      47.485  15.450   4.471  1.00  0.00    -0.360 N 
ATOM      6  H1  UNL     1      48.217  14.913   4.936  1.00  0.00     0.166 HD
HETATM    7  C7  UNL     1      47.351  16.752   4.768  1.00  0.00     0.089 A 
HETATM    8  C8  UNL     1      46.343  17.415   4.101  1.00  0.00     0.018 A 
HETATM    9  C9  UNL     1      45.518  16.804   3.190  1.00  0.00     0.018 A 
HETATM   10  C10 UNL     1      45.668  15.431   2.887  1.00  0.00     0.033 A 
ENDROOT
BRANCH   1  11
HETATM   11  O3  UNL     1      43.863  15.200   1.242  1.00  0.00    -0.338 OA
BRANCH  11  12
HETATM   12  C2  UNL     1      44.195  16.213   0.283  1.00  0.00     0.288 C 
BRANCH  12  13
HETATM   13  C1  UNL     1      43.793  15.808  -1.062  1.00  0.00     0.198 C 
HETATM   14  O1  UNL     1      42.570  15.835  -1.353  1.00  0.00    -0.646 OA
HETATM   15  O2  UNL     1      44.663  15.387  -2.060  1.00  0.00    -0.646 OA
ENDBRANCH  12  13
ENDBRANCH  11  12
ENDBRANCH   1  11
BRANCH   2  16
HETATM   16  C5  UNL     1      44.676  12.340   1.048  1.00  0.00     0.219 C 
HETATM   17  O4  UNL     1      44.262  11.271   1.554  1.00  0.00    -0.643 OA
HETATM   18  O5  UNL     1      44.540  12.526  -0.309  1.00  0.00    -0.643 OA
ENDBRANCH   2  16
TORSDOF 4
ENDMDL
