MODEL 3
REMARK VINA RESULT: -8.899077984      4.800      6.550
REMARK  9 active torsions:
REMARK  status: ('A' for Active; 'I' for Inactive)
REMARK    1  A    between atoms: C1_2  and  C2_4 
REMARK    2  A    between atoms: C2_4  and  O3_5 
REMARK    3  A    between atoms: O3_5  and  C3_6 
REMARK    4  A    between atoms: C4_7  and  C5_8 
REMARK    5  A    between atoms: C10_17  and  N1_18 
REMARK    6  A    between atoms: N1_18  and  C11_20 
REMARK    7  A    between atoms: N2_23  and  S3_24 
REMARK    8  A    between atoms: S3_24  and  C14_27 
REMARK    9  A    between atoms: C14_27  and  C15_28 
ROOT
HETATM    1  C3  UNL     1      45.862  14.594   3.182  1.00  0.00     0.112 A 
HETATM    2  C4  UNL     1      44.911  15.441   2.718  1.00  0.00     0.117 A 
HETATM    3  S1  UNL     1      44.291  14.617   1.359  1.00  0.00    -0.078 SA
HETATM    4  C6  UNL     1      45.281  13.177   1.423  1.00  0.00     0.037 A 
HETATM    5  C7  UNL     1      46.031  13.417   2.484  1.00  0.00     0.058 A 
HETATM    6  S2  UNL     1      47.028  11.983   2.560  1.00  0.00    -0.085 SA
HETATM    7  C8  UNL     1      46.413  11.154   1.208  1.00  0.00     0.019 A 
HETATM    8  C9  UNL     1      46.704   9.916   0.607  1.00  0.00     0.049 A 
HETATM    9  C10 UNL     1      46.013   9.498  -0.522  1.00  0.00     0.029 A 
HETATM   10  C23 UNL     1      45.060  10.364  -0.979  1.00  0.00     0.030 A 
HETATM   11  C24 UNL     1      44.760  11.561  -0.419  1.00  0.00     0.016 A 
HETATM   12  C25 UNL     1      45.459  11.996   0.732  1.00  0.00    -0.000 A 
ENDROOT
BRANCH   9  13
HETATM   13  N1  UNL     1      46.314   8.260  -1.103  1.00  0.00    -0.385 N 
ATOM     14  H1  UNL     1      45.603   7.528  -1.088  1.00  0.00     0.160 HD
BRANCH  13  15
HETATM   15  C11 UNL     1      47.585   7.972  -1.723  1.00  0.00     0.084 C 
HETATM   16  C12 UNL     1      47.926   9.068  -2.689  1.00  0.00     0.040 C 
HETATM   17  C13 UNL     1      49.167   9.843  -2.300  1.00  0.00     0.109 C 
HETATM   18  N2  UNL     1      50.305   9.010  -2.100  1.00  0.00    -0.210 NA
HETATM   19  C21 UNL     1      49.998   7.796  -1.422  1.00  0.00     0.109 C 
HETATM   20  C22 UNL     1      48.693   7.894  -0.692  1.00  0.00     0.040 C 
BRANCH  18  21
HETATM   21  S3  UNL     1      51.624   9.866  -1.462  1.00  0.00     0.215 S 
HETATM   22  O6  UNL     1      52.455   8.887  -0.644  1.00  0.00    -0.211 OA
HETATM   23  O7  UNL     1      52.528  10.436  -2.493  1.00  0.00    -0.211 OA
BRANCH  21  24
HETATM   24  C14 UNL     1      51.139  11.160  -0.355  1.00  0.00     0.196 C 
BRANCH  24  25
HETATM   25  C15 UNL     1      51.488  12.494  -0.908  1.00  0.00    -0.043 A 
HETATM   26  C16 UNL     1      50.766  13.039  -1.962  1.00  0.00     0.008 A 
HETATM   27  C17 UNL     1      51.145  14.275  -2.422  1.00  0.00     0.001 A 
HETATM   28  C18 UNL     1      52.206  14.983  -1.876  1.00  0.00     0.000 A 
HETATM   29  C19 UNL     1      52.881  14.391  -0.837  1.00  0.00     0.001 A 
HETATM   30  C20 UNL     1      52.554  13.163  -0.333  1.00  0.00     0.008 A 
ENDBRANCH  24  25
ENDBRANCH  21  24
ENDBRANCH  18  21
ENDBRANCH  13  15
ENDBRANCH   9  13
BRANCH   1  31
HETATM   31  O3  UNL     1      46.631  14.920   4.308  1.00  0.00    -0.338 OA
BRANCH  31  32
HETATM   32  C2  UNL     1      47.794  15.618   4.398  1.00  0.00     0.288 C 
BRANCH  32  33
HETATM   33  C1  UNL     1      47.780  16.941   5.018  1.00  0.00     0.198 C 
HETATM   34  O1  UNL     1      46.812  17.213   5.823  1.00  0.00    -0.646 OA
HETATM   35  O2  UNL     1      48.678  17.972   4.869  1.00  0.00    -0.646 OA
ENDBRANCH  32  33
ENDBRANCH  31  32
ENDBRANCH   1  31
BRANCH   2  36
HETATM   36  C5  UNL     1      44.428  16.717   3.261  1.00  0.00     0.219 C 
HETATM   37  O4  UNL     1      44.354  17.702   2.506  1.00  0.00    -0.643 OA
HETATM   38  O5  UNL     1      44.070  16.799   4.574  1.00  0.00    -0.643 OA
ENDBRANCH   2  36
TORSDOF 9
ENDMDL
