MODEL 16
REMARK VINA RESULT: -8.388323637      3.731      5.906
REMARK  9 active torsions:
REMARK  status: ('A' for Active; 'I' for Inactive)
REMARK    1  A    between atoms: C1_2  and  C2_4 
REMARK    2  A    between atoms: C2_4  and  O3_5 
REMARK    3  A    between atoms: O3_5  and  C3_6 
REMARK    4  A    between atoms: C4_7  and  C5_8 
REMARK    5  A    between atoms: C10_17  and  N1_18 
REMARK    6  A    between atoms: N1_18  and  C11_20 
REMARK    7  A    between atoms: N2_23  and  S3_24 
REMARK    8  A    between atoms: S3_24  and  C14_27 
REMARK    9  A    between atoms: C14_27  and  C15_28 
ROOT
HETATM    1  C3  UNL     1      45.240  14.409   1.984  1.00  0.00     0.112 A 
HETATM    2  C4  UNL     1      44.474  14.756   0.921  1.00  0.00     0.117 A 
HETATM    3  S1  UNL     1      44.516  13.358  -0.055  1.00  0.00    -0.078 SA
HETATM    4  C6  UNL     1      45.529  12.342   0.944  1.00  0.00     0.037 A 
HETATM    5  C7  UNL     1      45.776  13.139   1.968  1.00  0.00     0.058 A 
HETATM    6  S2  UNL     1      46.790  12.134   2.978  1.00  0.00    -0.085 SA
HETATM    7  C8  UNL     1      46.834  10.736   2.011  1.00  0.00     0.019 A 
HETATM    8  C9  UNL     1      47.450   9.478   2.141  1.00  0.00     0.049 A 
HETATM    9  C10 UNL     1      47.299   8.511   1.157  1.00  0.00     0.029 A 
HETATM   10  C23 UNL     1      46.527   8.876   0.091  1.00  0.00     0.030 A 
HETATM   11  C24 UNL     1      45.923  10.080  -0.059  1.00  0.00     0.016 A 
HETATM   12  C25 UNL     1      46.071  11.073   0.938  1.00  0.00    -0.000 A 
ENDROOT
BRANCH   9  13
HETATM   13  N1  UNL     1      47.917   7.263   1.307  1.00  0.00    -0.385 N 
ATOM     14  H1  UNL     1      47.400   6.517   1.774  1.00  0.00     0.160 HD
BRANCH  13  15
HETATM   15  C11 UNL     1      49.250   6.984   0.832  1.00  0.00     0.084 C 
HETATM   16  C12 UNL     1      49.220   6.809  -0.657  1.00  0.00     0.040 C 
HETATM   17  C13 UNL     1      50.012   7.866  -1.399  1.00  0.00     0.109 C 
HETATM   18  N2  UNL     1      51.361   7.966  -0.956  1.00  0.00    -0.210 NA
HETATM   19  C21 UNL     1      51.495   7.856   0.457  1.00  0.00     0.109 C 
HETATM   20  C22 UNL     1      50.196   8.125   1.151  1.00  0.00     0.040 C 
BRANCH  18  21
HETATM   21  S3  UNL     1      52.168   9.289  -1.646  1.00  0.00     0.215 S 
HETATM   22  O6  UNL     1      53.663   9.026  -1.534  1.00  0.00    -0.211 OA
HETATM   23  O7  UNL     1      51.876   9.489  -3.088  1.00  0.00    -0.211 OA
BRANCH  21  24
HETATM   24  C14 UNL     1      51.861  10.809  -0.790  1.00  0.00     0.196 C 
BRANCH  24  25
HETATM   25  C15 UNL     1      50.755  11.568  -1.429  1.00  0.00    -0.043 A 
HETATM   26  C16 UNL     1      49.431  11.203  -1.224  1.00  0.00     0.008 A 
HETATM   27  C17 UNL     1      48.462  11.949  -1.847  1.00  0.00     0.001 A 
HETATM   28  C18 UNL     1      48.759  13.035  -2.657  1.00  0.00     0.000 A 
HETATM   29  C19 UNL     1      50.086  13.345  -2.820  1.00  0.00     0.001 A 
HETATM   30  C20 UNL     1      51.099  12.643  -2.228  1.00  0.00     0.008 A 
ENDBRANCH  24  25
ENDBRANCH  21  24
ENDBRANCH  18  21
ENDBRANCH  13  15
ENDBRANCH   9  13
BRANCH   1  31
HETATM   31  O3  UNL     1      45.472  15.312   3.032  1.00  0.00    -0.338 OA
BRANCH  31  32
HETATM   32  C2  UNL     1      46.552  16.100   3.281  1.00  0.00     0.288 C 
BRANCH  32  33
HETATM   33  C1  UNL     1      46.427  17.187   4.249  1.00  0.00     0.198 C 
HETATM   34  O1  UNL     1      45.280  17.361   4.807  1.00  0.00    -0.646 OA
HETATM   35  O2  UNL     1      47.385  18.080   4.670  1.00  0.00    -0.646 OA
ENDBRANCH  32  33
ENDBRANCH  31  32
ENDBRANCH   1  31
BRANCH   2  36
HETATM   36  C5  UNL     1      43.703  15.978   0.665  1.00  0.00     0.219 C 
HETATM   37  O4  UNL     1      43.543  16.353  -0.510  1.00  0.00    -0.643 OA
HETATM   38  O5  UNL     1      43.176  16.675   1.711  1.00  0.00    -0.643 OA
ENDBRANCH   2  36
TORSDOF 9
ENDMDL
