MODEL 6
REMARK VINA RESULT: -8.773535539      4.668      6.257
REMARK  9 active torsions:
REMARK  status: ('A' for Active; 'I' for Inactive)
REMARK    1  A    between atoms: C1_2  and  C2_4 
REMARK    2  A    between atoms: C2_4  and  O3_5 
REMARK    3  A    between atoms: O3_5  and  C3_6 
REMARK    4  A    between atoms: C4_7  and  C5_8 
REMARK    5  A    between atoms: C10_17  and  N1_18 
REMARK    6  A    between atoms: N1_18  and  C11_20 
REMARK    7  A    between atoms: N2_23  and  S3_24 
REMARK    8  A    between atoms: S3_24  and  C14_27 
REMARK    9  A    between atoms: C14_27  and  C15_28 
ROOT
HETATM    1  C3  UNL     1      45.852  14.580   3.199  1.00  0.00     0.112 A 
HETATM    2  C4  UNL     1      44.908  15.428   2.722  1.00  0.00     0.117 A 
HETATM    3  S1  UNL     1      44.296  14.597   1.364  1.00  0.00    -0.078 SA
HETATM    4  C6  UNL     1      45.280  13.154   1.444  1.00  0.00     0.037 A 
HETATM    5  C7  UNL     1      46.021  13.398   2.510  1.00  0.00     0.058 A 
HETATM    6  S2  UNL     1      47.012  11.960   2.604  1.00  0.00    -0.085 SA
HETATM    7  C8  UNL     1      46.405  11.125   1.252  1.00  0.00     0.019 A 
HETATM    8  C9  UNL     1      46.695   9.882   0.662  1.00  0.00     0.049 A 
HETATM    9  C10 UNL     1      46.012   9.460  -0.470  1.00  0.00     0.029 A 
HETATM   10  C23 UNL     1      45.066  10.326  -0.941  1.00  0.00     0.030 A 
HETATM   11  C24 UNL     1      44.766  11.528  -0.391  1.00  0.00     0.016 A 
HETATM   12  C25 UNL     1      45.458  11.968   0.763  1.00  0.00    -0.000 A 
ENDROOT
BRANCH   9  13
HETATM   13  N1  UNL     1      46.313   8.216  -1.041  1.00  0.00    -0.385 N 
ATOM     14  H1  UNL     1      45.620   7.469  -0.976  1.00  0.00     0.160 HD
BRANCH  13  15
HETATM   15  C11 UNL     1      47.559   7.944  -1.717  1.00  0.00     0.084 C 
HETATM   16  C12 UNL     1      48.033   9.189  -2.405  1.00  0.00     0.040 C 
HETATM   17  C13 UNL     1      49.342   9.715  -1.853  1.00  0.00     0.109 C 
HETATM   18  N2  UNL     1      50.380   8.741  -1.857  1.00  0.00    -0.210 NA
HETATM   19  C21 UNL     1      49.932   7.443  -1.476  1.00  0.00     0.109 C 
HETATM   20  C22 UNL     1      48.631   7.511  -0.737  1.00  0.00     0.040 C 
BRANCH  18  21
HETATM   21  S3  UNL     1      51.769   9.279  -1.045  1.00  0.00     0.215 S 
HETATM   22  O6  UNL     1      51.315  10.178   0.096  1.00  0.00    -0.211 OA
HETATM   23  O7  UNL     1      52.572   8.188  -0.436  1.00  0.00    -0.211 OA
BRANCH  21  24
HETATM   24  C14 UNL     1      52.831  10.261  -2.066  1.00  0.00     0.196 C 
BRANCH  24  25
HETATM   25  C15 UNL     1      52.849  11.675  -1.612  1.00  0.00    -0.043 A 
HETATM   26  C16 UNL     1      53.815  12.124  -0.720  1.00  0.00     0.008 A 
HETATM   27  C17 UNL     1      53.771  13.442  -0.344  1.00  0.00     0.001 A 
HETATM   28  C18 UNL     1      52.810  14.324  -0.819  1.00  0.00     0.000 A 
HETATM   29  C19 UNL     1      51.883  13.820  -1.697  1.00  0.00     0.001 A 
HETATM   30  C20 UNL     1      51.872  12.518  -2.112  1.00  0.00     0.008 A 
ENDBRANCH  24  25
ENDBRANCH  21  24
ENDBRANCH  18  21
ENDBRANCH  13  15
ENDBRANCH   9  13
BRANCH   1  31
HETATM   31  O3  UNL     1      46.613  14.910   4.329  1.00  0.00    -0.338 OA
BRANCH  31  32
HETATM   32  C2  UNL     1      47.781  15.601   4.423  1.00  0.00     0.288 C 
BRANCH  32  33
HETATM   33  C1  UNL     1      47.771  16.929   5.033  1.00  0.00     0.198 C 
HETATM   34  O1  UNL     1      46.816  17.203   5.852  1.00  0.00    -0.646 OA
HETATM   35  O2  UNL     1      48.661  17.963   4.859  1.00  0.00    -0.646 OA
ENDBRANCH  32  33
ENDBRANCH  31  32
ENDBRANCH   1  31
BRANCH   2  36
HETATM   36  C5  UNL     1      44.426  16.709   3.252  1.00  0.00     0.219 C 
HETATM   37  O4  UNL     1      44.338  17.683   2.485  1.00  0.00    -0.643 OA
HETATM   38  O5  UNL     1      44.085  16.808   4.568  1.00  0.00    -0.643 OA
ENDBRANCH   2  36
TORSDOF 9
ENDMDL
