MODEL 6
REMARK VINA RESULT: -5.671646126      7.432      8.910
REMARK  6 active torsions:
REMARK  status: ('A' for Active; 'I' for Inactive)
REMARK    1  A    between atoms: O1_1  and  C1_3 
REMARK    2  A    between atoms: C1_3  and  C2_4 
REMARK    3  A    between atoms: C3_6  and  O3_7 
REMARK    4  A    between atoms: C4_9  and  O4_10 
REMARK    5  A    between atoms: C5_12  and  O5_13 
REMARK    6  A    between atoms: C6_15  and  O6_16 
ROOT
HETATM    1  C2  UNL     1       4.568 100.546   6.522  1.00  0.00     0.179 C 
HETATM    2  O2  UNL     1       5.801 101.179   6.487  1.00  0.00    -0.349 OA
HETATM    3  C3  UNL     1       5.737 102.513   6.852  1.00  0.00     0.288 C 
HETATM    4  C4  UNL     1       4.867 103.218   5.826  1.00  0.00     0.204 C 
HETATM    5  C5  UNL     1       3.470 102.665   6.020  1.00  0.00     0.183 C 
HETATM    6  C6  UNL     1       3.559 101.198   5.615  1.00  0.00     0.180 C 
ENDROOT
BRANCH   1   7
HETATM    7  C1  UNL     1       4.815  99.110   6.038  1.00  0.00     0.198 C 
BRANCH   7   8
HETATM    8  O1  UNL     1       5.914  98.564   6.721  1.00  0.00    -0.398 OA
ATOM      9  H1  UNL     1       5.857  97.616   6.710  1.00  0.00     0.209 HD
ENDBRANCH   7   8
ENDBRANCH   1   7
BRANCH   6  10
HETATM   10  O6  UNL     1       2.316 100.623   5.830  1.00  0.00    -0.390 OA
ATOM     11  H6  UNL     1       1.675 101.310   5.976  1.00  0.00     0.210 HD
ENDBRANCH   6  10
BRANCH   3  12
HETATM   12  O3  UNL     1       7.023 103.023   6.892  1.00  0.00    -0.369 OA
ATOM     13  H3  UNL     1       7.015 103.829   7.394  1.00  0.00     0.212 HD
ENDBRANCH   3  12
BRANCH   5  14
HETATM   14  O5  UNL     1       2.526 103.348   5.278  1.00  0.00    -0.390 OA
ATOM     15  H5  UNL     1       1.929 102.764   4.825  1.00  0.00     0.210 HD
ENDBRANCH   5  14
BRANCH   4  16
HETATM   16  O4  UNL     1       4.909 104.596   5.965  1.00  0.00    -0.388 OA
ATOM     17  H4  UNL     1       4.554 104.882   6.798  1.00  0.00     0.210 HD
ENDBRANCH   4  16
TORSDOF 6
ENDMDL
