MODEL 8
REMARK VINA RESULT: -5.147384205      8.089      9.695
REMARK  6 active torsions:
REMARK  status: ('A' for Active; 'I' for Inactive)
REMARK    1  A    between atoms: O1_1  and  C1_3 
REMARK    2  A    between atoms: C1_3  and  C2_4 
REMARK    3  A    between atoms: C3_6  and  O3_7 
REMARK    4  A    between atoms: C4_9  and  O4_10 
REMARK    5  A    between atoms: C5_12  and  O5_13 
REMARK    6  A    between atoms: C6_15  and  O6_16 
ROOT
HETATM    1  C2  UNL     1       3.542 100.458   5.550  1.00  0.00     0.179 C 
HETATM    2  O2  UNL     1       2.584 101.433   5.785  1.00  0.00    -0.349 OA
HETATM    3  C3  UNL     1       3.016 102.707   5.460  1.00  0.00     0.288 C 
HETATM    4  C4  UNL     1       4.186 103.032   6.373  1.00  0.00     0.204 C 
HETATM    5  C5  UNL     1       5.302 102.094   5.959  1.00  0.00     0.183 C 
HETATM    6  C6  UNL     1       4.811 100.698   6.323  1.00  0.00     0.180 C 
ENDROOT
BRANCH   1   7
HETATM    7  C1  UNL     1       2.921  99.133   6.015  1.00  0.00     0.198 C 
BRANCH   7   8
HETATM    8  O1  UNL     1       3.488  98.068   5.296  1.00  0.00    -0.398 OA
ATOM      9  H1  UNL     1       3.072  98.000   4.446  1.00  0.00     0.209 HD
ENDBRANCH   7   8
ENDBRANCH   1   7
BRANCH   6  10
HETATM   10  O6  UNL     1       5.773  99.789   5.910  1.00  0.00    -0.390 OA
ATOM     11  H6  UNL     1       6.543 100.262   5.615  1.00  0.00     0.210 HD
ENDBRANCH   6  10
BRANCH   3  12
HETATM   12  O3  UNL     1       1.960 103.587   5.625  1.00  0.00    -0.369 OA
ATOM     13  H3  UNL     1       1.624 103.496   6.509  1.00  0.00     0.212 HD
ENDBRANCH   3  12
BRANCH   5  14
HETATM   14  O5  UNL     1       6.499 102.397   6.580  1.00  0.00    -0.390 OA
ATOM     15  H5  UNL     1       6.451 103.197   7.090  1.00  0.00     0.210 HD
ENDBRANCH   5  14
BRANCH   4  16
HETATM   16  O4  UNL     1       4.560 104.362   6.288  1.00  0.00    -0.388 OA
ATOM     17  H4  UNL     1       5.480 104.462   6.075  1.00  0.00     0.210 HD
ENDBRANCH   4  16
TORSDOF 6
ENDMDL
