MODEL 1
REMARK VINA RESULT: -7.419748814      0.000      0.000
REMARK  6 active torsions:
REMARK  status: ('A' for Active; 'I' for Inactive)
REMARK    1  A    between atoms: O1_1  and  C1_3 
REMARK    2  A    between atoms: C1_3  and  C2_4 
REMARK    3  A    between atoms: C3_6  and  O3_7 
REMARK    4  A    between atoms: C4_9  and  O4_10 
REMARK    5  A    between atoms: C5_12  and  O5_13 
REMARK    6  A    between atoms: C6_15  and  O6_16 
ROOT
HETATM    1  C2  UNL     1       7.361 104.435  13.288  1.00  0.00     0.179 C 
HETATM    2  O2  UNL     1       8.707 104.108  13.233  1.00  0.00    -0.349 OA
HETATM    3  C3  UNL     1       9.502 104.949  13.991  1.00  0.00     0.288 C 
HETATM    4  C4  UNL     1       9.378 106.342  13.395  1.00  0.00     0.204 C 
HETATM    5  C5  UNL     1       7.948 106.773  13.653  1.00  0.00     0.183 C 
HETATM    6  C6  UNL     1       7.087 105.836  12.813  1.00  0.00     0.180 C 
ENDROOT
BRANCH   1   7
HETATM    7  C1  UNL     1       6.646 103.447  12.356  1.00  0.00     0.198 C 
BRANCH   7   8
HETATM    8  O1  UNL     1       7.238 103.485  11.083  1.00  0.00    -0.398 OA
ATOM      9  H1  UNL     1       7.734 102.688  10.938  1.00  0.00     0.209 HD
ENDBRANCH   7   8
ENDBRANCH   1   7
BRANCH   6  10
HETATM   10  O6  UNL     1       5.759 106.149  13.057  1.00  0.00    -0.390 OA
ATOM     11  H6  UNL     1       5.497 106.863  12.489  1.00  0.00     0.210 HD
ENDBRANCH   6  10
BRANCH   3  12
HETATM   12  O3  UNL     1      10.804 104.478  13.957  1.00  0.00    -0.369 OA
ATOM     13  H3  UNL     1      11.278 104.845  14.694  1.00  0.00     0.212 HD
ENDBRANCH   3  12
BRANCH   5  14
HETATM   14  O5  UNL     1       7.733 108.099  13.331  1.00  0.00    -0.390 OA
ATOM     15  H5  UNL     1       8.105 108.693  13.972  1.00  0.00     0.210 HD
ENDBRANCH   5  14
BRANCH   4  16
HETATM   16  O4  UNL     1      10.297 107.224  13.936  1.00  0.00    -0.388 OA
ATOM     17  H4  UNL     1       9.903 108.059  14.161  1.00  0.00     0.210 HD
ENDBRANCH   4  16
TORSDOF 6
ENDMDL
