MODEL 7
REMARK VINA RESULT: -5.240295042      7.706      9.622
REMARK  6 active torsions:
REMARK  status: ('A' for Active; 'I' for Inactive)
REMARK    1  A    between atoms: O1_1  and  C1_3 
REMARK    2  A    between atoms: C1_3  and  C2_4 
REMARK    3  A    between atoms: C3_6  and  O3_7 
REMARK    4  A    between atoms: C4_9  and  O4_10 
REMARK    5  A    between atoms: C5_12  and  O5_13 
REMARK    6  A    between atoms: C6_15  and  O6_16 
ROOT
HETATM    1  C2  UNL     1       3.015 101.801   4.965  1.00  0.00     0.179 C 
HETATM    2  O2  UNL     1       3.367 103.061   5.420  1.00  0.00    -0.349 OA
HETATM    3  C3  UNL     1       4.728 103.200   5.634  1.00  0.00     0.288 C 
HETATM    4  C4  UNL     1       5.111 102.227   6.736  1.00  0.00     0.204 C 
HETATM    5  C5  UNL     1       4.920 100.844   6.147  1.00  0.00     0.183 C 
HETATM    6  C6  UNL     1       3.419 100.708   5.917  1.00  0.00     0.180 C 
ENDROOT
BRANCH   1   7
HETATM    7  C1  UNL     1       1.485 101.807   4.839  1.00  0.00     0.198 C 
BRANCH   7   8
HETATM    8  O1  UNL     1       0.956 102.887   5.566  1.00  0.00    -0.398 OA
ATOM      9  H1  UNL     1       0.052 103.030   5.313  1.00  0.00     0.209 HD
ENDBRANCH   7   8
ENDBRANCH   1   7
BRANCH   6  10
HETATM   10  O6  UNL     1       3.192  99.477   5.322  1.00  0.00    -0.390 OA
ATOM     11  H6  UNL     1       2.924  98.853   5.987  1.00  0.00     0.210 HD
ENDBRANCH   6  10
BRANCH   3  12
HETATM   12  O3  UNL     1       4.989 104.516   5.980  1.00  0.00    -0.369 OA
ATOM     13  H3  UNL     1       5.509 104.913   5.291  1.00  0.00     0.212 HD
ENDBRANCH   3  12
BRANCH   5  14
HETATM   14  O5  UNL     1       5.407  99.849   6.974  1.00  0.00    -0.390 OA
ATOM     15  H5  UNL     1       5.406  98.997   6.554  1.00  0.00     0.210 HD
ENDBRANCH   5  14
BRANCH   4  16
HETATM   16  O4  UNL     1       6.405 102.431   7.186  1.00  0.00    -0.388 OA
ATOM     17  H4  UNL     1       7.048 102.007   6.630  1.00  0.00     0.210 HD
ENDBRANCH   4  16
TORSDOF 6
ENDMDL
