MODEL 2
REMARK VINA RESULT: -5.079459639      0.081      1.462
REMARK  2 active torsions:
REMARK  status: ('A' for Active; 'I' for Inactive)
REMARK    1  A    between atoms: N1_2  and  C4_5 
REMARK    2  A    between atoms: C4_5  and  C5_6 
ROOT
HETATM    1  C1  UNL     1       9.933  12.272  16.774  1.00  0.00     0.272 C 
HETATM    2  N1  UNL     1      10.156  10.841  16.551  1.00  0.00    -0.069 N 
HETATM    3  C2  UNL     1       9.148  10.352  15.656  1.00  0.00     0.272 C 
HETATM    4  C3  UNL     1      11.473  10.625  15.996  1.00  0.00     0.272 C 
ENDROOT
BRANCH   2   5
HETATM    5  C4  UNL     1      10.119  10.219  17.858  1.00  0.00     0.348 C 
BRANCH   5   6
HETATM    6  C5  UNL     1      10.632   8.822  17.795  1.00  0.00     0.199 C 
HETATM    7  O1  UNL     1      10.663   8.187  16.707  1.00  0.00    -0.647 OA
HETATM    8  O2  UNL     1      11.096   8.155  18.919  1.00  0.00    -0.647 OA
ENDBRANCH   5   6
ENDBRANCH   2   5
TORSDOF 2
ENDMDL
