MODEL 6
REMARK VINA RESULT: -4.654047272      0.631      1.436
REMARK  2 active torsions:
REMARK  status: ('A' for Active; 'I' for Inactive)
REMARK    1  A    between atoms: N1_2  and  C4_5 
REMARK    2  A    between atoms: C4_5  and  C5_6 
ROOT
HETATM    1  C1  UNL     1       9.548  10.820  18.131  1.00  0.00     0.272 C 
HETATM    2  N1  UNL     1      10.112  10.859  16.779  1.00  0.00    -0.069 N 
HETATM    3  C2  UNL     1       9.104  10.447  15.847  1.00  0.00     0.272 C 
HETATM    4  C3  UNL     1      10.570  12.196  16.471  1.00  0.00     0.272 C 
ENDROOT
BRANCH   2   5
HETATM    5  C4  UNL     1      11.270   9.991  16.800  1.00  0.00     0.348 C 
BRANCH   5   6
HETATM    6  C5  UNL     1      10.913   8.642  17.325  1.00  0.00     0.199 C 
HETATM    7  O1  UNL     1      10.345   7.788  16.594  1.00  0.00    -0.647 OA
HETATM    8  O2  UNL     1      11.185   8.264  18.631  1.00  0.00    -0.647 OA
ENDBRANCH   5   6
ENDBRANCH   2   5
TORSDOF 2
ENDMDL
