MODEL 5
REMARK VINA RESULT: -4.667487787      0.604      1.234
REMARK  2 active torsions:
REMARK  status: ('A' for Active; 'I' for Inactive)
REMARK    1  A    between atoms: N1_2  and  C4_5 
REMARK    2  A    between atoms: C4_5  and  C5_6 
ROOT
HETATM    1  C1  UNL     1       9.119  10.400  15.863  1.00  0.00     0.272 C 
HETATM    2  N1  UNL     1      10.075  10.884  16.862  1.00  0.00    -0.069 N 
HETATM    3  C2  UNL     1      10.375  12.259  16.585  1.00  0.00     0.272 C 
HETATM    4  C3  UNL     1       9.517  10.746  18.190  1.00  0.00     0.272 C 
ENDROOT
BRANCH   2   5
HETATM    5  C4  UNL     1      11.226  10.011  16.775  1.00  0.00     0.348 C 
BRANCH   5   6
HETATM    6  C5  UNL     1      10.907   8.656  17.306  1.00  0.00     0.199 C 
HETATM    7  O1  UNL     1      10.348   7.789  16.584  1.00  0.00    -0.647 OA
HETATM    8  O2  UNL     1      11.206   8.286  18.609  1.00  0.00    -0.647 OA
ENDBRANCH   5   6
ENDBRANCH   2   5
TORSDOF 2
ENDMDL
