MODEL 3
REMARK VINA RESULT: -4.921678656      0.104      1.439
REMARK  2 active torsions:
REMARK  status: ('A' for Active; 'I' for Inactive)
REMARK    1  A    between atoms: N1_2  and  C4_5 
REMARK    2  A    between atoms: C4_5  and  C5_6 
ROOT
HETATM    1  C1  UNL     1      11.455  10.604  16.135  1.00  0.00     0.272 C 
HETATM    2  N1  UNL     1      10.105  10.901  16.620  1.00  0.00    -0.069 N 
HETATM    3  C2  UNL     1       9.967  12.322  16.758  1.00  0.00     0.272 C 
HETATM    4  C3  UNL     1       9.121  10.384  15.695  1.00  0.00     0.272 C 
ENDROOT
BRANCH   2   5
HETATM    5  C4  UNL     1       9.958  10.182  17.868  1.00  0.00     0.348 C 
BRANCH   5   6
HETATM    6  C5  UNL     1      10.569   8.827  17.775  1.00  0.00     0.199 C 
HETATM    7  O1  UNL     1      10.599   8.199  16.683  1.00  0.00    -0.647 OA
HETATM    8  O2  UNL     1      11.129   8.193  18.874  1.00  0.00    -0.647 OA
ENDBRANCH   5   6
ENDBRANCH   2   5
TORSDOF 2
ENDMDL
