MODEL 1
REMARK VINA RESULT: -5.104180719      0.000      0.000
REMARK  2 active torsions:
REMARK  status: ('A' for Active; 'I' for Inactive)
REMARK    1  A    between atoms: N1_2  and  C4_5 
REMARK    2  A    between atoms: C4_5  and  C5_6 
ROOT
HETATM    1  C1  UNL     1       9.199  10.313  15.630  1.00  0.00     0.272 C 
HETATM    2  N1  UNL     1      10.187  10.842  16.574  1.00  0.00    -0.069 N 
HETATM    3  C2  UNL     1      11.498  10.642  16.028  1.00  0.00     0.272 C 
HETATM    4  C3  UNL     1       9.945  12.248  16.808  1.00  0.00     0.272 C 
ENDROOT
BRANCH   2   5
HETATM    5  C4  UNL     1       9.967  10.142  17.822  1.00  0.00     0.348 C 
BRANCH   5   6
HETATM    6  C5  UNL     1      10.616   8.801  17.800  1.00  0.00     0.199 C 
HETATM    7  O1  UNL     1      10.736   8.152  16.727  1.00  0.00    -0.647 OA
HETATM    8  O2  UNL     1      11.115   8.205  18.949  1.00  0.00    -0.647 OA
ENDBRANCH   5   6
ENDBRANCH   2   5
TORSDOF 2
ENDMDL
