MODEL 3
REMARK VINA RESULT: -8.665688318      2.859      6.488
REMARK  11 active torsions:
REMARK  status: ('A' for Active; 'I' for Inactive)
REMARK    1  A    between atoms: C1_2  and  C2_6 
REMARK    2  A    between atoms: C6_12  and  C7_13 
REMARK    3  A    between atoms: C9_15  and  C10_16 
REMARK    4  A    between atoms: C10_16  and  C11_17 
REMARK    5  A    between atoms: C10_16  and  C13_21 
REMARK    6  A    between atoms: C11_17  and  C12_18 
REMARK    7  A    between atoms: C15_25  and  C16_26 
REMARK    8  A    between atoms: C18_28  and  C19_29 
REMARK    9  A    between atoms: C19_29  and  N4_30 
REMARK       I    between atoms: N4_30  and  C20_32 
REMARK   10  A    between atoms: C23_37  and  O6_38 
REMARK   11  A    between atoms: C24_40  and  O7_41 
ROOT
HETATM    1  C7  UNL     1     -13.016   3.816   9.877  1.00  0.00     0.043 A 
HETATM    2  C8  UNL     1     -12.872   3.020   8.748  1.00  0.00     0.026 A 
HETATM    3  C9  UNL     1     -13.961   2.655   7.992  1.00  0.00    -0.041 A 
HETATM    4  C14 UNL     1     -15.222   3.077   8.351  1.00  0.00     0.023 A 
HETATM    5  C15 UNL     1     -15.424   3.863   9.456  1.00  0.00     0.011 A 
HETATM    6  C24 UNL     1     -14.287   4.213  10.197  1.00  0.00     0.090 A 
ENDROOT
BRANCH   1   7
HETATM    7  C6  UNL     1     -11.833   4.196  10.673  1.00  0.00     0.119 A 
HETATM    8  N3  UNL     1     -11.465   5.514  10.773  1.00  0.00    -0.340 N 
HETATM    9  C5  UNL     1     -10.384   5.612  11.530  1.00  0.00     0.060 A 
ATOM     10  H3  UNL     1     -11.949   6.295  10.333  1.00  0.00     0.167 HD
HETATM   11  C4  UNL     1      -9.638   6.691  11.929  1.00  0.00     0.033 A 
HETATM   12  C25 UNL     1     -10.064   4.334  11.915  1.00  0.00     0.061 A 
HETATM   13  C3  UNL     1      -8.518   6.507  12.749  1.00  0.00     0.017 A 
HETATM   14  C2  UNL     1      -8.209   5.226  13.126  1.00  0.00     0.007 A 
HETATM   15  C26 UNL     1      -8.971   4.139  12.717  1.00  0.00     0.046 A 
HETATM   16  N6  UNL     1     -10.980   3.470  11.369  1.00  0.00    -0.340 N 
ATOM     17  H6  UNL     1     -10.998   2.456  11.480  1.00  0.00     0.167 HD
BRANCH  14  18
HETATM   18  C1  UNL     1      -7.059   4.963  13.979  1.00  0.00     0.120 C 
HETATM   19  N1  UNL     1      -6.809   3.611  14.391  1.00  0.00    -0.082 NA
HETATM   20  N2  UNL     1      -6.296   5.916  14.346  1.00  0.00    -0.387 N 
ATOM     21  H22 UNL     1      -5.490   5.731  14.945  1.00  0.00     0.157 HD
ATOM     22  H21 UNL     1      -6.474   6.876  14.053  1.00  0.00     0.157 HD
ENDBRANCH  14  18
ENDBRANCH   1   7
BRANCH   6  23
HETATM   23  O7  UNL     1     -14.491   5.006  11.311  1.00  0.00    -0.359 OA
ATOM     24  H7  UNL     1     -14.589   4.598  12.163  1.00  0.00     0.217 HD
ENDBRANCH   6  23
BRANCH   3  25
HETATM   25  C10 UNL     1     -13.754   1.790   6.773  1.00  0.00     0.129 C 
BRANCH  25  26
HETATM   26  C11 UNL     1     -14.781   2.063   5.731  1.00  0.00     0.133 C 
BRANCH  26  27
HETATM   27  C12 UNL     1     -15.539   0.833   5.431  1.00  0.00     0.173 C 
HETATM   28  O1  UNL     1     -15.461  -0.238   6.079  1.00  0.00    -0.648 OA
HETATM   29  O2  UNL     1     -16.417   0.844   4.339  1.00  0.00    -0.648 OA
ENDBRANCH  26  27
ENDBRANCH  25  26
BRANCH  25  30
HETATM   30  C13 UNL     1     -12.375   1.963   6.285  1.00  0.00     0.182 C 
HETATM   31  O3  UNL     1     -12.081   2.708   5.333  1.00  0.00    -0.647 OA
HETATM   32  O4  UNL     1     -11.320   1.280   6.887  1.00  0.00    -0.647 OA
ENDBRANCH  25  30
ENDBRANCH   3  25
BRANCH   5  33
HETATM   33  C16 UNL     1     -16.755   4.326   9.857  1.00  0.00     0.011 A 
HETATM   34  C17 UNL     1     -17.539   3.618  10.745  1.00  0.00     0.024 A 
HETATM   35  C18 UNL     1     -18.789   4.073  11.108  1.00  0.00    -0.039 A 
HETATM   36  C21 UNL     1     -19.274   5.253  10.582  1.00  0.00     0.011 A 
HETATM   37  C22 UNL     1     -18.520   5.984   9.695  1.00  0.00     0.038 A 
HETATM   38  C23 UNL     1     -17.272   5.502   9.352  1.00  0.00     0.076 A 
BRANCH  35  39
HETATM   39  C19 UNL     1     -19.612   3.282  12.069  1.00  0.00     0.162 C 
BRANCH  39  40
HETATM   40  N4  UNL     1     -20.392   2.293  11.338  1.00  0.00    -0.341 N 
HETATM   41  C20 UNL     1     -21.798   2.511  11.140  1.00  0.00     0.328 C 
HETATM   42  N5  UNL     1     -22.604   1.590  10.442  1.00  0.00    -0.040 NA
HETATM   43  O5  UNL     1     -22.310   3.556  11.609  1.00  0.00    -0.251 OA
ATOM     44  H4  UNL     1     -19.944   1.454  10.970  1.00  0.00     0.164 HD
ENDBRANCH  39  40
ENDBRANCH  35  39
BRANCH  38  45
HETATM   45  O6  UNL     1     -16.515   6.255   8.450  1.00  0.00    -0.360 OA
ATOM     46  H6  UNL     1     -16.912   7.000   8.014  1.00  0.00     0.217 HD
ENDBRANCH  38  45
ENDBRANCH   5  33
TORSDOF 11
ENDMDL
