MODEL 1
REMARK VINA RESULT: -8.774999295      0.000      0.000
REMARK  11 active torsions:
REMARK  status: ('A' for Active; 'I' for Inactive)
REMARK    1  A    between atoms: C1_2  and  C2_6 
REMARK    2  A    between atoms: C6_12  and  C7_13 
REMARK    3  A    between atoms: C9_15  and  C10_16 
REMARK    4  A    between atoms: C10_16  and  C11_17 
REMARK    5  A    between atoms: C10_16  and  C13_21 
REMARK    6  A    between atoms: C11_17  and  C12_18 
REMARK    7  A    between atoms: C15_25  and  C16_26 
REMARK    8  A    between atoms: C18_28  and  C19_29 
REMARK    9  A    between atoms: C19_29  and  N4_30 
REMARK       I    between atoms: N4_30  and  C20_32 
REMARK   10  A    between atoms: C23_37  and  O6_38 
REMARK   11  A    between atoms: C24_40  and  O7_41 
ROOT
HETATM    1  C7  UNL     1     -13.654   3.907  10.284  1.00  0.00     0.043 A 
HETATM    2  C8  UNL     1     -14.859   4.272  10.870  1.00  0.00     0.026 A 
HETATM    3  C9  UNL     1     -16.061   3.957  10.281  1.00  0.00    -0.041 A 
HETATM    4  C14 UNL     1     -16.085   3.269   9.089  1.00  0.00     0.023 A 
HETATM    5  C15 UNL     1     -14.927   2.883   8.464  1.00  0.00     0.011 A 
HETATM    6  C24 UNL     1     -13.724   3.224   9.098  1.00  0.00     0.090 A 
ENDROOT
BRANCH   1   7
HETATM    7  C6  UNL     1     -12.376   4.255  10.933  1.00  0.00     0.119 A 
HETATM    8  N3  UNL     1     -11.889   5.535  10.853  1.00  0.00    -0.340 N 
HETATM    9  C5  UNL     1     -10.740   5.611  11.504  1.00  0.00     0.060 A 
ATOM     10  H3  UNL     1     -12.343   6.308  10.366  1.00  0.00     0.167 HD
HETATM   11  C4  UNL     1      -9.872   6.651  11.716  1.00  0.00     0.033 A 
HETATM   12  C25 UNL     1     -10.496   4.356  12.005  1.00  0.00     0.061 A 
HETATM   13  C3  UNL     1      -8.702   6.449  12.459  1.00  0.00     0.017 A 
HETATM   14  C2  UNL     1      -8.470   5.192  12.952  1.00  0.00     0.007 A 
HETATM   15  C26 UNL     1      -9.355   4.145  12.732  1.00  0.00     0.046 A 
HETATM   16  N6  UNL     1     -11.529   3.530  11.636  1.00  0.00    -0.340 N 
ATOM     17  H6  UNL     1     -11.623   2.540  11.863  1.00  0.00     0.167 HD
BRANCH  14  18
HETATM   18  C1  UNL     1      -7.275   4.914  13.734  1.00  0.00     0.120 C 
HETATM   19  N1  UNL     1      -7.015   3.557  14.127  1.00  0.00    -0.082 NA
HETATM   20  N2  UNL     1      -6.480   5.857  14.058  1.00  0.00    -0.387 N 
ATOM     21  H22 UNL     1      -5.642   5.662  14.606  1.00  0.00     0.157 HD
ATOM     22  H21 UNL     1      -6.664   6.820  13.779  1.00  0.00     0.157 HD
ENDBRANCH  14  18
ENDBRANCH   1   7
BRANCH   6  23
HETATM   23  O7  UNL     1     -12.558   2.834   8.468  1.00  0.00    -0.359 OA
ATOM     24  H7  UNL     1     -12.374   3.149   7.591  1.00  0.00     0.217 HD
ENDBRANCH   6  23
BRANCH   3  25
HETATM   25  C10 UNL     1     -17.343   4.374  10.958  1.00  0.00     0.129 C 
BRANCH  25  26
HETATM   26  C11 UNL     1     -17.370   3.950  12.384  1.00  0.00     0.133 C 
BRANCH  26  27
HETATM   27  C12 UNL     1     -17.983   2.614  12.506  1.00  0.00     0.173 C 
HETATM   28  O1  UNL     1     -18.589   2.013  11.588  1.00  0.00    -0.648 OA
HETATM   29  O2  UNL     1     -17.891   1.951  13.737  1.00  0.00    -0.648 OA
ENDBRANCH  26  27
ENDBRANCH  25  26
BRANCH  25  30
HETATM   30  C13 UNL     1     -17.535   5.824  10.782  1.00  0.00     0.182 C 
HETATM   31  O3  UNL     1     -17.827   6.342   9.689  1.00  0.00    -0.647 OA
HETATM   32  O4  UNL     1     -17.392   6.694  11.861  1.00  0.00    -0.647 OA
ENDBRANCH  25  30
ENDBRANCH   3  25
BRANCH   5  33
HETATM   33  C16 UNL     1     -14.927   2.149   7.196  1.00  0.00     0.011 A 
HETATM   34  C17 UNL     1     -14.576   2.748   6.004  1.00  0.00     0.024 A 
HETATM   35  C18 UNL     1     -14.583   2.037   4.822  1.00  0.00    -0.039 A 
HETATM   36  C21 UNL     1     -14.945   0.706   4.820  1.00  0.00     0.011 A 
HETATM   37  C22 UNL     1     -15.300   0.077   5.989  1.00  0.00     0.038 A 
HETATM   38  C23 UNL     1     -15.283   0.816   7.155  1.00  0.00     0.076 A 
BRANCH  35  39
HETATM   39  C19 UNL     1     -14.199   2.716   3.550  1.00  0.00     0.162 C 
BRANCH  39  40
HETATM   40  N4  UNL     1     -13.049   2.039   2.968  1.00  0.00    -0.341 N 
HETATM   41  C20 UNL     1     -11.770   2.696   2.969  1.00  0.00     0.328 C 
HETATM   42  N5  UNL     1     -10.622   2.092   2.420  1.00  0.00    -0.040 NA
HETATM   43  O5  UNL     1     -11.691   3.842   3.476  1.00  0.00    -0.251 OA
ATOM     44  H4  UNL     1     -13.149   1.109   2.564  1.00  0.00     0.164 HD
ENDBRANCH  39  40
ENDBRANCH  35  39
BRANCH  38  45
HETATM   45  O6  UNL     1     -15.646   0.165   8.337  1.00  0.00    -0.360 OA
ATOM     46  H6  UNL     1     -16.504   0.323   8.715  1.00  0.00     0.217 HD
ENDBRANCH  38  45
ENDBRANCH   5  33
TORSDOF 11
ENDMDL
