MODEL 4
REMARK VINA RESULT: -8.627007103      2.450      6.342
REMARK  11 active torsions:
REMARK  status: ('A' for Active; 'I' for Inactive)
REMARK    1  A    between atoms: C1_2  and  C2_6 
REMARK    2  A    between atoms: C6_12  and  C7_13 
REMARK    3  A    between atoms: C9_15  and  C10_16 
REMARK    4  A    between atoms: C10_16  and  C11_17 
REMARK    5  A    between atoms: C10_16  and  C13_21 
REMARK    6  A    between atoms: C11_17  and  C12_18 
REMARK    7  A    between atoms: C15_25  and  C16_26 
REMARK    8  A    between atoms: C18_28  and  C19_29 
REMARK    9  A    between atoms: C19_29  and  N4_30 
REMARK       I    between atoms: N4_30  and  C20_32 
REMARK   10  A    between atoms: C23_37  and  O6_38 
REMARK   11  A    between atoms: C24_40  and  O7_41 
ROOT
HETATM    1  C7  UNL     1     -13.309   3.855   9.559  1.00  0.00     0.043 A 
HETATM    2  C8  UNL     1     -13.028   3.049   8.463  1.00  0.00     0.026 A 
HETATM    3  C9  UNL     1     -14.037   2.531   7.684  1.00  0.00    -0.041 A 
HETATM    4  C14 UNL     1     -15.352   2.808   7.986  1.00  0.00     0.023 A 
HETATM    5  C15 UNL     1     -15.687   3.597   9.056  1.00  0.00     0.011 A 
HETATM    6  C24 UNL     1     -14.629   4.104   9.823  1.00  0.00     0.090 A 
ENDROOT
BRANCH   1   7
HETATM    7  C6  UNL     1     -12.211   4.399  10.380  1.00  0.00     0.119 A 
HETATM    8  N3  UNL     1     -12.288   5.676  10.875  1.00  0.00    -0.340 N 
HETATM    9  C5  UNL     1     -11.198   5.944  11.576  1.00  0.00     0.060 A 
ATOM     10  H3  UNL     1     -13.066   6.319  10.727  1.00  0.00     0.167 HD
HETATM   11  C4  UNL     1     -10.799   7.062  12.261  1.00  0.00     0.033 A 
HETATM   12  C25 UNL     1     -10.417   4.816  11.522  1.00  0.00     0.061 A 
HETATM   13  C3  UNL     1      -9.569   7.075  12.930  1.00  0.00     0.017 A 
HETATM   14  C2  UNL     1      -8.799   5.943  12.868  1.00  0.00     0.007 A 
HETATM   15  C26 UNL     1      -9.211   4.815  12.170  1.00  0.00     0.046 A 
HETATM   16  N6  UNL     1     -11.069   3.868  10.772  1.00  0.00    -0.340 N 
ATOM     17  H6  UNL     1     -10.733   2.929  10.558  1.00  0.00     0.167 HD
BRANCH  14  18
HETATM   18  C1  UNL     1      -7.510   5.888  13.542  1.00  0.00     0.120 C 
HETATM   19  N1  UNL     1      -6.900   4.604  13.746  1.00  0.00    -0.082 NA
HETATM   20  N2  UNL     1      -6.942   6.958  13.938  1.00  0.00    -0.387 N 
ATOM     21  H22 UNL     1      -6.038   6.919  14.411  1.00  0.00     0.157 HD
ATOM     22  H21 UNL     1      -7.375   7.869  13.793  1.00  0.00     0.157 HD
ENDBRANCH  14  18
ENDBRANCH   1   7
BRANCH   6  23
HETATM   23  O7  UNL     1     -14.968   4.900  10.901  1.00  0.00    -0.359 OA
ATOM     24  H7  UNL     1     -15.117   5.828  10.767  1.00  0.00     0.217 HD
ENDBRANCH   6  23
BRANCH   3  25
HETATM   25  C10 UNL     1     -13.682   1.663   6.503  1.00  0.00     0.129 C 
BRANCH  25  26
HETATM   26  C11 UNL     1     -14.639   1.853   5.379  1.00  0.00     0.133 C 
BRANCH  26  27
HETATM   27  C12 UNL     1     -15.551   0.696   5.287  1.00  0.00     0.173 C 
HETATM   28  O1  UNL     1     -15.491  -0.328   6.007  1.00  0.00    -0.648 OA
HETATM   29  O2  UNL     1     -16.569   0.729   4.324  1.00  0.00    -0.648 OA
ENDBRANCH  26  27
ENDBRANCH  25  26
BRANCH  25  30
HETATM   30  C13 UNL     1     -12.282   1.914   6.119  1.00  0.00     0.182 C 
HETATM   31  O3  UNL     1     -11.961   2.674   5.188  1.00  0.00    -0.647 OA
HETATM   32  O4  UNL     1     -11.239   1.294   6.803  1.00  0.00    -0.647 OA
ENDBRANCH  25  30
ENDBRANCH   3  25
BRANCH   5  33
HETATM   33  C16 UNL     1     -17.079   3.907   9.396  1.00  0.00     0.011 A 
HETATM   34  C17 UNL     1     -17.770   3.204  10.362  1.00  0.00     0.024 A 
HETATM   35  C18 UNL     1     -19.079   3.513  10.666  1.00  0.00    -0.039 A 
HETATM   36  C21 UNL     1     -19.718   4.539  10.000  1.00  0.00     0.011 A 
HETATM   37  C22 UNL     1     -19.060   5.261   9.033  1.00  0.00     0.038 A 
HETATM   38  C23 UNL     1     -17.750   4.926   8.752  1.00  0.00     0.076 A 
BRANCH  35  39
HETATM   39  C19 UNL     1     -19.798   2.732  11.714  1.00  0.00     0.162 C 
BRANCH  39  40
HETATM   40  N4  UNL     1     -18.836   1.951  12.480  1.00  0.00    -0.341 N 
HETATM   41  C20 UNL     1     -18.153   2.564  13.587  1.00  0.00     0.328 C 
HETATM   42  N5  UNL     1     -17.213   1.860  14.364  1.00  0.00    -0.040 NA
HETATM   43  O5  UNL     1     -18.412   3.762  13.855  1.00  0.00    -0.251 OA
ATOM     44  H4  UNL     1     -18.649   0.980  12.234  1.00  0.00     0.164 HD
ENDBRANCH  39  40
ENDBRANCH  35  39
BRANCH  38  45
HETATM   45  O6  UNL     1     -17.092   5.668   7.767  1.00  0.00    -0.360 OA
ATOM     46  H6  UNL     1     -17.223   6.608   7.723  1.00  0.00     0.217 HD
ENDBRANCH  38  45
ENDBRANCH   5  33
TORSDOF 11
ENDMDL
