MODEL 11
REMARK VINA RESULT: -7.594463756      4.576      6.345
REMARK  2 active torsions:
REMARK  status: ('A' for Active; 'I' for Inactive)
REMARK    1  A    between atoms: C1_2  and  C2_4 
REMARK    2  A    between atoms: C5_7  and  C6_8 
ROOT
HETATM    1  C2  UNL     1      21.297  84.981  60.498  1.00  0.00     0.040 A 
HETATM    2  C3  UNL     1      20.670  83.883  59.948  1.00  0.00     0.019 A 
HETATM    3  C4  UNL     1      20.690  83.652  58.588  1.00  0.00     0.013 A 
HETATM    4  C5  UNL     1      21.337  84.509  57.723  1.00  0.00    -0.026 A 
HETATM    5  C12 UNL     1      21.958  85.596  58.276  1.00  0.00     0.013 A 
HETATM    6  C13 UNL     1      21.950  85.848  59.643  1.00  0.00     0.019 A 
ENDROOT
BRANCH   4   7
HETATM    7  C6  UNL     1      21.358  84.266  56.293  1.00  0.00    -0.020 A 
HETATM    8  C7  UNL     1      21.160  83.002  55.787  1.00  0.00     0.054 A 
HETATM    9  C8  UNL     1      21.172  82.716  54.435  1.00  0.00     0.120 A 
HETATM   10  F1  UNL     1      20.976  81.477  53.952  1.00  0.00    -0.206 F 
HETATM   11  C9  UNL     1      21.396  83.769  53.561  1.00  0.00     0.084 A 
HETATM   12  C10 UNL     1      21.596  85.037  54.064  1.00  0.00     0.120 A 
HETATM   13  F2  UNL     1      21.813  86.050  53.182  1.00  0.00    -0.206 F 
HETATM   14  C11 UNL     1      21.580  85.300  55.417  1.00  0.00     0.054 A 
ENDBRANCH   4   7
BRANCH   1  15
HETATM   15  C1  UNL     1      21.270  85.215  61.943  1.00  0.00     0.209 C 
HETATM   16  O1  UNL     1      21.932  84.497  62.713  1.00  0.00    -0.644 OA
HETATM   17  O2  UNL     1      20.502  86.240  62.459  1.00  0.00    -0.644 OA
ENDBRANCH   1  15
TORSDOF 2
ENDMDL
