MODEL 4
REMARK VINA RESULT: -7.805973512      1.265      1.639
REMARK  2 active torsions:
REMARK  status: ('A' for Active; 'I' for Inactive)
REMARK    1  A    between atoms: C1_2  and  C2_4 
REMARK    2  A    between atoms: C5_7  and  C6_8 
ROOT
HETATM    1  C2  UNL     1      21.660  84.033  54.577  1.00  0.00     0.040 A 
HETATM    2  C3  UNL     1      20.755  83.401  55.403  1.00  0.00     0.019 A 
HETATM    3  C4  UNL     1      20.714  83.663  56.757  1.00  0.00     0.013 A 
HETATM    4  C5  UNL     1      21.576  84.569  57.340  1.00  0.00    -0.026 A 
HETATM    5  C12 UNL     1      22.471  85.193  56.513  1.00  0.00     0.013 A 
HETATM    6  C13 UNL     1      22.530  84.943  55.147  1.00  0.00     0.019 A 
ENDROOT
BRANCH   4   7
HETATM    7  C6  UNL     1      21.534  84.846  58.763  1.00  0.00    -0.020 A 
HETATM    8  C7  UNL     1      21.674  83.834  59.684  1.00  0.00     0.054 A 
HETATM    9  C8  UNL     1      21.640  84.042  61.050  1.00  0.00     0.120 A 
HETATM   10  F1  UNL     1      21.780  83.046  61.942  1.00  0.00    -0.206 F 
HETATM   11  C9  UNL     1      21.454  85.343  61.495  1.00  0.00     0.084 A 
HETATM   12  C10 UNL     1      21.312  86.359  60.573  1.00  0.00     0.120 A 
HETATM   13  F2  UNL     1      21.131  87.625  61.039  1.00  0.00    -0.206 F 
HETATM   14  C11 UNL     1      21.349  86.129  59.215  1.00  0.00     0.054 A 
ENDBRANCH   4   7
BRANCH   1  15
HETATM   15  C1  UNL     1      21.693  83.747  53.142  1.00  0.00     0.209 C 
HETATM   16  O1  UNL     1      21.443  84.640  52.312  1.00  0.00    -0.644 OA
HETATM   17  O2  UNL     1      22.003  82.475  52.702  1.00  0.00    -0.644 OA
ENDBRANCH   1  15
TORSDOF 2
ENDMDL
