MODEL 10
REMARK VINA RESULT: -7.604705796      4.577      6.440
REMARK  2 active torsions:
REMARK  status: ('A' for Active; 'I' for Inactive)
REMARK    1  A    between atoms: C1_2  and  C2_4 
REMARK    2  A    between atoms: C5_7  and  C6_8 
ROOT
HETATM    1  C2  UNL     1      21.283  84.950  60.488  1.00  0.00     0.040 A 
HETATM    2  C3  UNL     1      21.934  85.806  59.627  1.00  0.00     0.019 A 
HETATM    3  C4  UNL     1      21.960  85.575  58.266  1.00  0.00     0.013 A 
HETATM    4  C5  UNL     1      21.334  84.478  57.713  1.00  0.00    -0.026 A 
HETATM    5  C12 UNL     1      20.688  83.632  58.574  1.00  0.00     0.013 A 
HETATM    6  C13 UNL     1      20.651  83.846  59.947  1.00  0.00     0.019 A 
ENDROOT
BRANCH   4   7
HETATM    7  C6  UNL     1      21.359  84.234  56.283  1.00  0.00    -0.020 A 
HETATM    8  C7  UNL     1      21.163  82.970  55.778  1.00  0.00     0.054 A 
HETATM    9  C8  UNL     1      21.178  82.683  54.426  1.00  0.00     0.120 A 
HETATM   10  F1  UNL     1      20.984  81.443  53.943  1.00  0.00    -0.206 F 
HETATM   11  C9  UNL     1      21.404  83.735  53.551  1.00  0.00     0.084 A 
HETATM   12  C10 UNL     1      21.603  85.004  54.055  1.00  0.00     0.120 A 
HETATM   13  F2  UNL     1      21.822  86.016  53.172  1.00  0.00    -0.206 F 
HETATM   14  C11 UNL     1      21.583  85.268  55.407  1.00  0.00     0.054 A 
ENDBRANCH   4   7
BRANCH   1  15
HETATM   15  C1  UNL     1      21.263  85.206  61.929  1.00  0.00     0.209 C 
HETATM   16  O1  UNL     1      21.932  84.503  62.707  1.00  0.00    -0.644 OA
HETATM   17  O2  UNL     1      20.492  86.236  62.433  1.00  0.00    -0.644 OA
ENDBRANCH   1  15
TORSDOF 2
ENDMDL
