MODEL 6
REMARK VINA RESULT: -7.804751539      1.267      1.993
REMARK  2 active torsions:
REMARK  status: ('A' for Active; 'I' for Inactive)
REMARK    1  A    between atoms: C1_2  and  C2_4 
REMARK    2  A    between atoms: C5_7  and  C6_8 
ROOT
HETATM    1  C2  UNL     1      21.640  84.020  54.581  1.00  0.00     0.040 A 
HETATM    2  C3  UNL     1      22.498  84.933  55.156  1.00  0.00     0.019 A 
HETATM    3  C4  UNL     1      22.460  85.201  56.509  1.00  0.00     0.013 A 
HETATM    4  C5  UNL     1      21.563  84.566  57.342  1.00  0.00    -0.026 A 
HETATM    5  C12 UNL     1      20.714  83.660  56.764  1.00  0.00     0.013 A 
HETATM    6  C13 UNL     1      20.735  83.377  55.404  1.00  0.00     0.019 A 
ENDROOT
BRANCH   4   7
HETATM    7  C6  UNL     1      21.522  84.847  58.764  1.00  0.00    -0.020 A 
HETATM    8  C7  UNL     1      21.661  83.837  59.688  1.00  0.00     0.054 A 
HETATM    9  C8  UNL     1      21.630  84.049  61.054  1.00  0.00     0.120 A 
HETATM   10  F1  UNL     1      21.768  83.054  61.948  1.00  0.00    -0.206 F 
HETATM   11  C9  UNL     1      21.448  85.351  61.495  1.00  0.00     0.084 A 
HETATM   12  C10 UNL     1      21.307  86.366  60.571  1.00  0.00     0.120 A 
HETATM   13  F2  UNL     1      21.130  87.633  61.034  1.00  0.00    -0.206 F 
HETATM   14  C11 UNL     1      21.342  86.132  59.214  1.00  0.00     0.054 A 
ENDBRANCH   4   7
BRANCH   1  15
HETATM   15  C1  UNL     1      21.690  83.744  53.144  1.00  0.00     0.209 C 
HETATM   16  O1  UNL     1      21.448  84.642  52.318  1.00  0.00    -0.644 OA
HETATM   17  O2  UNL     1      22.007  82.476  52.699  1.00  0.00    -0.644 OA
ENDBRANCH   1  15
TORSDOF 2
ENDMDL
