MODEL 1
REMARK VINA RESULT: -7.817153667      0.000      0.000
REMARK  2 active torsions:
REMARK  status: ('A' for Active; 'I' for Inactive)
REMARK    1  A    between atoms: C1_2  and  C2_4 
REMARK    2  A    between atoms: C5_7  and  C6_8 
ROOT
HETATM    1  C2  UNL     1      21.299  85.696  54.587  1.00  0.00     0.040 A 
HETATM    2  C3  UNL     1      20.406  84.825  55.174  1.00  0.00     0.019 A 
HETATM    3  C4  UNL     1      20.449  84.556  56.527  1.00  0.00     0.013 A 
HETATM    4  C5  UNL     1      21.387  85.146  57.347  1.00  0.00    -0.026 A 
HETATM    5  C12 UNL     1      22.271  86.010  56.758  1.00  0.00     0.013 A 
HETATM    6  C13 UNL     1      22.245  86.295  55.398  1.00  0.00     0.019 A 
ENDROOT
BRANCH   4   7
HETATM    7  C6  UNL     1      21.433  84.863  58.769  1.00  0.00    -0.020 A 
HETATM    8  C7  UNL     1      21.621  83.581  59.229  1.00  0.00     0.054 A 
HETATM    9  C8  UNL     1      21.672  83.257  60.572  1.00  0.00     0.120 A 
HETATM   10  F1  UNL     1      21.857  82.000  61.010  1.00  0.00    -0.206 F 
HETATM   11  C9  UNL     1      21.523  84.290  61.485  1.00  0.00     0.084 A 
HETATM   12  C10 UNL     1      21.333  85.577  61.027  1.00  0.00     0.120 A 
HETATM   13  F2  UNL     1      21.190  86.570  61.947  1.00  0.00    -0.206 F 
HETATM   14  C11 UNL     1      21.286  85.878  59.684  1.00  0.00     0.054 A 
ENDBRANCH   4   7
BRANCH   1  15
HETATM   15  C1  UNL     1      21.243  85.975  53.151  1.00  0.00     0.209 C 
HETATM   16  O1  UNL     1      21.484  85.079  52.322  1.00  0.00    -0.644 OA
HETATM   17  O2  UNL     1      20.921  87.243  52.710  1.00  0.00    -0.644 OA
ENDBRANCH   1  15
TORSDOF 2
ENDMDL
