MODEL 7
REMARK VINA RESULT: -7.802990758      0.065      1.986
REMARK  2 active torsions:
REMARK  status: ('A' for Active; 'I' for Inactive)
REMARK    1  A    between atoms: C1_2  and  C2_4 
REMARK    2  A    between atoms: C5_7  and  C6_8 
ROOT
HETATM    1  C2  UNL     1      21.291  85.702  54.578  1.00  0.00     0.040 A 
HETATM    2  C3  UNL     1      20.385  84.844  55.163  1.00  0.00     0.019 A 
HETATM    3  C4  UNL     1      20.420  84.577  56.516  1.00  0.00     0.013 A 
HETATM    4  C5  UNL     1      21.363  85.158  57.339  1.00  0.00    -0.026 A 
HETATM    5  C12 UNL     1      22.258  86.010  56.751  1.00  0.00     0.013 A 
HETATM    6  C13 UNL     1      22.241  86.292  55.390  1.00  0.00     0.019 A 
ENDROOT
BRANCH   4   7
HETATM    7  C6  UNL     1      21.400  84.878  58.762  1.00  0.00    -0.020 A 
HETATM    8  C7  UNL     1      21.252  85.887  59.685  1.00  0.00     0.054 A 
HETATM    9  C8  UNL     1      21.281  85.676  61.050  1.00  0.00     0.120 A 
HETATM   10  F1  UNL     1      21.134  86.670  61.943  1.00  0.00    -0.206 F 
HETATM   11  C9  UNL     1      21.469  84.375  61.492  1.00  0.00     0.084 A 
HETATM   12  C10 UNL     1      21.618  83.361  60.570  1.00  0.00     0.120 A 
HETATM   13  F2  UNL     1      21.801  82.094  61.033  1.00  0.00    -0.206 F 
HETATM   14  C11 UNL     1      21.587  83.594  59.212  1.00  0.00     0.054 A 
ENDBRANCH   4   7
BRANCH   1  15
HETATM   15  C1  UNL     1      21.244  85.979  53.141  1.00  0.00     0.209 C 
HETATM   16  O1  UNL     1      21.490  85.082  52.315  1.00  0.00    -0.644 OA
HETATM   17  O2  UNL     1      20.925  87.246  52.695  1.00  0.00    -0.644 OA
ENDBRANCH   1  15
TORSDOF 2
ENDMDL
