MODEL 9
REMARK VINA RESULT: -7.609012794      4.565      6.837
REMARK  2 active torsions:
REMARK  status: ('A' for Active; 'I' for Inactive)
REMARK    1  A    between atoms: C1_2  and  C2_4 
REMARK    2  A    between atoms: C5_7  and  C6_8 
ROOT
HETATM    1  C2  UNL     1      21.629  84.743  60.464  1.00  0.00     0.040 A 
HETATM    2  C3  UNL     1      22.247  85.846  59.915  1.00  0.00     0.019 A 
HETATM    3  C4  UNL     1      22.227  86.077  58.555  1.00  0.00     0.013 A 
HETATM    4  C5  UNL     1      21.587  85.215  57.689  1.00  0.00    -0.026 A 
HETATM    5  C12 UNL     1      20.975  84.122  58.242  1.00  0.00     0.013 A 
HETATM    6  C13 UNL     1      20.984  83.870  59.608  1.00  0.00     0.019 A 
ENDROOT
BRANCH   4   7
HETATM    7  C6  UNL     1      21.565  85.457  56.259  1.00  0.00    -0.020 A 
HETATM    8  C7  UNL     1      21.763  86.721  55.754  1.00  0.00     0.054 A 
HETATM    9  C8  UNL     1      21.751  87.008  54.401  1.00  0.00     0.120 A 
HETATM   10  F1  UNL     1      21.946  88.247  53.918  1.00  0.00    -0.206 F 
HETATM   11  C9  UNL     1      21.527  85.955  53.527  1.00  0.00     0.084 A 
HETATM   12  C10 UNL     1      21.327  84.687  54.030  1.00  0.00     0.120 A 
HETATM   13  F2  UNL     1      21.110  83.674  53.148  1.00  0.00    -0.206 F 
HETATM   14  C11 UNL     1      21.343  84.423  55.383  1.00  0.00     0.054 A 
ENDBRANCH   4   7
BRANCH   1  15
HETATM   15  C1  UNL     1      21.657  84.508  61.909  1.00  0.00     0.209 C 
HETATM   16  O1  UNL     1      21.010  85.239  62.681  1.00  0.00    -0.644 OA
HETATM   17  O2  UNL     1      22.407  83.469  62.422  1.00  0.00    -0.644 OA
ENDBRANCH   1  15
TORSDOF 2
ENDMDL
