MODEL 5
REMARK VINA RESULT: -7.805021787      0.071      2.291
REMARK  2 active torsions:
REMARK  status: ('A' for Active; 'I' for Inactive)
REMARK    1  A    between atoms: C1_2  and  C2_4 
REMARK    2  A    between atoms: C5_7  and  C6_8 
ROOT
HETATM    1  C2  UNL     1      21.270  85.677  54.582  1.00  0.00     0.040 A 
HETATM    2  C3  UNL     1      22.207  86.273  55.398  1.00  0.00     0.019 A 
HETATM    3  C4  UNL     1      22.248  86.015  56.753  1.00  0.00     0.013 A 
HETATM    4  C5  UNL     1      21.353  85.148  57.345  1.00  0.00    -0.026 A 
HETATM    5  C12 UNL     1      20.426  84.559  56.528  1.00  0.00     0.013 A 
HETATM    6  C13 UNL     1      20.368  84.806  55.162  1.00  0.00     0.019 A 
ENDROOT
BRANCH   4   7
HETATM    7  C6  UNL     1      21.396  84.875  58.769  1.00  0.00    -0.020 A 
HETATM    8  C7  UNL     1      21.239  85.887  59.688  1.00  0.00     0.054 A 
HETATM    9  C8  UNL     1      21.272  85.682  61.055  1.00  0.00     0.120 A 
HETATM   10  F1  UNL     1      21.117  86.678  61.944  1.00  0.00    -0.206 F 
HETATM   11  C9  UNL     1      21.475  84.385  61.502  1.00  0.00     0.084 A 
HETATM   12  C10 UNL     1      21.633  83.368  60.584  1.00  0.00     0.120 A 
HETATM   13  F2  UNL     1      21.830  82.106  61.053  1.00  0.00    -0.206 F 
HETATM   14  C11 UNL     1      21.597  83.595  59.225  1.00  0.00     0.054 A 
ENDBRANCH   4   7
BRANCH   1  15
HETATM   15  C1  UNL     1      21.237  85.959  53.145  1.00  0.00     0.209 C 
HETATM   16  O1  UNL     1      21.491  85.065  52.319  1.00  0.00    -0.644 OA
HETATM   17  O2  UNL     1      20.923  87.228  52.701  1.00  0.00    -0.644 OA
ENDBRANCH   1  15
TORSDOF 2
ENDMDL
