MODEL 1
REMARK VINA RESULT: -12.458502739      0.000      0.000
REMARK  4 active torsions:
REMARK  status: ('A' for Active; 'I' for Inactive)
REMARK    1  A    between atoms: C2_2  and  C5_5 
REMARK    2  A    between atoms: C7_7  and  N1_8 
REMARK       I    between atoms: N1_8  and  C8_10 
REMARK       I    between atoms: C8_10  and  N2_12 
REMARK    3  A    between atoms: N2_12  and  C9_14 
REMARK    4  A    between atoms: N3_22  and  C15_23 
ROOT
HETATM    1  C5  UNL     1      10.122   1.861  29.132  1.00  0.00     0.037 A 
HETATM    2  C6  UNL     1      11.055   0.869  29.107  1.00  0.00     0.077 A 
HETATM    3  C7  UNL     1      11.119   0.210  30.360  1.00  0.00     0.133 A 
HETATM    4  N3  UNL     1      10.209   0.839  31.090  1.00  0.00    -0.240 N 
HETATM    5  N4  UNL     1       9.612   1.825  30.365  1.00  0.00    -0.295 N 
ATOM      6  H4  UNL     1       8.880   2.446  30.713  1.00  0.00     0.187 HD
ENDROOT
BRANCH   3   7
HETATM    7  N1  UNL     1      11.975  -0.893  30.561  1.00  0.00    -0.293 N 
HETATM    8  C8  UNL     1      13.188  -1.188  29.910  1.00  0.00     0.326 C 
HETATM    9  O1  UNL     1      13.524  -0.458  28.968  1.00  0.00    -0.247 OA
HETATM   10  N2  UNL     1      14.009  -2.299  30.334  1.00  0.00    -0.307 N 
ATOM     11  H2  UNL     1      13.675  -2.870  31.111  1.00  0.00     0.170 HD
ATOM     12  H1  UNL     1      11.677  -1.563  31.270  1.00  0.00     0.172 HD
BRANCH  10  13
HETATM   13  C9  UNL     1      15.228  -2.640  29.749  1.00  0.00     0.059 A 
HETATM   14  C10 UNL     1      16.192  -1.761  29.364  1.00  0.00     0.031 A 
HETATM   15  C11 UNL     1      17.421  -2.136  28.805  1.00  0.00     0.004 A 
HETATM   16  C12 UNL     1      17.629  -3.479  28.653  1.00  0.00     0.026 A 
HETATM   17  C13 UNL     1      16.663  -4.397  29.037  1.00  0.00     0.058 A 
HETATM   18 CL1  UNL     1      16.963  -6.145  28.841  1.00  0.00    -0.082 Cl
HETATM   19  C14 UNL     1      15.463  -4.018  29.582  1.00  0.00     0.082 A 
HETATM   20 CL2  UNL     1      14.252  -5.227  30.039  1.00  0.00    -0.080 Cl
ENDBRANCH  10  13
ENDBRANCH   3   7
BRANCH   4  21
HETATM   21  C15 UNL     1       9.792   0.622  32.419  1.00  0.00     0.058 A 
HETATM   22  C16 UNL     1      10.640   0.292  33.443  1.00  0.00     0.031 A 
HETATM   23  C17 UNL     1      10.064   0.020  34.684  1.00  0.00     0.002 A 
HETATM   24  C18 UNL     1       8.681   0.081  34.873  1.00  0.00     0.000 A 
HETATM   25  C19 UNL     1       7.841   0.412  33.842  1.00  0.00     0.002 A 
HETATM   26  C20 UNL     1       8.400   0.684  32.611  1.00  0.00     0.031 A 
ENDBRANCH   4  21
BRANCH   1  27
HETATM   27  C2  UNL     1       9.764   2.796  28.014  1.00  0.00    -0.007 C 
HETATM   28  C1  UNL     1       8.833   3.872  28.527  1.00  0.00     0.021 C 
HETATM   29  C3  UNL     1       8.987   2.009  26.977  1.00  0.00     0.021 C 
HETATM   30  C4  UNL     1      11.012   3.368  27.414  1.00  0.00     0.021 C 
ENDBRANCH   1  27
TORSDOF 4
ENDMDL
