MODEL 2
REMARK VINA RESULT: -11.251685096      1.294      1.854
REMARK  4 active torsions:
REMARK  status: ('A' for Active; 'I' for Inactive)
REMARK    1  A    between atoms: C2_2  and  C5_5 
REMARK    2  A    between atoms: C7_7  and  N1_8 
REMARK       I    between atoms: N1_8  and  C8_10 
REMARK       I    between atoms: C8_10  and  N2_12 
REMARK    3  A    between atoms: N2_12  and  C9_14 
REMARK    4  A    between atoms: N3_22  and  C15_23 
ROOT
HETATM    1  C5  UNL     1      10.140   1.546  29.019  1.00  0.00     0.037 A 
HETATM    2  C6  UNL     1      11.228   0.746  29.195  1.00  0.00     0.077 A 
HETATM    3  C7  UNL     1      11.265   0.236  30.517  1.00  0.00     0.133 A 
HETATM    4  N3  UNL     1      10.185   0.755  31.082  1.00  0.00    -0.240 N 
HETATM    5  N4  UNL     1       9.509   1.537  30.195  1.00  0.00    -0.295 N 
ATOM      6  H4  UNL     1       8.647   2.043  30.400  1.00  0.00     0.187 HD
ENDROOT
BRANCH   3   7
HETATM    7  N1  UNL     1      12.273  -0.664  30.923  1.00  0.00    -0.293 N 
HETATM    8  C8  UNL     1      12.912  -1.661  30.163  1.00  0.00     0.326 C 
HETATM    9  O1  UNL     1      12.490  -1.866  29.017  1.00  0.00    -0.247 OA
HETATM   10  N2  UNL     1      14.023  -2.411  30.704  1.00  0.00    -0.307 N 
ATOM     11  H2  UNL     1      14.320  -2.204  31.658  1.00  0.00     0.170 HD
ATOM     12  H1  UNL     1      12.578  -0.580  31.893  1.00  0.00     0.172 HD
BRANCH  10  13
HETATM   13  C9  UNL     1      14.714  -3.400  30.005  1.00  0.00     0.059 A 
HETATM   14  C10 UNL     1      14.345  -4.706  29.913  1.00  0.00     0.031 A 
HETATM   15  C11 UNL     1      15.045  -5.672  29.177  1.00  0.00     0.004 A 
HETATM   16  C12 UNL     1      16.166  -5.236  28.524  1.00  0.00     0.026 A 
HETATM   17  C13 UNL     1      16.565  -3.910  28.602  1.00  0.00     0.058 A 
HETATM   18 CL1  UNL     1      18.022  -3.363  27.730  1.00  0.00    -0.082 Cl
HETATM   19  C14 UNL     1      15.872  -2.974  29.325  1.00  0.00     0.082 A 
HETATM   20 CL2  UNL     1      16.431  -1.296  29.411  1.00  0.00    -0.080 Cl
ENDBRANCH  10  13
ENDBRANCH   3   7
BRANCH   4  21
HETATM   21  C15 UNL     1       9.666   0.595  32.383  1.00  0.00     0.058 A 
HETATM   22  C16 UNL     1      10.431   0.297  33.481  1.00  0.00     0.031 A 
HETATM   23  C17 UNL     1       9.760   0.082  34.685  1.00  0.00     0.002 A 
HETATM   24  C18 UNL     1       8.368   0.165  34.766  1.00  0.00     0.000 A 
HETATM   25  C19 UNL     1       7.612   0.464  33.663  1.00  0.00     0.002 A 
HETATM   26  C20 UNL     1       8.265   0.681  32.468  1.00  0.00     0.031 A 
ENDBRANCH   4  21
BRANCH   1  27
HETATM   27  C2  UNL     1       9.750   2.284  27.771  1.00  0.00    -0.007 C 
HETATM   28  C1  UNL     1      10.963   2.969  27.183  1.00  0.00     0.021 C 
HETATM   29  C3  UNL     1       8.779   3.381  28.160  1.00  0.00     0.021 C 
HETATM   30  C4  UNL     1       9.111   1.336  26.802  1.00  0.00     0.021 C 
ENDBRANCH   1  27
TORSDOF 4
ENDMDL
