MODEL 6
REMARK VINA RESULT: -10.495186121      1.586      4.510
REMARK  4 active torsions:
REMARK  status: ('A' for Active; 'I' for Inactive)
REMARK    1  A    between atoms: C2_2  and  C5_5 
REMARK    2  A    between atoms: C7_7  and  N1_8 
REMARK       I    between atoms: N1_8  and  C8_10 
REMARK       I    between atoms: C8_10  and  N2_12 
REMARK    3  A    between atoms: N2_12  and  C9_14 
REMARK    4  A    between atoms: N3_22  and  C15_23 
ROOT
HETATM    1  C5  UNL     1      10.319   0.785  32.383  1.00  0.00     0.037 A 
HETATM    2  C6  UNL     1      11.116  -0.100  31.722  1.00  0.00     0.077 A 
HETATM    3  C7  UNL     1      11.154   0.200  30.337  1.00  0.00     0.133 A 
HETATM    4  N3  UNL     1      10.373   1.266  30.227  1.00  0.00    -0.240 N 
HETATM    5  N4  UNL     1       9.871   1.620  31.443  1.00  0.00    -0.295 N 
ATOM      6  H4  UNL     1       9.245   2.408  31.610  1.00  0.00     0.187 HD
ENDROOT
BRANCH   3   7
HETATM    7  N1  UNL     1      11.959  -0.546  29.451  1.00  0.00    -0.293 N 
HETATM    8  C8  UNL     1      12.821  -1.619  29.747  1.00  0.00     0.326 C 
HETATM    9  O1  UNL     1      12.992  -1.903  30.940  1.00  0.00    -0.247 OA
HETATM   10  N2  UNL     1      13.476  -2.359  28.692  1.00  0.00    -0.307 N 
ATOM     11  H2  UNL     1      13.303  -2.072  27.729  1.00  0.00     0.170 HD
ATOM     12  H1  UNL     1      11.909  -0.274  28.470  1.00  0.00     0.172 HD
BRANCH  10  13
HETATM   13  C9  UNL     1      14.328  -3.441  28.908  1.00  0.00     0.059 A 
HETATM   14  C10 UNL     1      13.952  -4.748  28.941  1.00  0.00     0.031 A 
HETATM   15  C11 UNL     1      14.837  -5.818  29.132  1.00  0.00     0.004 A 
HETATM   16  C12 UNL     1      16.154  -5.488  29.291  1.00  0.00     0.026 A 
HETATM   17  C13 UNL     1      16.566  -4.163  29.262  1.00  0.00     0.058 A 
HETATM   18 CL1  UNL     1      18.292  -3.759  29.459  1.00  0.00    -0.082 Cl
HETATM   19  C14 UNL     1      15.690  -3.125  29.076  1.00  0.00     0.082 A 
HETATM   20 CL2  UNL     1      16.259  -1.448  29.066  1.00  0.00    -0.080 Cl
ENDBRANCH  10  13
ENDBRANCH   3   7
BRANCH   4  21
HETATM   21  C15 UNL     1      10.036   2.041  29.098  1.00  0.00     0.058 A 
HETATM   22  C16 UNL     1      10.952   2.522  28.199  1.00  0.00     0.031 A 
HETATM   23  C17 UNL     1      10.472   3.350  27.184  1.00  0.00     0.002 A 
HETATM   24  C18 UNL     1       9.117   3.673  27.089  1.00  0.00     0.000 A 
HETATM   25  C19 UNL     1       8.209   3.186  27.993  1.00  0.00     0.002 A 
HETATM   26  C20 UNL     1       8.671   2.366  29.000  1.00  0.00     0.031 A 
ENDBRANCH   4  21
BRANCH   1  27
HETATM   27  C2  UNL     1      10.008   0.802  33.851  1.00  0.00    -0.007 C 
HETATM   28  C1  UNL     1       8.558   0.433  34.071  1.00  0.00     0.021 C 
HETATM   29  C3  UNL     1      10.174   2.224  34.350  1.00  0.00     0.021 C 
HETATM   30  C4  UNL     1      10.941  -0.121  34.576  1.00  0.00     0.021 C 
ENDBRANCH   1  27
TORSDOF 4
ENDMDL
