MODEL 7
REMARK VINA RESULT: -9.740195501      3.908      8.170
REMARK  4 active torsions:
REMARK  status: ('A' for Active; 'I' for Inactive)
REMARK    1  A    between atoms: C2_2  and  C5_5 
REMARK    2  A    between atoms: C7_7  and  N1_8 
REMARK       I    between atoms: N1_8  and  C8_10 
REMARK       I    between atoms: C8_10  and  N2_12 
REMARK    3  A    between atoms: N2_12  and  C9_14 
REMARK    4  A    between atoms: N3_22  and  C15_23 
ROOT
HETATM    1  C5  UNL     1      12.779  -1.204  29.634  1.00  0.00     0.037 A 
HETATM    2  C6  UNL     1      11.899  -1.227  30.673  1.00  0.00     0.077 A 
HETATM    3  C7  UNL     1      10.904  -0.231  30.508  1.00  0.00     0.133 A 
HETATM    4  N3  UNL     1      11.232   0.351  29.364  1.00  0.00    -0.240 N 
HETATM    5  N4  UNL     1      12.349  -0.224  28.837  1.00  0.00    -0.295 N 
ATOM      6  H4  UNL     1      12.792   0.054  27.961  1.00  0.00     0.187 HD
ENDROOT
BRANCH   3   7
HETATM    7  N1  UNL     1       9.847  -0.096  31.433  1.00  0.00    -0.293 N 
HETATM    8  C8  UNL     1       9.893   0.410  32.745  1.00  0.00     0.326 C 
HETATM    9  O1  UNL     1      11.005   0.690  33.212  1.00  0.00    -0.247 OA
HETATM   10  N2  UNL     1       8.683   0.599  33.512  1.00  0.00    -0.307 N 
ATOM     11  H2  UNL     1       7.797   0.342  33.077  1.00  0.00     0.170 HD
ATOM     12  H1  UNL     1       8.931  -0.405  31.108  1.00  0.00     0.172 HD
BRANCH  10  13
HETATM   13  C9  UNL     1       8.650   1.111  34.809  1.00  0.00     0.059 A 
HETATM   14  C10 UNL     1       8.796   0.383  35.949  1.00  0.00     0.031 A 
HETATM   15  C11 UNL     1       8.788   0.931  37.239  1.00  0.00     0.004 A 
HETATM   16  C12 UNL     1       8.620   2.286  37.317  1.00  0.00     0.026 A 
HETATM   17  C13 UNL     1       8.468   3.052  36.170  1.00  0.00     0.058 A 
HETATM   18 CL1  UNL     1       8.264   4.819  36.298  1.00  0.00    -0.082 Cl
HETATM   19  C14 UNL     1       8.477   2.504  34.914  1.00  0.00     0.082 A 
HETATM   20 CL2  UNL     1       8.260   3.521  33.480  1.00  0.00    -0.080 Cl
ENDBRANCH  10  13
ENDBRANCH   3   7
BRANCH   4  21
HETATM   21  C15 UNL     1      10.606   1.398  28.657  1.00  0.00     0.058 A 
HETATM   22  C16 UNL     1      11.118   2.666  28.554  1.00  0.00     0.031 A 
HETATM   23  C17 UNL     1      10.337   3.616  27.897  1.00  0.00     0.002 A 
HETATM   24  C18 UNL     1       9.087   3.289  27.368  1.00  0.00     0.000 A 
HETATM   25  C19 UNL     1       8.583   2.019  27.476  1.00  0.00     0.002 A 
HETATM   26  C20 UNL     1       9.348   1.071  28.122  1.00  0.00     0.031 A 
ENDBRANCH   4  21
BRANCH   1  27
HETATM   27  C2  UNL     1      13.978  -2.086  29.442  1.00  0.00    -0.007 C 
HETATM   28  C1  UNL     1      14.581  -2.428  30.786  1.00  0.00     0.021 C 
HETATM   29  C3  UNL     1      15.026  -1.295  28.685  1.00  0.00     0.021 C 
HETATM   30  C4  UNL     1      13.586  -3.311  28.672  1.00  0.00     0.021 C 
ENDBRANCH   1  27
TORSDOF 4
ENDMDL
