MODEL 5
REMARK VINA RESULT: -10.567698240      1.592      4.622
REMARK  4 active torsions:
REMARK  status: ('A' for Active; 'I' for Inactive)
REMARK    1  A    between atoms: C2_2  and  C5_5 
REMARK    2  A    between atoms: C7_7  and  N1_8 
REMARK       I    between atoms: N1_8  and  C8_10 
REMARK       I    between atoms: C8_10  and  N2_12 
REMARK    3  A    between atoms: N2_12  and  C9_14 
REMARK    4  A    between atoms: N3_22  and  C15_23 
ROOT
HETATM    1  C5  UNL     1      10.269   0.862  32.442  1.00  0.00     0.037 A 
HETATM    2  C6  UNL     1      11.067  -0.017  31.774  1.00  0.00     0.077 A 
HETATM    3  C7  UNL     1      11.088   0.280  30.388  1.00  0.00     0.133 A 
HETATM    4  N3  UNL     1      10.296   1.338  30.284  1.00  0.00    -0.240 N 
HETATM    5  N4  UNL     1       9.804   1.690  31.504  1.00  0.00    -0.295 N 
ATOM      6  H4  UNL     1       9.172   2.472  31.676  1.00  0.00     0.187 HD
ENDROOT
BRANCH   3   7
HETATM    7  N1  UNL     1      11.891  -0.461  29.496  1.00  0.00    -0.293 N 
HETATM    8  C8  UNL     1      12.755  -1.535  29.783  1.00  0.00     0.326 C 
HETATM    9  O1  UNL     1      12.930  -1.826  30.974  1.00  0.00    -0.247 OA
HETATM   10  N2  UNL     1      13.407  -2.269  28.722  1.00  0.00    -0.307 N 
ATOM     11  H2  UNL     1      13.231  -1.977  27.761  1.00  0.00     0.170 HD
ATOM     12  H1  UNL     1      11.838  -0.183  28.516  1.00  0.00     0.172 HD
BRANCH  10  13
HETATM   13  C9  UNL     1      14.260  -3.352  28.930  1.00  0.00     0.059 A 
HETATM   14  C10 UNL     1      13.886  -4.660  28.950  1.00  0.00     0.031 A 
HETATM   15  C11 UNL     1      14.773  -5.729  29.132  1.00  0.00     0.004 A 
HETATM   16  C12 UNL     1      16.089  -5.399  29.297  1.00  0.00     0.026 A 
HETATM   17  C13 UNL     1      16.499  -4.073  29.282  1.00  0.00     0.058 A 
HETATM   18 CL1  UNL     1      18.224  -3.668  29.487  1.00  0.00    -0.082 Cl
HETATM   19  C14 UNL     1      15.621  -3.035  29.104  1.00  0.00     0.082 A 
HETATM   20 CL2  UNL     1      16.188  -1.357  29.111  1.00  0.00    -0.080 Cl
ENDBRANCH  10  13
ENDBRANCH   3   7
BRANCH   4  21
HETATM   21  C15 UNL     1       9.940   2.107  29.157  1.00  0.00     0.058 A 
HETATM   22  C16 UNL     1       8.671   2.170  28.644  1.00  0.00     0.031 A 
HETATM   23  C17 UNL     1       8.495   2.904  27.470  1.00  0.00     0.002 A 
HETATM   24  C18 UNL     1       9.568   3.545  26.846  1.00  0.00     0.000 A 
HETATM   25  C19 UNL     1      10.833   3.475  27.367  1.00  0.00     0.002 A 
HETATM   26  C20 UNL     1      11.018   2.754  28.528  1.00  0.00     0.031 A 
ENDBRANCH   4  21
BRANCH   1  27
HETATM   27  C2  UNL     1       9.973   0.879  33.913  1.00  0.00    -0.007 C 
HETATM   28  C1  UNL     1      10.864  -0.113  34.625  1.00  0.00     0.021 C 
HETATM   29  C3  UNL     1       8.548   0.400  34.110  1.00  0.00     0.021 C 
HETATM   30  C4  UNL     1      10.138   2.271  34.446  1.00  0.00     0.021 C 
ENDBRANCH   1  27
TORSDOF 4
ENDMDL
