MODEL 12
REMARK VINA RESULT: -10.518828308      2.028      4.548
REMARK  10 active torsions:
REMARK  status: ('A' for Active; 'I' for Inactive)
REMARK    1  A    between atoms: O1_2  and  C2_3 
REMARK    2  A    between atoms: C6_11  and  N3_12 
REMARK    3  A    between atoms: N3_12  and  C7_14 
REMARK    4  A    between atoms: C9_16  and  N4_17 
REMARK       I    between atoms: N4_17  and  C10_19 
REMARK    5  A    between atoms: C10_19  and  C11_21 
REMARK    6  A    between atoms: C14_26  and  N6_27 
REMARK    7  A    between atoms: C26_40  and  O4_41 
REMARK    8  A    between atoms: O4_41  and  C27_42 
REMARK    9  A    between atoms: C27_42  and  C28_43 
REMARK   10  A    between atoms: C28_43  and  N7_44 
ROOT
HETATM    1  C7  UNL     1      -3.181   2.396  18.569  1.00  0.00     0.041 A 
HETATM    2  C8  UNL     1      -1.999   2.401  17.878  1.00  0.00     0.059 A 
HETATM    3  C9  UNL     1      -1.854   2.073  16.552  1.00  0.00     0.037 A 
HETATM    4  C20 UNL     1      -3.017   1.709  15.878  1.00  0.00     0.030 A 
HETATM    5  C21 UNL     1      -4.236   1.684  16.516  1.00  0.00     0.011 A 
HETATM    6  C22 UNL     1      -4.324   2.020  17.838  1.00  0.00    -0.035 A 
HETATM    7  C23 UNL     1      -5.611   2.012  18.580  1.00  0.00     0.050 C 
ENDROOT
BRANCH   1   8
HETATM    8  N3  UNL     1      -3.321   2.739  19.940  1.00  0.00    -0.341 N 
ATOM      9  H3  UNL     1      -3.320   1.986  20.628  1.00  0.00     0.167 HD
BRANCH   8  10
HETATM   10  C6  UNL     1      -3.462   4.046  20.398  1.00  0.00     0.119 A 
HETATM   11  N2  UNL     1      -3.363   5.150  19.659  1.00  0.00    -0.338 N 
HETATM   12  C5  UNL     1      -3.487   6.410  20.088  1.00  0.00     0.182 A 
ATOM     13  H2  UNL     1      -3.172   5.021  18.665  1.00  0.00     0.168 HD
HETATM   14  N1  UNL     1      -3.740   6.627  21.388  1.00  0.00    -0.351 N 
HETATM   15  C4  UNL     1      -3.859   5.589  22.218  1.00  0.00     0.050 A 
ATOM     16  H1  UNL     1      -3.839   7.578  21.740  1.00  0.00     0.166 HD
HETATM   17  C3  UNL     1      -4.120   5.792  23.569  1.00  0.00     0.070 A 
HETATM   18  C24 UNL     1      -3.726   4.288  21.755  1.00  0.00     0.038 A 
HETATM   19  C2  UNL     1      -4.249   4.769  24.459  1.00  0.00     0.103 A 
HETATM   20  C26 UNL     1      -4.117   3.441  24.007  1.00  0.00     0.103 A 
HETATM   21  C25 UNL     1      -3.855   3.250  22.643  1.00  0.00     0.057 A 
BRANCH  19  22
HETATM   22  O1  UNL     1      -4.505   5.003  25.784  1.00  0.00    -0.353 OA
HETATM   23  C1  UNL     1      -3.657   5.650  26.681  1.00  0.00     0.210 C 
ENDBRANCH  19  22
BRANCH  20  24
HETATM   24  O4  UNL     1      -4.235   2.409  24.855  1.00  0.00    -0.347 OA
BRANCH  24  25
HETATM   25  C27 UNL     1      -3.740   1.150  24.928  1.00  0.00     0.206 C 
BRANCH  25  26
HETATM   26  C28 UNL     1      -4.618   0.086  24.333  1.00  0.00     0.299 C 
BRANCH  26  27
HETATM   27  N7  UNL     1      -3.973  -0.313  23.078  1.00  0.00     0.090 N 
HETATM   28  C29 UNL     1      -4.768   0.088  21.944  1.00  0.00     0.272 C 
HETATM   29  C30 UNL     1      -4.061  -0.634  20.799  1.00  0.00     0.032 C 
HETATM   30  C31 UNL     1      -3.619  -1.905  21.454  1.00  0.00     0.032 C 
HETATM   31  C32 UNL     1      -3.869  -1.735  22.941  1.00  0.00     0.272 C 
ENDBRANCH  26  27
ENDBRANCH  25  26
ENDBRANCH  24  25
ENDBRANCH  20  24
ENDBRANCH   8  10
ENDBRANCH   1   8
BRANCH   3  32
HETATM   32  N4  UNL     1      -0.665   2.074  15.796  1.00  0.00    -0.323 N 
HETATM   33  C10 UNL     1      -0.233   3.021  14.843  1.00  0.00     0.256 C 
HETATM   34  O2  UNL     1      -1.004   4.015  14.618  1.00  0.00    -0.267 OA
ATOM     35  H4  UNL     1      -0.035   1.289  15.958  1.00  0.00     0.169 HD
BRANCH  33  36
HETATM   36  C11 UNL     1       1.018   2.944  14.104  1.00  0.00     0.037 A 
HETATM   37  C12 UNL     1       1.708   1.755  14.060  1.00  0.00     0.034 A 
HETATM   38  C13 UNL     1       2.916   1.646  13.370  1.00  0.00     0.090 A 
HETATM   39  N5  UNL     1       3.415   2.715  12.738  1.00  0.00    -0.352 N 
HETATM   40  C14 UNL     1       2.783   3.883  12.754  1.00  0.00     0.104 A 
ATOM     41  H5  UNL     1       4.298   2.631  12.234  1.00  0.00     0.166 HD
HETATM   42  C19 UNL     1       1.563   4.007  13.445  1.00  0.00     0.065 A 
BRANCH  40  43
HETATM   43  N6  UNL     1       3.315   5.005  12.095  1.00  0.00    -0.363 N 
HETATM   44  C15 UNL     1       2.565   6.246  12.103  1.00  0.00     0.150 C 
HETATM   45  C16 UNL     1       3.539   7.386  12.135  1.00  0.00     0.187 C 
HETATM   46  O3  UNL     1       4.374   7.408  11.044  1.00  0.00    -0.388 OA
HETATM   47  C17 UNL     1       4.544   6.186  10.420  1.00  0.00     0.187 C 
HETATM   48  C18 UNL     1       4.584   5.019  11.396  1.00  0.00     0.150 C 
ENDBRANCH  40  43
ENDBRANCH  33  36
ENDBRANCH   3  32
TORSDOF 10
ENDMDL
