MODEL 15
REMARK VINA RESULT: -10.363024291      2.291      5.996
REMARK  10 active torsions:
REMARK  status: ('A' for Active; 'I' for Inactive)
REMARK    1  A    between atoms: O1_2  and  C2_3 
REMARK    2  A    between atoms: C6_11  and  N3_12 
REMARK    3  A    between atoms: N3_12  and  C7_14 
REMARK    4  A    between atoms: C9_16  and  N4_17 
REMARK       I    between atoms: N4_17  and  C10_19 
REMARK    5  A    between atoms: C10_19  and  C11_21 
REMARK    6  A    between atoms: C14_26  and  N6_27 
REMARK    7  A    between atoms: C26_40  and  O4_41 
REMARK    8  A    between atoms: O4_41  and  C27_42 
REMARK    9  A    between atoms: C27_42  and  C28_43 
REMARK   10  A    between atoms: C28_43  and  N7_44 
ROOT
HETATM    1  C7  UNL     1      -3.760   5.535  23.560  1.00  0.00     0.041 A 
HETATM    2  C8  UNL     1      -3.488   4.810  22.431  1.00  0.00     0.059 A 
HETATM    3  C9  UNL     1      -3.801   5.192  21.149  1.00  0.00     0.037 A 
HETATM    4  C20 UNL     1      -4.446   6.418  21.013  1.00  0.00     0.030 A 
HETATM    5  C21 UNL     1      -4.748   7.195  22.108  1.00  0.00     0.011 A 
HETATM    6  C22 UNL     1      -4.414   6.767  23.363  1.00  0.00    -0.035 A 
HETATM    7  C23 UNL     1      -4.711   7.560  24.583  1.00  0.00     0.050 C 
ENDROOT
BRANCH   1   8
HETATM    8  N3  UNL     1      -3.430   5.133  24.882  1.00  0.00    -0.341 N 
ATOM      9  H3  UNL     1      -4.193   4.951  25.534  1.00  0.00     0.167 HD
BRANCH   8  10
HETATM   10  C6  UNL     1      -2.124   4.976  25.338  1.00  0.00     0.119 A 
HETATM   11  N2  UNL     1      -1.217   5.944  25.467  1.00  0.00    -0.338 N 
HETATM   12  C5  UNL     1       0.041   5.804  25.895  1.00  0.00     0.182 A 
ATOM     13  H2  UNL     1      -1.513   6.887  25.213  1.00  0.00     0.168 HD
HETATM   14  N1  UNL     1       0.473   4.581  26.242  1.00  0.00    -0.351 N 
HETATM   15  C4  UNL     1      -0.356   3.540  26.151  1.00  0.00     0.050 A 
ATOM     16  H1  UNL     1       1.428   4.449  26.572  1.00  0.00     0.166 HD
HETATM   17  C3  UNL     1       0.072   2.265  26.505  1.00  0.00     0.070 A 
HETATM   18  C24 UNL     1      -1.659   3.704  25.704  1.00  0.00     0.038 A 
HETATM   19  C2  UNL     1      -0.732   1.168  26.430  1.00  0.00     0.103 A 
HETATM   20  C26 UNL     1      -2.058   1.315  25.977  1.00  0.00     0.103 A 
HETATM   21  C25 UNL     1      -2.478   2.606  25.625  1.00  0.00     0.057 A 
BRANCH  19  22
HETATM   22  O1  UNL     1      -0.279  -0.076  26.785  1.00  0.00    -0.353 OA
HETATM   23  C1  UNL     1       0.833  -0.725  26.254  1.00  0.00     0.210 C 
ENDBRANCH  19  22
BRANCH  20  24
HETATM   24  O4  UNL     1      -2.878   0.257  25.888  1.00  0.00    -0.347 OA
BRANCH  24  25
HETATM   25  C27 UNL     1      -3.278  -0.581  24.901  1.00  0.00     0.206 C 
BRANCH  25  26
HETATM   26  C28 UNL     1      -4.647  -0.304  24.348  1.00  0.00     0.299 C 
BRANCH  26  27
HETATM   27  N7  UNL     1      -4.597  -0.693  22.935  1.00  0.00     0.090 N 
HETATM   28  C29 UNL     1      -3.504  -1.603  22.693  1.00  0.00     0.272 C 
HETATM   29  C30 UNL     1      -3.486  -1.665  21.167  1.00  0.00     0.032 C 
HETATM   30  C31 UNL     1      -3.875  -0.270  20.790  1.00  0.00     0.032 C 
HETATM   31  C32 UNL     1      -4.321   0.415  22.070  1.00  0.00     0.272 C 
ENDBRANCH  26  27
ENDBRANCH  25  26
ENDBRANCH  24  25
ENDBRANCH  20  24
ENDBRANCH   8  10
ENDBRANCH   1   8
BRANCH   3  32
HETATM   32  N4  UNL     1      -3.533   4.488  19.958  1.00  0.00    -0.323 N 
HETATM   33  C10 UNL     1      -4.235   3.394  19.409  1.00  0.00     0.256 C 
HETATM   34  O2  UNL     1      -5.249   2.966  20.060  1.00  0.00    -0.267 OA
ATOM     35  H4  UNL     1      -2.728   4.811  19.423  1.00  0.00     0.169 HD
BRANCH  33  36
HETATM   36  C11 UNL     1      -3.887   2.723  18.166  1.00  0.00     0.037 A 
HETATM   37  C12 UNL     1      -4.656   1.671  17.725  1.00  0.00     0.034 A 
HETATM   38  C13 UNL     1      -4.348   0.996  16.543  1.00  0.00     0.090 A 
HETATM   39  N5  UNL     1      -3.286   1.377  15.822  1.00  0.00    -0.352 N 
HETATM   40  C14 UNL     1      -2.516   2.387  16.210  1.00  0.00     0.104 A 
ATOM     41  H5  UNL     1      -3.065   0.881  14.959  1.00  0.00     0.166 HD
HETATM   42  C19 UNL     1      -2.816   3.076  17.400  1.00  0.00     0.065 A 
BRANCH  40  43
HETATM   43  N6  UNL     1      -1.397   2.778  15.454  1.00  0.00    -0.363 N 
HETATM   44  C15 UNL     1      -1.566   3.771  14.411  1.00  0.00     0.150 C 
HETATM   45  C16 UNL     1      -0.316   4.596  14.339  1.00  0.00     0.187 C 
HETATM   46  O3  UNL     1       0.799   3.854  14.033  1.00  0.00    -0.388 OA
HETATM   47  C17 UNL     1       0.706   2.512  14.351  1.00  0.00     0.187 C 
HETATM   48  C18 UNL     1      -0.058   2.257  15.642  1.00  0.00     0.150 C 
ENDBRANCH  40  43
ENDBRANCH  33  36
ENDBRANCH   3  32
TORSDOF 10
ENDMDL
