MODEL 10
REMARK VINA RESULT: -10.635422103      2.057      4.753
REMARK  10 active torsions:
REMARK  status: ('A' for Active; 'I' for Inactive)
REMARK    1  A    between atoms: O1_2  and  C2_3 
REMARK    2  A    between atoms: C6_11  and  N3_12 
REMARK    3  A    between atoms: N3_12  and  C7_14 
REMARK    4  A    between atoms: C9_16  and  N4_17 
REMARK       I    between atoms: N4_17  and  C10_19 
REMARK    5  A    between atoms: C10_19  and  C11_21 
REMARK    6  A    between atoms: C14_26  and  N6_27 
REMARK    7  A    between atoms: C26_40  and  O4_41 
REMARK    8  A    between atoms: O4_41  and  C27_42 
REMARK    9  A    between atoms: C27_42  and  C28_43 
REMARK   10  A    between atoms: C28_43  and  N7_44 
ROOT
HETATM    1  C7  UNL     1      -3.915   2.866  19.144  1.00  0.00     0.041 A 
HETATM    2  C8  UNL     1      -2.944   3.220  18.246  1.00  0.00     0.059 A 
HETATM    3  C9  UNL     1      -2.992   2.988  16.893  1.00  0.00     0.037 A 
HETATM    4  C20 UNL     1      -4.131   2.340  16.421  1.00  0.00     0.030 A 
HETATM    5  C21 UNL     1      -5.142   1.958  17.271  1.00  0.00     0.011 A 
HETATM    6  C22 UNL     1      -5.043   2.212  18.611  1.00  0.00    -0.035 A 
HETATM    7  C23 UNL     1      -6.102   1.825  19.578  1.00  0.00     0.050 C 
ENDROOT
BRANCH   1   8
HETATM    8  N3  UNL     1      -3.858   3.111  20.542  1.00  0.00    -0.341 N 
ATOM      9  H3  UNL     1      -3.798   2.309  21.170  1.00  0.00     0.167 HD
BRANCH   8  10
HETATM   10  C6  UNL     1      -3.879   4.385  21.103  1.00  0.00     0.119 A 
HETATM   11  N2  UNL     1      -3.851   5.537  20.434  1.00  0.00    -0.338 N 
HETATM   12  C5  UNL     1      -3.863   6.765  20.961  1.00  0.00     0.182 A 
ATOM     13  H2  UNL     1      -3.818   5.475  19.416  1.00  0.00     0.168 HD
HETATM   14  N1  UNL     1      -3.908   6.893  22.296  1.00  0.00    -0.351 N 
HETATM   15  C4  UNL     1      -3.939   5.802  23.063  1.00  0.00     0.050 A 
ATOM     16  H1  UNL     1      -3.918   7.819  22.723  1.00  0.00     0.166 HD
HETATM   17  C3  UNL     1      -3.985   5.913  24.448  1.00  0.00     0.070 A 
HETATM   18  C24 UNL     1      -3.926   4.535  22.497  1.00  0.00     0.038 A 
HETATM   19  C2  UNL     1      -4.017   4.832  25.276  1.00  0.00     0.103 A 
HETATM   20  C26 UNL     1      -4.004   3.538  24.720  1.00  0.00     0.103 A 
HETATM   21  C25 UNL     1      -3.958   3.439  23.322  1.00  0.00     0.057 A 
BRANCH  19  22
HETATM   22  O1  UNL     1      -4.062   4.977  26.638  1.00  0.00    -0.353 OA
HETATM   23  C1  UNL     1      -3.094   5.593  27.429  1.00  0.00     0.210 C 
ENDBRANCH  19  22
BRANCH  20  24
HETATM   24  O4  UNL     1      -4.031   2.450  25.505  1.00  0.00    -0.347 OA
BRANCH  24  25
HETATM   25  C27 UNL     1      -3.505   1.202  25.454  1.00  0.00     0.206 C 
BRANCH  25  26
HETATM   26  C28 UNL     1      -4.412   0.153  24.876  1.00  0.00     0.299 C 
BRANCH  26  27
HETATM   27  N7  UNL     1      -3.812  -0.236  23.596  1.00  0.00     0.090 N 
HETATM   28  C29 UNL     1      -4.645   0.178  22.494  1.00  0.00     0.272 C 
HETATM   29  C30 UNL     1      -3.980  -0.535  21.318  1.00  0.00     0.032 C 
HETATM   30  C31 UNL     1      -3.519  -1.814  21.946  1.00  0.00     0.032 C 
HETATM   31  C32 UNL     1      -3.716  -1.657  23.443  1.00  0.00     0.272 C 
ENDBRANCH  26  27
ENDBRANCH  25  26
ENDBRANCH  24  25
ENDBRANCH  20  24
ENDBRANCH   8  10
ENDBRANCH   1   8
BRANCH   3  32
HETATM   32  N4  UNL     1      -2.027   3.343  15.930  1.00  0.00    -0.323 N 
HETATM   33  C10 UNL     1      -0.797   2.711  15.647  1.00  0.00     0.256 C 
HETATM   34  O2  UNL     1      -0.498   1.681  16.343  1.00  0.00    -0.267 OA
ATOM     35  H4  UNL     1      -2.245   4.163  15.364  1.00  0.00     0.169 HD
BRANCH  33  36
HETATM   36  C11 UNL     1       0.146   3.147  14.629  1.00  0.00     0.037 A 
HETATM   37  C12 UNL     1       1.142   2.292  14.217  1.00  0.00     0.034 A 
HETATM   38  C13 UNL     1       2.072   2.678  13.251  1.00  0.00     0.090 A 
HETATM   39  N5  UNL     1       1.995   3.901  12.711  1.00  0.00    -0.352 N 
HETATM   40  C14 UNL     1       1.050   4.759  13.078  1.00  0.00     0.104 A 
ATOM     41  H5  UNL     1       2.676   4.179  12.004  1.00  0.00     0.166 HD
HETATM   42  C19 UNL     1       0.106   4.382  14.052  1.00  0.00     0.065 A 
BRANCH  40  43
HETATM   43  N6  UNL     1       0.979   6.044  12.515  1.00  0.00    -0.363 N 
HETATM   44  C15 UNL     1      -0.230   6.442  11.820  1.00  0.00     0.150 C 
HETATM   45  C16 UNL     1      -0.443   7.909  12.044  1.00  0.00     0.187 C 
HETATM   46  O3  UNL     1       0.588   8.679  11.563  1.00  0.00    -0.388 OA
HETATM   47  C17 UNL     1       1.799   8.022  11.454  1.00  0.00     0.187 C 
HETATM   48  C18 UNL     1       2.042   7.027  12.579  1.00  0.00     0.150 C 
ENDBRANCH  40  43
ENDBRANCH  33  36
ENDBRANCH   3  32
TORSDOF 10
ENDMDL
