MODEL 4
REMARK VINA RESULT: -11.265075745      1.547      2.264
REMARK  10 active torsions:
REMARK  status: ('A' for Active; 'I' for Inactive)
REMARK    1  A    between atoms: O1_2  and  C2_3 
REMARK    2  A    between atoms: C6_11  and  N3_12 
REMARK    3  A    between atoms: N3_12  and  C7_14 
REMARK    4  A    between atoms: C9_16  and  N4_17 
REMARK       I    between atoms: N4_17  and  C10_19 
REMARK    5  A    between atoms: C10_19  and  C11_21 
REMARK    6  A    between atoms: C14_26  and  N6_27 
REMARK    7  A    between atoms: C26_40  and  O4_41 
REMARK    8  A    between atoms: O4_41  and  C27_42 
REMARK    9  A    between atoms: C27_42  and  C28_43 
REMARK   10  A    between atoms: C28_43  and  N7_44 
ROOT
HETATM    1  C7  UNL     1      -4.629   1.723  18.769  1.00  0.00     0.041 A 
HETATM    2  C8  UNL     1      -3.635   2.221  17.969  1.00  0.00     0.059 A 
HETATM    3  C9  UNL     1      -3.733   2.421  16.614  1.00  0.00     0.037 A 
HETATM    4  C20 UNL     1      -4.951   2.084  16.029  1.00  0.00     0.030 A 
HETATM    5  C21 UNL     1      -5.990   1.579  16.778  1.00  0.00     0.011 A 
HETATM    6  C22 UNL     1      -5.838   1.399  18.124  1.00  0.00    -0.035 A 
HETATM    7  C23 UNL     1      -6.923   0.859  18.985  1.00  0.00     0.050 C 
ENDROOT
BRANCH   1   8
HETATM    8  N3  UNL     1      -4.520   1.521  20.171  1.00  0.00    -0.341 N 
ATOM      9  H3  UNL     1      -4.685   2.318  20.786  1.00  0.00     0.167 HD
BRANCH   8  10
HETATM   10  C6  UNL     1      -4.199   0.297  20.752  1.00  0.00     0.119 A 
HETATM   11  N2  UNL     1      -3.902  -0.826  20.099  1.00  0.00    -0.338 N 
HETATM   12  C5  UNL     1      -3.600  -2.008  20.645  1.00  0.00     0.182 A 
ATOM     13  H2  UNL     1      -3.905  -0.779  19.080  1.00  0.00     0.168 HD
HETATM   14  N1  UNL     1      -3.584  -2.115  21.983  1.00  0.00    -0.351 N 
HETATM   15  C4  UNL     1      -3.866  -1.049  22.733  1.00  0.00     0.050 A 
ATOM     16  H1  UNL     1      -3.356  -3.006  22.423  1.00  0.00     0.166 HD
HETATM   17  C3  UNL     1      -3.854  -1.140  24.121  1.00  0.00     0.070 A 
HETATM   18  C24 UNL     1      -4.177   0.170  22.149  1.00  0.00     0.038 A 
HETATM   19  C2  UNL     1      -4.137  -0.083  24.933  1.00  0.00     0.103 A 
HETATM   20  C26 UNL     1      -4.455   1.163  24.357  1.00  0.00     0.103 A 
HETATM   21  C25 UNL     1      -4.462   1.241  22.957  1.00  0.00     0.057 A 
BRANCH  19  22
HETATM   22  O1  UNL     1      -4.117  -0.206  26.297  1.00  0.00    -0.353 OA
HETATM   23  C1  UNL     1      -4.767  -1.189  27.041  1.00  0.00     0.210 C 
ENDBRANCH  19  22
BRANCH  20  24
HETATM   24  O4  UNL     1      -4.741   2.224  25.126  1.00  0.00    -0.347 OA
BRANCH  24  25
HETATM   25  C27 UNL     1      -4.106   3.368  25.478  1.00  0.00     0.206 C 
BRANCH  25  26
HETATM   26  C28 UNL     1      -3.238   3.264  26.699  1.00  0.00     0.299 C 
BRANCH  26  27
HETATM   27  N7  UNL     1      -1.908   2.880  26.216  1.00  0.00     0.090 N 
HETATM   28  C29 UNL     1      -1.340   1.848  27.049  1.00  0.00     0.272 C 
HETATM   29  C30 UNL     1       0.097   1.791  26.535  1.00  0.00     0.032 C 
HETATM   30  C31 UNL     1       0.368   3.225  26.200  1.00  0.00     0.032 C 
HETATM   31  C32 UNL     1      -0.961   3.951  26.301  1.00  0.00     0.272 C 
ENDBRANCH  26  27
ENDBRANCH  25  26
ENDBRANCH  24  25
ENDBRANCH  20  24
ENDBRANCH   8  10
ENDBRANCH   1   8
BRANCH   3  32
HETATM   32  N4  UNL     1      -2.746   2.940  15.753  1.00  0.00    -0.323 N 
HETATM   33  C10 UNL     1      -1.357   2.691  15.761  1.00  0.00     0.256 C 
HETATM   34  O2  UNL     1      -0.913   1.895  16.658  1.00  0.00    -0.267 OA
ATOM     35  H4  UNL     1      -3.078   3.578  15.030  1.00  0.00     0.169 HD
BRANCH  33  36
HETATM   36  C11 UNL     1      -0.404   3.272  14.829  1.00  0.00     0.037 A 
HETATM   37  C12 UNL     1      -0.658   4.507  14.279  1.00  0.00     0.034 A 
HETATM   38  C13 UNL     1       0.227   5.092  13.374  1.00  0.00     0.090 A 
HETATM   39  N5  UNL     1       1.347   4.443  13.031  1.00  0.00    -0.352 N 
HETATM   40  C14 UNL     1       1.634   3.248  13.537  1.00  0.00     0.104 A 
ATOM     41  H5  UNL     1       1.993   4.874  12.370  1.00  0.00     0.166 HD
HETATM   42  C19 UNL     1       0.749   2.647  14.452  1.00  0.00     0.065 A 
BRANCH  40  43
HETATM   43  N6  UNL     1       2.807   2.567  13.169  1.00  0.00    -0.363 N 
HETATM   44  C15 UNL     1       3.507   2.973  11.965  1.00  0.00     0.150 C 
HETATM   45  C16 UNL     1       4.977   2.779  12.186  1.00  0.00     0.187 C 
HETATM   46  O3  UNL     1       5.313   1.472  12.445  1.00  0.00    -0.388 OA
HETATM   47  C17 UNL     1       4.286   0.702  12.960  1.00  0.00     0.187 C 
HETATM   48  C18 UNL     1       3.387   1.470  13.917  1.00  0.00     0.150 C 
ENDBRANCH  40  43
ENDBRANCH  33  36
ENDBRANCH   3  32
TORSDOF 10
ENDMDL
