MODEL 14
REMARK VINA RESULT: -8.796500941      3.362      4.868
REMARK  5 active torsions:
REMARK  status: ('A' for Active; 'I' for Inactive)
REMARK    1  A    between atoms: C2_3  and  C3_4 
REMARK    2  A    between atoms: C3_4  and  C4_6 
REMARK    3  A    between atoms: C8_10  and  O2_11 
REMARK    4  A    between atoms: O2_11  and  C9_12 
REMARK    5  A    between atoms: N4_24  and  C16_25 
ROOT
HETATM    1  C3  UNL     1      -3.032  -1.769  22.561  1.00  0.00     0.197 C 
HETATM    2  O1  UNL     1      -3.676  -2.799  22.168  1.00  0.00    -0.286 OA
ENDROOT
BRANCH   1   3
HETATM    3  C2  UNL     1      -3.172  -0.520  21.865  1.00  0.00     0.075 A 
HETATM    4  C1  UNL     1      -3.033  -0.438  20.468  1.00  0.00     0.154 A 
HETATM    5  N1  UNL     1      -2.790  -1.534  19.578  1.00  0.00    -0.080 NA
HETATM    6  N4  UNL     1      -3.173   0.849  20.107  1.00  0.00    -0.242 N 
HETATM    7  N3  UNL     1      -3.387   1.550  21.196  1.00  0.00    -0.302 N 
HETATM    8  C15 UNL     1      -3.391   0.750  22.274  1.00  0.00     0.126 A 
ATOM      9  H3  UNL     1      -3.530   2.560  21.220  1.00  0.00     0.186 HD
BRANCH   6  10
HETATM   10  C16 UNL     1      -3.092   1.297  18.738  1.00  0.00     0.058 A 
HETATM   11  C17 UNL     1      -4.266   1.498  18.028  1.00  0.00     0.034 A 
HETATM   12  C18 UNL     1      -4.150   1.920  16.720  1.00  0.00     0.044 A 
HETATM   13  C19 UNL     1      -2.935   2.140  16.121  1.00  0.00     0.116 A 
HETATM   14  F1  UNL     1      -2.800   2.553  14.841  1.00  0.00    -0.206 F 
HETATM   15  C20 UNL     1      -1.775   1.934  16.852  1.00  0.00     0.044 A 
HETATM   16  C21 UNL     1      -1.865   1.511  18.161  1.00  0.00     0.034 A 
ENDBRANCH   6  10
ENDBRANCH   1   3
BRANCH   1  17
HETATM   17  C4  UNL     1      -2.182  -1.984  23.733  1.00  0.00     0.018 A 
HETATM   18  C5  UNL     1      -0.813  -2.031  23.705  1.00  0.00     0.015 A 
HETATM   19  C6  UNL     1      -0.024  -2.267  24.808  1.00  0.00     0.004 A 
HETATM   20  C7  UNL     1      -0.655  -2.470  26.042  1.00  0.00     0.037 A 
HETATM   21  C8  UNL     1      -2.021  -2.433  26.126  1.00  0.00     0.070 A 
HETATM   22  C14 UNL     1      -2.779  -2.190  24.974  1.00  0.00     0.052 A 
BRANCH  21  23
HETATM   23  O2  UNL     1      -2.760  -2.613  27.267  1.00  0.00    -0.346 OA
BRANCH  23  24
HETATM   24  C9  UNL     1      -3.487  -1.606  27.882  1.00  0.00     0.132 C 
HETATM   25  C10 UNL     1      -3.627  -1.873  29.386  1.00  0.00     0.060 C 
HETATM   26  C11 UNL     1      -4.111  -0.569  30.003  1.00  0.00     0.235 C 
HETATM   27  N2  UNL     1      -3.045   0.418  30.021  1.00  0.00    -0.075 N 
HETATM   28  C12 UNL     1      -2.198   0.310  28.856  1.00  0.00     0.235 C 
ATOM     29  H22 UNL     1      -3.415   1.363  30.125  1.00  0.00     0.277 HD
ATOM     30  H21 UNL     1      -2.501   0.363  30.882  1.00  0.00     0.277 HD
HETATM   31  C13 UNL     1      -2.899  -0.228  27.647  1.00  0.00     0.060 C 
ENDBRANCH  23  24
ENDBRANCH  21  23
ENDBRANCH   1  17
TORSDOF 5
ENDMDL
