MODEL 1
REMARK VINA RESULT: -9.253708816      0.000      0.000
REMARK  5 active torsions:
REMARK  status: ('A' for Active; 'I' for Inactive)
REMARK    1  A    between atoms: C2_3  and  C3_4 
REMARK    2  A    between atoms: C3_4  and  C4_6 
REMARK    3  A    between atoms: C8_10  and  O2_11 
REMARK    4  A    between atoms: O2_11  and  C9_12 
REMARK    5  A    between atoms: N4_24  and  C16_25 
ROOT
HETATM    1  C3  UNL     1      -2.470  -0.861  22.839  1.00  0.00     0.197 C 
HETATM    2  O1  UNL     1      -3.340  -1.276  23.678  1.00  0.00    -0.286 OA
ENDROOT
BRANCH   1   3
HETATM    3  C2  UNL     1      -2.694  -1.020  21.428  1.00  0.00     0.075 A 
HETATM    4  C1  UNL     1      -3.123   0.054  20.628  1.00  0.00     0.154 A 
HETATM    5  N1  UNL     1      -3.346   1.400  21.068  1.00  0.00    -0.080 NA
HETATM    6  N4  UNL     1      -3.286  -0.398  19.373  1.00  0.00    -0.242 N 
HETATM    7  N3  UNL     1      -2.983  -1.674  19.364  1.00  0.00    -0.302 N 
HETATM    8  C15 UNL     1      -2.622  -2.079  20.591  1.00  0.00     0.126 A 
ATOM      9  H3  UNL     1      -3.016  -2.275  18.540  1.00  0.00     0.186 HD
BRANCH   6  10
HETATM   10  C16 UNL     1      -3.719   0.442  18.282  1.00  0.00     0.058 A 
HETATM   11  C17 UNL     1      -2.786   0.852  17.342  1.00  0.00     0.034 A 
HETATM   12  C18 UNL     1      -3.234   1.659  16.317  1.00  0.00     0.044 A 
HETATM   13  C19 UNL     1      -4.543   2.056  16.209  1.00  0.00     0.116 A 
HETATM   14  F1  UNL     1      -5.002   2.848  15.214  1.00  0.00    -0.206 F 
HETATM   15  C20 UNL     1      -5.457   1.633  17.162  1.00  0.00     0.044 A 
HETATM   16  C21 UNL     1      -5.034   0.826  18.196  1.00  0.00     0.034 A 
ENDBRANCH   6  10
ENDBRANCH   1   3
BRANCH   1  17
HETATM   17  C4  UNL     1      -1.286  -0.243  23.436  1.00  0.00     0.018 A 
HETATM   18  C5  UNL     1      -0.071  -0.860  23.575  1.00  0.00     0.015 A 
HETATM   19  C6  UNL     1       1.028  -0.279  24.168  1.00  0.00     0.004 A 
HETATM   20  C7  UNL     1       0.903   1.027  24.659  1.00  0.00     0.037 A 
HETATM   21  C8  UNL     1      -0.290   1.690  24.544  1.00  0.00     0.070 A 
HETATM   22  C14 UNL     1      -1.379   1.055  23.933  1.00  0.00     0.052 A 
BRANCH  21  23
HETATM   23  O2  UNL     1      -0.544   2.965  24.979  1.00  0.00    -0.346 OA
BRANCH  23  24
HETATM   24  C9  UNL     1      -0.177   4.105  24.281  1.00  0.00     0.132 C 
HETATM   25  C10 UNL     1       1.244   4.543  24.656  1.00  0.00     0.060 C 
HETATM   26  C11 UNL     1       1.667   5.554  23.601  1.00  0.00     0.235 C 
HETATM   27  N2  UNL     1       1.932   4.894  22.334  1.00  0.00    -0.075 N 
HETATM   28  C12 UNL     1       1.038   3.783  22.113  1.00  0.00     0.235 C 
ATOM     29  H22 UNL     1       1.903   5.554  21.557  1.00  0.00     0.277 HD
ATOM     30  H21 UNL     1       2.908   4.606  22.262  1.00  0.00     0.277 HD
HETATM   31  C13 UNL     1      -0.294   3.938  22.778  1.00  0.00     0.060 C 
ENDBRANCH  23  24
ENDBRANCH  21  23
ENDBRANCH   1  17
TORSDOF 5
ENDMDL
