MODEL 2
REMARK VINA RESULT: -9.240008035      1.041      1.216
REMARK  5 active torsions:
REMARK  status: ('A' for Active; 'I' for Inactive)
REMARK    1  A    between atoms: C2_3  and  C3_4 
REMARK    2  A    between atoms: C3_4  and  C4_6 
REMARK    3  A    between atoms: C8_10  and  O2_11 
REMARK    4  A    between atoms: O2_11  and  C9_12 
REMARK    5  A    between atoms: N4_24  and  C16_25 
ROOT
HETATM    1  C3  UNL     1      -2.835  -1.256  22.895  1.00  0.00     0.197 C 
HETATM    2  O1  UNL     1      -3.898  -1.349  23.597  1.00  0.00    -0.286 OA
ENDROOT
BRANCH   1   3
HETATM    3  C2  UNL     1      -2.908  -1.315  21.461  1.00  0.00     0.075 A 
HETATM    4  C1  UNL     1      -3.279  -0.194  20.698  1.00  0.00     0.154 A 
HETATM    5  N1  UNL     1      -3.578   1.112  21.205  1.00  0.00    -0.080 NA
HETATM    6  N4  UNL     1      -3.302  -0.556  19.404  1.00  0.00    -0.242 N 
HETATM    7  N3  UNL     1      -2.968  -1.824  19.336  1.00  0.00    -0.302 N 
HETATM    8  C15 UNL     1      -2.725  -2.310  20.563  1.00  0.00     0.126 A 
ATOM      9  H3  UNL     1      -2.902  -2.364  18.473  1.00  0.00     0.186 HD
BRANCH   6  10
HETATM   10  C16 UNL     1      -3.640   0.353  18.335  1.00  0.00     0.058 A 
HETATM   11  C17 UNL     1      -2.643   0.762  17.463  1.00  0.00     0.034 A 
HETATM   12  C18 UNL     1      -3.001   1.636  16.458  1.00  0.00     0.044 A 
HETATM   13  C19 UNL     1      -4.284   2.099  16.306  1.00  0.00     0.116 A 
HETATM   14  F1  UNL     1      -4.655   2.957  15.329  1.00  0.00    -0.206 F 
HETATM   15  C20 UNL     1      -5.263   1.675  17.190  1.00  0.00     0.044 A 
HETATM   16  C21 UNL     1      -4.930   0.802  18.203  1.00  0.00     0.034 A 
ENDBRANCH   6  10
ENDBRANCH   1   3
BRANCH   1  17
HETATM   17  C4  UNL     1      -1.601  -1.093  23.664  1.00  0.00     0.018 A 
HETATM   18  C5  UNL     1      -1.039  -2.063  24.451  1.00  0.00     0.015 A 
HETATM   19  C6  UNL     1       0.106  -1.888  25.196  1.00  0.00     0.004 A 
HETATM   20  C7  UNL     1       0.741  -0.641  25.150  1.00  0.00     0.037 A 
HETATM   21  C8  UNL     1       0.221   0.364  24.379  1.00  0.00     0.070 A 
HETATM   22  C14 UNL     1      -0.946   0.136  23.639  1.00  0.00     0.052 A 
BRANCH  21  23
HETATM   23  O2  UNL     1       0.744   1.625  24.245  1.00  0.00    -0.346 OA
BRANCH  23  24
HETATM   24  C9  UNL     1       0.116   2.772  24.706  1.00  0.00     0.132 C 
HETATM   25  C10 UNL     1       1.074   3.614  25.559  1.00  0.00     0.060 C 
HETATM   26  C11 UNL     1       0.420   4.980  25.704  1.00  0.00     0.235 C 
HETATM   27  N2  UNL     1       0.482   5.716  24.453  1.00  0.00    -0.075 N 
HETATM   28  C12 UNL     1       0.344   4.843  23.312  1.00  0.00     0.235 C 
ATOM     29  H22 UNL     1      -0.205   6.469  24.430  1.00  0.00     0.277 HD
ATOM     30  H21 UNL     1       1.334   6.275  24.393  1.00  0.00     0.277 HD
HETATM   31  C13 UNL     1      -0.465   3.613  23.587  1.00  0.00     0.060 C 
ENDBRANCH  23  24
ENDBRANCH  21  23
ENDBRANCH   1  17
TORSDOF 5
ENDMDL
