MODEL 5
REMARK VINA RESULT: -9.000153082      3.440      5.329
REMARK  5 active torsions:
REMARK  status: ('A' for Active; 'I' for Inactive)
REMARK    1  A    between atoms: C2_3  and  C3_4 
REMARK    2  A    between atoms: C3_4  and  C4_6 
REMARK    3  A    between atoms: C8_10  and  O2_11 
REMARK    4  A    between atoms: O2_11  and  C9_12 
REMARK    5  A    between atoms: N4_24  and  C16_25 
ROOT
HETATM    1  C3  UNL     1      -2.383  -1.757  22.300  1.00  0.00     0.197 C 
HETATM    2  O1  UNL     1      -2.559  -2.897  21.751  1.00  0.00    -0.286 OA
ENDROOT
BRANCH   1   3
HETATM    3  C2  UNL     1      -2.991  -0.583  21.737  1.00  0.00     0.075 A 
HETATM    4  C1  UNL     1      -3.304  -0.503  20.369  1.00  0.00     0.154 A 
HETATM    5  N1  UNL     1      -3.115  -1.538  19.396  1.00  0.00    -0.080 NA
HETATM    6  N4  UNL     1      -3.817   0.716  20.127  1.00  0.00    -0.242 N 
HETATM    7  N3  UNL     1      -3.834   1.376  21.261  1.00  0.00    -0.302 N 
HETATM    8  C15 UNL     1      -3.340   0.617  22.252  1.00  0.00     0.126 A 
ATOM      9  H3  UNL     1      -4.175   2.331  21.374  1.00  0.00     0.186 HD
BRANCH   6  10
HETATM   10  C16 UNL     1      -4.253   1.143  18.820  1.00  0.00     0.058 A 
HETATM   11  C17 UNL     1      -3.363   1.829  18.007  1.00  0.00     0.034 A 
HETATM   12  C18 UNL     1      -3.816   2.227  16.767  1.00  0.00     0.044 A 
HETATM   13  C19 UNL     1      -5.092   1.969  16.330  1.00  0.00     0.116 A 
HETATM   14  F1  UNL     1      -5.556   2.352  15.120  1.00  0.00    -0.206 F 
HETATM   15  C20 UNL     1      -5.963   1.281  17.160  1.00  0.00     0.044 A 
HETATM   16  C21 UNL     1      -5.533   0.873  18.405  1.00  0.00     0.034 A 
ENDBRANCH   6  10
ENDBRANCH   1   3
BRANCH   1  17
HETATM   17  C4  UNL     1      -1.543  -1.774  23.497  1.00  0.00     0.018 A 
HETATM   18  C5  UNL     1      -0.276  -1.255  23.568  1.00  0.00     0.015 A 
HETATM   19  C6  UNL     1       0.519  -1.305  24.692  1.00  0.00     0.004 A 
HETATM   20  C7  UNL     1       0.005  -1.922  25.839  1.00  0.00     0.037 A 
HETATM   21  C8  UNL     1      -1.256  -2.456  25.823  1.00  0.00     0.070 A 
HETATM   22  C14 UNL     1      -2.025  -2.380  24.655  1.00  0.00     0.052 A 
BRANCH  21  23
HETATM   23  O2  UNL     1      -1.875  -3.082  26.874  1.00  0.00    -0.346 OA
BRANCH  23  24
HETATM   24  C9  UNL     1      -3.200  -2.871  27.225  1.00  0.00     0.132 C 
HETATM   25  C10 UNL     1      -3.717  -4.010  28.114  1.00  0.00     0.060 C 
HETATM   26  C11 UNL     1      -5.021  -3.512  28.720  1.00  0.00     0.235 C 
HETATM   27  N2  UNL     1      -4.766  -2.500  29.730  1.00  0.00    -0.075 N 
HETATM   28  C12 UNL     1      -3.639  -1.669  29.380  1.00  0.00     0.235 C 
ATOM     29  H22 UNL     1      -5.598  -1.940  29.914  1.00  0.00     0.277 HD
ATOM     30  H21 UNL     1      -4.647  -2.918  30.653  1.00  0.00     0.277 HD
HETATM   31  C13 UNL     1      -3.423  -1.534  27.904  1.00  0.00     0.060 C 
ENDBRANCH  23  24
ENDBRANCH  21  23
ENDBRANCH   1  17
TORSDOF 5
ENDMDL
