MODEL 13
REMARK VINA RESULT: -8.809151391      2.951      4.349
REMARK  5 active torsions:
REMARK  status: ('A' for Active; 'I' for Inactive)
REMARK    1  A    between atoms: C2_3  and  C3_4 
REMARK    2  A    between atoms: C3_4  and  C4_6 
REMARK    3  A    between atoms: C8_10  and  O2_11 
REMARK    4  A    between atoms: O2_11  and  C9_12 
REMARK    5  A    between atoms: N4_24  and  C16_25 
ROOT
HETATM    1  C3  UNL     1      -2.993  -1.230  22.923  1.00  0.00     0.197 C 
HETATM    2  O1  UNL     1      -4.094  -1.197  23.569  1.00  0.00    -0.286 OA
ENDROOT
BRANCH   1   3
HETATM    3  C2  UNL     1      -3.000  -1.297  21.487  1.00  0.00     0.075 A 
HETATM    4  C1  UNL     1      -3.332  -0.180  20.702  1.00  0.00     0.154 A 
HETATM    5  N1  UNL     1      -3.652   1.130  21.187  1.00  0.00    -0.080 NA
HETATM    6  N4  UNL     1      -3.295  -0.549  19.410  1.00  0.00    -0.242 N 
HETATM    7  N3  UNL     1      -2.962  -1.817  19.365  1.00  0.00    -0.302 N 
HETATM    8  C15 UNL     1      -2.777  -2.297  20.605  1.00  0.00     0.126 A 
ATOM      9  H3  UNL     1      -2.857  -2.362  18.508  1.00  0.00     0.186 HD
BRANCH   6  10
HETATM   10  C16 UNL     1      -3.581   0.355  18.322  1.00  0.00     0.058 A 
HETATM   11  C17 UNL     1      -2.560   0.698  17.449  1.00  0.00     0.034 A 
HETATM   12  C18 UNL     1      -2.868   1.569  16.425  1.00  0.00     0.044 A 
HETATM   13  C19 UNL     1      -4.126   2.092  16.256  1.00  0.00     0.116 A 
HETATM   14  F1  UNL     1      -4.448   2.948  15.260  1.00  0.00    -0.206 F 
HETATM   15  C20 UNL     1      -5.131   1.734  17.141  1.00  0.00     0.044 A 
HETATM   16  C21 UNL     1      -4.847   0.864  18.172  1.00  0.00     0.034 A 
ENDBRANCH   6  10
ENDBRANCH   1   3
BRANCH   1  17
HETATM   17  C4  UNL     1      -1.790  -1.196  23.754  1.00  0.00     0.018 A 
HETATM   18  C5  UNL     1      -0.653  -0.493  23.451  1.00  0.00     0.015 A 
HETATM   19  C6  UNL     1       0.486  -0.495  24.225  1.00  0.00     0.004 A 
HETATM   20  C7  UNL     1       0.488  -1.259  25.399  1.00  0.00     0.037 A 
HETATM   21  C8  UNL     1      -0.623  -1.979  25.749  1.00  0.00     0.070 A 
HETATM   22  C14 UNL     1      -1.757  -1.945  24.927  1.00  0.00     0.052 A 
BRANCH  21  23
HETATM   23  O2  UNL     1      -0.751  -2.762  26.867  1.00  0.00    -0.346 OA
BRANCH  23  24
HETATM   24  C9  UNL     1      -1.178  -2.286  28.098  1.00  0.00     0.132 C 
HETATM   25  C10 UNL     1      -1.099  -0.755  28.148  1.00  0.00     0.060 C 
HETATM   26  C11 UNL     1      -1.906  -0.331  29.366  1.00  0.00     0.235 C 
HETATM   27  N2  UNL     1      -3.328  -0.502  29.126  1.00  0.00    -0.075 N 
HETATM   28  C12 UNL     1      -3.596  -1.663  28.311  1.00  0.00     0.235 C 
ATOM     29  H22 UNL     1      -3.852  -0.532  30.000  1.00  0.00     0.277 HD
ATOM     30  H21 UNL     1      -3.741   0.339  28.721  1.00  0.00     0.277 HD
HETATM   31  C13 UNL     1      -2.576  -2.750  28.455  1.00  0.00     0.060 C 
ENDBRANCH  23  24
ENDBRANCH  21  23
ENDBRANCH   1  17
TORSDOF 5
ENDMDL
