MODEL 3
REMARK VINA RESULT: -9.234354318      0.842      1.240
REMARK  5 active torsions:
REMARK  status: ('A' for Active; 'I' for Inactive)
REMARK    1  A    between atoms: C2_3  and  C3_4 
REMARK    2  A    between atoms: C3_4  and  C4_6 
REMARK    3  A    between atoms: C8_10  and  O2_11 
REMARK    4  A    between atoms: O2_11  and  C9_12 
REMARK    5  A    between atoms: N4_24  and  C16_25 
ROOT
HETATM    1  C3  UNL     1      -2.639  -1.206  22.907  1.00  0.00     0.197 C 
HETATM    2  O1  UNL     1      -3.636  -1.517  23.642  1.00  0.00    -0.286 OA
ENDROOT
BRANCH   1   3
HETATM    3  C2  UNL     1      -2.744  -1.281  21.476  1.00  0.00     0.075 A 
HETATM    4  C1  UNL     1      -3.142  -0.172  20.710  1.00  0.00     0.154 A 
HETATM    5  N1  UNL     1      -3.443   1.137  21.210  1.00  0.00    -0.080 NA
HETATM    6  N4  UNL     1      -3.190  -0.548  19.420  1.00  0.00    -0.242 N 
HETATM    7  N3  UNL     1      -2.846  -1.813  19.359  1.00  0.00    -0.302 N 
HETATM    8  C15 UNL     1      -2.571  -2.284  20.585  1.00  0.00     0.126 A 
ATOM      9  H3  UNL     1      -2.794  -2.362  18.500  1.00  0.00     0.186 HD
BRANCH   6  10
HETATM   10  C16 UNL     1      -3.560   0.347  18.351  1.00  0.00     0.058 A 
HETATM   11  C17 UNL     1      -2.581   0.783  17.472  1.00  0.00     0.034 A 
HETATM   12  C18 UNL     1      -2.970   1.642  16.466  1.00  0.00     0.044 A 
HETATM   13  C19 UNL     1      -4.267   2.064  16.318  1.00  0.00     0.116 A 
HETATM   14  F1  UNL     1      -4.669   2.907  15.340  1.00  0.00    -0.206 F 
HETATM   15  C20 UNL     1      -5.229   1.613  17.208  1.00  0.00     0.044 A 
HETATM   16  C21 UNL     1      -4.865   0.754  18.222  1.00  0.00     0.034 A 
ENDBRANCH   6  10
ENDBRANCH   1   3
BRANCH   1  17
HETATM   17  C4  UNL     1      -1.442  -0.788  23.639  1.00  0.00     0.018 A 
HETATM   18  C5  UNL     1      -0.429  -1.627  24.020  1.00  0.00     0.015 A 
HETATM   19  C6  UNL     1       0.677  -1.229  24.737  1.00  0.00     0.004 A 
HETATM   20  C7  UNL     1       0.780   0.119  25.100  1.00  0.00     0.037 A 
HETATM   21  C8  UNL     1      -0.204   1.002  24.744  1.00  0.00     0.070 A 
HETATM   22  C14 UNL     1      -1.311   0.546  24.015  1.00  0.00     0.052 A 
BRANCH  21  23
HETATM   23  O2  UNL     1      -0.225   2.341  25.034  1.00  0.00    -0.346 OA
BRANCH  23  24
HETATM   24  C9  UNL     1       0.510   3.292  24.342  1.00  0.00     0.132 C 
HETATM   25  C10 UNL     1      -0.394   4.111  23.413  1.00  0.00     0.060 C 
HETATM   26  C11 UNL     1       0.423   5.323  22.990  1.00  0.00     0.235 C 
HETATM   27  N2  UNL     1       0.566   6.258  24.093  1.00  0.00    -0.075 N 
HETATM   28  C12 UNL     1       0.682   5.576  25.359  1.00  0.00     0.235 C 
ATOM     29  H22 UNL     1       1.348   6.895  23.941  1.00  0.00     0.277 HD
ATOM     30  H21 UNL     1      -0.194   6.938  24.104  1.00  0.00     0.277 HD
HETATM   31  C13 UNL     1       1.293   4.212  25.258  1.00  0.00     0.060 C 
ENDBRANCH  23  24
ENDBRANCH  21  23
ENDBRANCH   1  17
TORSDOF 5
ENDMDL
