MODEL 15
REMARK VINA RESULT: -8.793130443      3.711      5.677
REMARK  5 active torsions:
REMARK  status: ('A' for Active; 'I' for Inactive)
REMARK    1  A    between atoms: C2_3  and  C3_4 
REMARK    2  A    between atoms: C3_4  and  C4_6 
REMARK    3  A    between atoms: C8_10  and  O2_11 
REMARK    4  A    between atoms: O2_11  and  C9_12 
REMARK    5  A    between atoms: N4_24  and  C16_25 
ROOT
HETATM    1  C3  UNL     1      -3.362  -1.252  22.944  1.00  0.00     0.197 C 
HETATM    2  O1  UNL     1      -4.468  -0.848  23.439  1.00  0.00    -0.286 OA
ENDROOT
BRANCH   1   3
HETATM    3  C2  UNL     1      -3.191  -1.319  21.519  1.00  0.00     0.075 A 
HETATM    4  C1  UNL     1      -3.336  -0.180  20.707  1.00  0.00     0.154 A 
HETATM    5  N1  UNL     1      -3.616   1.150  21.160  1.00  0.00    -0.080 NA
HETATM    6  N4  UNL     1      -3.162  -0.552  19.428  1.00  0.00    -0.242 N 
HETATM    7  N3  UNL     1      -2.922  -1.842  19.414  1.00  0.00    -0.302 N 
HETATM    8  C15 UNL     1      -2.933  -2.334  20.663  1.00  0.00     0.126 A 
ATOM      9  H3  UNL     1      -2.750  -2.394  18.573  1.00  0.00     0.186 HD
BRANCH   6  10
HETATM   10  C16 UNL     1      -3.239   0.371  18.321  1.00  0.00     0.058 A 
HETATM   11  C17 UNL     1      -4.484   0.805  17.895  1.00  0.00     0.034 A 
HETATM   12  C18 UNL     1      -4.520   1.681  16.831  1.00  0.00     0.044 A 
HETATM   13  C19 UNL     1      -3.383   2.120  16.199  1.00  0.00     0.116 A 
HETATM   14  F1  UNL     1      -3.396   2.977  15.153  1.00  0.00    -0.206 F 
HETATM   15  C20 UNL     1      -2.149   1.672  16.643  1.00  0.00     0.044 A 
HETATM   16  C21 UNL     1      -2.087   0.796  17.705  1.00  0.00     0.034 A 
ENDBRANCH   6  10
ENDBRANCH   1   3
BRANCH   1  17
HETATM   17  C4  UNL     1      -2.344  -1.620  23.928  1.00  0.00     0.018 A 
HETATM   18  C5  UNL     1      -0.993  -1.499  23.735  1.00  0.00     0.015 A 
HETATM   19  C6  UNL     1      -0.043  -1.879  24.656  1.00  0.00     0.004 A 
HETATM   20  C7  UNL     1      -0.479  -2.421  25.872  1.00  0.00     0.037 A 
HETATM   21  C8  UNL     1      -1.819  -2.562  26.117  1.00  0.00     0.070 A 
HETATM   22  C14 UNL     1      -2.746  -2.162  25.147  1.00  0.00     0.052 A 
BRANCH  21  23
HETATM   23  O2  UNL     1      -2.375  -3.074  27.261  1.00  0.00    -0.346 OA
BRANCH  23  24
HETATM   24  C9  UNL     1      -3.714  -2.940  27.594  1.00  0.00     0.132 C 
HETATM   25  C10 UNL     1      -4.343  -4.307  27.892  1.00  0.00     0.060 C 
HETATM   26  C11 UNL     1      -5.671  -4.019  28.577  1.00  0.00     0.235 C 
HETATM   27  N2  UNL     1      -5.457  -3.540  29.932  1.00  0.00    -0.075 N 
HETATM   28  C12 UNL     1      -4.275  -2.717  30.027  1.00  0.00     0.235 C 
ATOM     29  H22 UNL     1      -6.279  -3.053  30.288  1.00  0.00     0.277 HD
ATOM     30  H21 UNL     1      -5.428  -4.311  30.599  1.00  0.00     0.277 HD
HETATM   31  C13 UNL     1      -3.938  -1.995  28.759  1.00  0.00     0.060 C 
ENDBRANCH  23  24
ENDBRANCH  21  23
ENDBRANCH   1  17
TORSDOF 5
ENDMDL
