MODEL 7
REMARK VINA RESULT: -8.906729974      3.658      5.726
REMARK  5 active torsions:
REMARK  status: ('A' for Active; 'I' for Inactive)
REMARK    1  A    between atoms: C2_3  and  C3_4 
REMARK    2  A    between atoms: C3_4  and  C4_6 
REMARK    3  A    between atoms: C8_10  and  O2_11 
REMARK    4  A    between atoms: O2_11  and  C9_12 
REMARK    5  A    between atoms: N4_24  and  C16_25 
ROOT
HETATM    1  C3  UNL     1      -2.973  -1.694  22.579  1.00  0.00     0.197 C 
HETATM    2  O1  UNL     1      -3.649  -2.731  22.261  1.00  0.00    -0.286 OA
ENDROOT
BRANCH   1   3
HETATM    3  C2  UNL     1      -3.163  -0.462  21.864  1.00  0.00     0.075 A 
HETATM    4  C1  UNL     1      -3.007  -0.391  20.469  1.00  0.00     0.154 A 
HETATM    5  N1  UNL     1      -2.698  -1.484  19.596  1.00  0.00    -0.080 NA
HETATM    6  N4  UNL     1      -3.202   0.884  20.090  1.00  0.00    -0.242 N 
HETATM    7  N3  UNL     1      -3.466   1.587  21.166  1.00  0.00    -0.302 N 
HETATM    8  C15 UNL     1      -3.449   0.801  22.254  1.00  0.00     0.126 A 
ATOM      9  H3  UNL     1      -3.658   2.589  21.175  1.00  0.00     0.186 HD
BRANCH   6  10
HETATM   10  C16 UNL     1      -3.122   1.319  18.716  1.00  0.00     0.058 A 
HETATM   11  C17 UNL     1      -4.297   1.516  18.006  1.00  0.00     0.034 A 
HETATM   12  C18 UNL     1      -4.182   1.926  16.694  1.00  0.00     0.044 A 
HETATM   13  C19 UNL     1      -2.967   2.137  16.092  1.00  0.00     0.116 A 
HETATM   14  F1  UNL     1      -2.833   2.538  14.807  1.00  0.00    -0.206 F 
HETATM   15  C20 UNL     1      -1.807   1.935  16.822  1.00  0.00     0.044 A 
HETATM   16  C21 UNL     1      -1.896   1.525  18.135  1.00  0.00     0.034 A 
ENDBRANCH   6  10
ENDBRANCH   1   3
BRANCH   1  17
HETATM   17  C4  UNL     1      -2.037  -1.886  23.686  1.00  0.00     0.018 A 
HETATM   18  C5  UNL     1      -0.691  -1.635  23.621  1.00  0.00     0.015 A 
HETATM   19  C6  UNL     1       0.186  -1.850  24.661  1.00  0.00     0.004 A 
HETATM   20  C7  UNL     1      -0.323  -2.354  25.864  1.00  0.00     0.037 A 
HETATM   21  C8  UNL     1      -1.661  -2.621  25.983  1.00  0.00     0.070 A 
HETATM   22  C14 UNL     1      -2.512  -2.386  24.896  1.00  0.00     0.052 A 
BRANCH  21  23
HETATM   23  O2  UNL     1      -2.284  -3.113  27.100  1.00  0.00    -0.346 OA
BRANCH  23  24
HETATM   24  C9  UNL     1      -3.627  -2.913  27.385  1.00  0.00     0.132 C 
HETATM   25  C10 UNL     1      -4.302  -4.232  27.782  1.00  0.00     0.060 C 
HETATM   26  C11 UNL     1      -5.637  -3.850  28.405  1.00  0.00     0.235 C 
HETATM   27  N2  UNL     1      -5.442  -3.261  29.719  1.00  0.00    -0.075 N 
HETATM   28  C12 UNL     1      -4.239  -2.466  29.774  1.00  0.00     0.235 C 
ATOM     29  H22 UNL     1      -6.257  -2.723  30.010  1.00  0.00     0.277 HD
ATOM     30  H21 UNL     1      -5.451  -3.972  30.450  1.00  0.00     0.277 HD
HETATM   31  C13 UNL     1      -3.851  -1.866  28.458  1.00  0.00     0.060 C 
ENDBRANCH  23  24
ENDBRANCH  21  23
ENDBRANCH   1  17
TORSDOF 5
ENDMDL
