MODEL 5
REMARK VINA RESULT: -7.581806050      1.208      1.835
REMARK  8 active torsions:
REMARK  status: ('A' for Active; 'I' for Inactive)
REMARK       I    between atoms: C1_2  and  N1_3 
REMARK    1  A    between atoms: C1_2  and  C2_7 
REMARK    2  A    between atoms: N1_3  and  O2_5 
REMARK    3  A    between atoms: C2_7  and  O3_8 
REMARK    4  A    between atoms: C2_7  and  C3_10 
REMARK    5  A    between atoms: C3_10  and  O4_11 
REMARK    6  A    between atoms: C3_10  and  C4_13 
REMARK    7  A    between atoms: C4_13  and  O5_14 
REMARK    8  A    between atoms: O5_14  and  P1_15 
ROOT
HETATM    1  C2  UNL     1      26.609  -8.412  13.754  1.00  0.00     0.242 C 
ENDROOT
BRANCH   1   2
HETATM    2  C1  UNL     1      25.196  -8.060  14.002  1.00  0.00     0.272 C 
HETATM    3  O1  UNL     1      24.332  -8.972  14.012  1.00  0.00    -0.268 OA
HETATM    4  N1  UNL     1      24.784  -6.729  14.229  1.00  0.00    -0.235 N 
ATOM      5  H1  UNL     1      25.496  -5.998  14.219  1.00  0.00     0.197 HD
BRANCH   4   6
HETATM    6  O2  UNL     1      23.499  -6.364  14.459  1.00  0.00    -0.287 OA
ATOM      7  H2  UNL     1      22.769  -6.617  13.907  1.00  0.00     0.244 HD
ENDBRANCH   4   6
ENDBRANCH   1   2
BRANCH   1   8
HETATM    8  O3  UNL     1      26.765  -9.753  13.419  1.00  0.00    -0.383 OA
ATOM      9  H3  UNL     1      27.280  -9.869  12.629  1.00  0.00     0.210 HD
ENDBRANCH   1   8
BRANCH   1  10
HETATM   10  C3  UNL     1      27.484  -8.055  14.942  1.00  0.00     0.180 C 
BRANCH  10  11
HETATM   11  O4  UNL     1      28.814  -8.078  14.537  1.00  0.00    -0.390 OA
ATOM     12  H4  UNL     1      29.239  -8.831  14.931  1.00  0.00     0.210 HD
ENDBRANCH  10  11
BRANCH  10  13
HETATM   13  C4  UNL     1      27.220  -9.041  16.057  1.00  0.00     0.217 C 
BRANCH  13  14
HETATM   14  O5  UNL     1      28.359  -9.749  16.323  1.00  0.00    -0.280 OA
BRANCH  14  15
HETATM   15  P1  UNL     1      28.236 -11.389  16.247  1.00  0.00     0.422 P 
HETATM   16  O6  UNL     1      28.271 -12.323  17.562  1.00  0.00    -0.617 OA
HETATM   17  O7  UNL     1      28.324 -12.130  14.720  1.00  0.00    -0.617 OA
HETATM   18  O8  UNL     1      26.720 -11.322  16.078  1.00  0.00    -0.617 OA
ENDBRANCH  14  15
ENDBRANCH  13  14
ENDBRANCH  10  13
ENDBRANCH   1  10
TORSDOF 8
ENDMDL
