MODEL 12
REMARK VINA RESULT: -7.191759972      2.895      5.635
REMARK  8 active torsions:
REMARK  status: ('A' for Active; 'I' for Inactive)
REMARK       I    between atoms: C1_2  and  N1_3 
REMARK    1  A    between atoms: C1_2  and  C2_7 
REMARK    2  A    between atoms: N1_3  and  O2_5 
REMARK    3  A    between atoms: C2_7  and  O3_8 
REMARK    4  A    between atoms: C2_7  and  C3_10 
REMARK    5  A    between atoms: C3_10  and  O4_11 
REMARK    6  A    between atoms: C3_10  and  C4_13 
REMARK    7  A    between atoms: C4_13  and  O5_14 
REMARK    8  A    between atoms: O5_14  and  P1_15 
ROOT
HETATM    1  C2  UNL     1      27.343 -10.373  15.723  1.00  0.00     0.242 C 
ENDROOT
BRANCH   1   2
HETATM    2  C1  UNL     1      28.370 -11.429  15.613  1.00  0.00     0.272 C 
HETATM    3  O1  UNL     1      28.347 -12.202  14.622  1.00  0.00    -0.268 OA
HETATM    4  N1  UNL     1      29.378 -11.600  16.585  1.00  0.00    -0.235 N 
ATOM      5  H1  UNL     1      29.387 -10.965  17.384  1.00  0.00     0.197 HD
BRANCH   4   6
HETATM    6  O2  UNL     1      30.337 -12.555  16.521  1.00  0.00    -0.287 OA
ATOM      7  H2  UNL     1      30.197 -13.464  16.760  1.00  0.00     0.244 HD
ENDBRANCH   4   6
ENDBRANCH   1   2
BRANCH   1   8
HETATM    8  O3  UNL     1      26.058 -10.868  15.538  1.00  0.00    -0.383 OA
ATOM      9  H3  UNL     1      25.674 -10.575  14.720  1.00  0.00     0.210 HD
ENDBRANCH   1   8
BRANCH   1  10
HETATM   10  C3  UNL     1      27.619  -9.232  14.760  1.00  0.00     0.180 C 
BRANCH  10  11
HETATM   11  O4  UNL     1      28.995  -9.081  14.633  1.00  0.00    -0.390 OA
ATOM     12  H4  UNL     1      29.176  -8.599  13.834  1.00  0.00     0.210 HD
ENDBRANCH  10  11
BRANCH  10  13
HETATM   13  C4  UNL     1      26.963  -7.977  15.291  1.00  0.00     0.217 C 
BRANCH  13  14
HETATM   14  O5  UNL     1      26.094  -7.484  14.357  1.00  0.00    -0.280 OA
BRANCH  14  15
HETATM   15  P1  UNL     1      24.495  -7.541  14.744  1.00  0.00     0.422 P 
HETATM   16  O6  UNL     1      23.476  -6.339  14.399  1.00  0.00    -0.617 OA
HETATM   17  O7  UNL     1      23.959  -8.798  15.755  1.00  0.00    -0.617 OA
HETATM   18  O8  UNL     1      24.181  -8.432  13.545  1.00  0.00    -0.617 OA
ENDBRANCH  14  15
ENDBRANCH  13  14
ENDBRANCH  10  13
ENDBRANCH   1  10
TORSDOF 8
ENDMDL
