MODEL 3
REMARK VINA RESULT: -7.667273884      0.830      1.292
REMARK  8 active torsions:
REMARK  status: ('A' for Active; 'I' for Inactive)
REMARK       I    between atoms: C1_2  and  N1_3 
REMARK    1  A    between atoms: C1_2  and  C2_7 
REMARK    2  A    between atoms: N1_3  and  O2_5 
REMARK    3  A    between atoms: C2_7  and  O3_8 
REMARK    4  A    between atoms: C2_7  and  C3_10 
REMARK    5  A    between atoms: C3_10  and  O4_11 
REMARK    6  A    between atoms: C3_10  and  C4_13 
REMARK    7  A    between atoms: C4_13  and  O5_14 
REMARK    8  A    between atoms: O5_14  and  P1_15 
ROOT
HETATM    1  C2  UNL     1      26.237  -8.574  13.868  1.00  0.00     0.242 C 
ENDROOT
BRANCH   1   2
HETATM    2  C1  UNL     1      24.843  -8.104  14.004  1.00  0.00     0.272 C 
HETATM    3  O1  UNL     1      23.914  -8.950  14.033  1.00  0.00    -0.268 OA
HETATM    4  N1  UNL     1      24.520  -6.734  14.103  1.00  0.00    -0.235 N 
ATOM      5  H1  UNL     1      25.284  -6.058  14.079  1.00  0.00     0.197 HD
BRANCH   4   6
HETATM    6  O2  UNL     1      23.256  -6.262  14.228  1.00  0.00    -0.287 OA
ATOM      7  H2  UNL     1      22.900  -5.908  15.035  1.00  0.00     0.244 HD
ENDBRANCH   4   6
ENDBRANCH   1   2
BRANCH   1   8
HETATM    8  O3  UNL     1      26.628  -8.683  12.538  1.00  0.00    -0.383 OA
ATOM      9  H3  UNL     1      26.232  -9.432  12.107  1.00  0.00     0.210 HD
ENDBRANCH   1   8
BRANCH   1  10
HETATM   10  C3  UNL     1      26.450  -9.890  14.595  1.00  0.00     0.180 C 
BRANCH  10  11
HETATM   11  O4  UNL     1      26.015  -9.747  15.908  1.00  0.00    -0.390 OA
ATOM     12  H4  UNL     1      26.327 -10.488  16.414  1.00  0.00     0.210 HD
ENDBRANCH  10  11
BRANCH  10  13
HETATM   13  C4  UNL     1      27.917 -10.253  14.527  1.00  0.00     0.217 C 
BRANCH  13  14
HETATM   14  O5  UNL     1      28.068 -11.593  14.753  1.00  0.00    -0.280 OA
BRANCH  14  15
HETATM   15  P1  UNL     1      28.769 -12.019  16.181  1.00  0.00     0.422 P 
HETATM   16  O6  UNL     1      27.921 -12.612  17.419  1.00  0.00    -0.617 OA
HETATM   17  O7  UNL     1      30.393 -11.590  16.438  1.00  0.00    -0.617 OA
HETATM   18  O8  UNL     1      29.256 -13.348  15.607  1.00  0.00    -0.617 OA
ENDBRANCH  14  15
ENDBRANCH  13  14
ENDBRANCH  10  13
ENDBRANCH   1  10
TORSDOF 8
ENDMDL
