MODEL 1
REMARK VINA RESULT: -7.740398339      0.000      0.000
REMARK  8 active torsions:
REMARK  status: ('A' for Active; 'I' for Inactive)
REMARK       I    between atoms: C1_2  and  N1_3 
REMARK    1  A    between atoms: C1_2  and  C2_7 
REMARK    2  A    between atoms: N1_3  and  O2_5 
REMARK    3  A    between atoms: C2_7  and  O3_8 
REMARK    4  A    between atoms: C2_7  and  C3_10 
REMARK    5  A    between atoms: C3_10  and  O4_11 
REMARK    6  A    between atoms: C3_10  and  C4_13 
REMARK    7  A    between atoms: C4_13  and  O5_14 
REMARK    8  A    between atoms: O5_14  and  P1_15 
ROOT
HETATM    1  C2  UNL     1      26.291  -8.365  13.852  1.00  0.00     0.242 C 
ENDROOT
BRANCH   1   2
HETATM    2  C1  UNL     1      24.869  -7.987  13.986  1.00  0.00     0.272 C 
HETATM    3  O1  UNL     1      23.988  -8.874  13.864  1.00  0.00    -0.268 OA
HETATM    4  N1  UNL     1      24.468  -6.660  14.247  1.00  0.00    -0.235 N 
ATOM      5  H1  UNL     1      25.194  -5.950  14.345  1.00  0.00     0.197 HD
BRANCH   4   6
HETATM    6  O2  UNL     1      23.175  -6.272  14.376  1.00  0.00    -0.287 OA
ATOM      7  H2  UNL     1      22.906  -5.381  14.569  1.00  0.00     0.244 HD
ENDBRANCH   4   6
ENDBRANCH   1   2
BRANCH   1   8
HETATM    8  O3  UNL     1      26.578  -8.900  12.601  1.00  0.00    -0.383 OA
ATOM      9  H3  UNL     1      26.063  -9.676  12.416  1.00  0.00     0.210 HD
ENDBRANCH   1   8
BRANCH   1  10
HETATM   10  C3  UNL     1      26.713  -9.324  14.951  1.00  0.00     0.180 C 
BRANCH  10  11
HETATM   11  O4  UNL     1      25.828  -9.197  16.016  1.00  0.00    -0.390 OA
ATOM     12  H4  UNL     1      26.031  -9.864  16.661  1.00  0.00     0.210 HD
ENDBRANCH  10  11
BRANCH  10  13
HETATM   13  C4  UNL     1      28.133  -9.003  15.360  1.00  0.00     0.217 C 
BRANCH  13  14
HETATM   14  O5  UNL     1      28.952 -10.048  15.033  1.00  0.00    -0.280 OA
BRANCH  14  15
HETATM   15  P1  UNL     1      28.717 -11.450  15.866  1.00  0.00     0.422 P 
HETATM   16  O6  UNL     1      28.666 -12.890  15.142  1.00  0.00    -0.617 OA
HETATM   17  O7  UNL     1      28.271 -11.345  17.502  1.00  0.00    -0.617 OA
HETATM   18  O8  UNL     1      30.177 -11.492  16.313  1.00  0.00    -0.617 OA
ENDBRANCH  14  15
ENDBRANCH  13  14
ENDBRANCH  10  13
ENDBRANCH   1  10
TORSDOF 8
ENDMDL
