MODEL 14
REMARK VINA RESULT: -7.143234926      2.902      5.504
REMARK  8 active torsions:
REMARK  status: ('A' for Active; 'I' for Inactive)
REMARK       I    between atoms: C1_2  and  N1_3 
REMARK    1  A    between atoms: C1_2  and  C2_7 
REMARK    2  A    between atoms: N1_3  and  O2_5 
REMARK    3  A    between atoms: C2_7  and  O3_8 
REMARK    4  A    between atoms: C2_7  and  C3_10 
REMARK    5  A    between atoms: C3_10  and  O4_11 
REMARK    6  A    between atoms: C3_10  and  C4_13 
REMARK    7  A    between atoms: C4_13  and  O5_14 
REMARK    8  A    between atoms: O5_14  and  P1_15 
ROOT
HETATM    1  C2  UNL     1      27.347 -10.272  15.806  1.00  0.00     0.242 C 
ENDROOT
BRANCH   1   2
HETATM    2  C1  UNL     1      28.352 -11.342  15.636  1.00  0.00     0.272 C 
HETATM    3  O1  UNL     1      28.289 -12.083  14.623  1.00  0.00    -0.268 OA
HETATM    4  N1  UNL     1      29.381 -11.561  16.576  1.00  0.00    -0.235 N 
ATOM      5  H1  UNL     1      29.421 -10.952  17.394  1.00  0.00     0.197 HD
BRANCH   4   6
HETATM    6  O2  UNL     1      30.320 -12.531  16.458  1.00  0.00    -0.287 OA
ATOM      7  H2  UNL     1      31.187 -12.479  16.843  1.00  0.00     0.244 HD
ENDBRANCH   4   6
ENDBRANCH   1   2
BRANCH   1   8
HETATM    8  O3  UNL     1      26.050 -10.733  15.611  1.00  0.00    -0.383 OA
ATOM      9  H3  UNL     1      25.574 -10.824  16.428  1.00  0.00     0.210 HD
ENDBRANCH   1   8
BRANCH   1  10
HETATM   10  C3  UNL     1      27.636  -9.094  14.893  1.00  0.00     0.180 C 
BRANCH  10  11
HETATM   11  O4  UNL     1      29.014  -8.976  14.743  1.00  0.00    -0.390 OA
ATOM     12  H4  UNL     1      29.231  -9.091  13.825  1.00  0.00     0.210 HD
ENDBRANCH  10  11
BRANCH  10  13
HETATM   13  C4  UNL     1      27.029  -7.848  15.498  1.00  0.00     0.217 C 
BRANCH  13  14
HETATM   14  O5  UNL     1      26.283  -7.197  14.555  1.00  0.00    -0.280 OA
BRANCH  14  15
HETATM   15  P1  UNL     1      24.698  -7.629  14.450  1.00  0.00     0.422 P 
HETATM   16  O6  UNL     1      24.231  -9.113  14.023  1.00  0.00    -0.617 OA
HETATM   17  O7  UNL     1      23.524  -6.405  14.556  1.00  0.00    -0.617 OA
HETATM   18  O8  UNL     1      24.589  -7.803  15.963  1.00  0.00    -0.617 OA
ENDBRANCH  14  15
ENDBRANCH  13  14
ENDBRANCH  10  13
ENDBRANCH   1  10
TORSDOF 8
ENDMDL
