MODEL 4
REMARK VINA RESULT: -7.663674444      0.908      1.613
REMARK  8 active torsions:
REMARK  status: ('A' for Active; 'I' for Inactive)
REMARK       I    between atoms: C1_2  and  N1_3 
REMARK    1  A    between atoms: C1_2  and  C2_7 
REMARK    2  A    between atoms: N1_3  and  O2_5 
REMARK    3  A    between atoms: C2_7  and  O3_8 
REMARK    4  A    between atoms: C2_7  and  C3_10 
REMARK    5  A    between atoms: C3_10  and  O4_11 
REMARK    6  A    between atoms: C3_10  and  C4_13 
REMARK    7  A    between atoms: C4_13  and  O5_14 
REMARK    8  A    between atoms: O5_14  and  P1_15 
ROOT
HETATM    1  C2  UNL     1      25.782  -8.421  15.185  1.00  0.00     0.242 C 
ENDROOT
BRANCH   1   2
HETATM    2  C1  UNL     1      24.528  -8.109  14.469  1.00  0.00     0.272 C 
HETATM    3  O1  UNL     1      23.732  -9.043  14.196  1.00  0.00    -0.268 OA
HETATM    4  N1  UNL     1      24.194  -6.795  14.080  1.00  0.00    -0.235 N 
ATOM      5  H1  UNL     1      24.849  -6.046  14.308  1.00  0.00     0.197 HD
BRANCH   4   6
HETATM    6  O2  UNL     1      23.056  -6.467  13.421  1.00  0.00    -0.287 OA
ATOM      7  H2  UNL     1      22.782  -5.573  13.248  1.00  0.00     0.244 HD
ENDBRANCH   4   6
ENDBRANCH   1   2
BRANCH   1   8
HETATM    8  O3  UNL     1      25.914  -7.687  16.358  1.00  0.00    -0.383 OA
ATOM      9  H3  UNL     1      26.555  -6.990  16.277  1.00  0.00     0.210 HD
ENDBRANCH   1   8
BRANCH   1  10
HETATM   10  C3  UNL     1      26.993  -8.219  14.292  1.00  0.00     0.180 C 
BRANCH  10  11
HETATM   11  O4  UNL     1      26.652  -8.581  12.993  1.00  0.00    -0.390 OA
ATOM     12  H4  UNL     1      27.412  -8.969  12.576  1.00  0.00     0.210 HD
ENDBRANCH  10  11
BRANCH  10  13
HETATM   13  C4  UNL     1      28.136  -9.054  14.824  1.00  0.00     0.217 C 
BRANCH  13  14
HETATM   14  O5  UNL     1      27.712  -9.777  15.904  1.00  0.00    -0.280 OA
BRANCH  14  15
HETATM   15  P1  UNL     1      28.225 -11.340  15.985  1.00  0.00     0.422 P 
HETATM   16  O6  UNL     1      28.316 -12.291  14.686  1.00  0.00    -0.617 OA
HETATM   17  O7  UNL     1      28.429 -12.039  17.521  1.00  0.00    -0.617 OA
HETATM   18  O8  UNL     1      29.691 -10.913  16.034  1.00  0.00    -0.617 OA
ENDBRANCH  14  15
ENDBRANCH  13  14
ENDBRANCH  10  13
ENDBRANCH   1  10
TORSDOF 8
ENDMDL
