MODEL 5
REMARK VINA RESULT: -7.130229215      0.857      1.595
REMARK  7 active torsions:
REMARK  status: ('A' for Active; 'I' for Inactive)
REMARK    1  A    between atoms: C1_2  and  C2_4 
REMARK    2  A    between atoms: C2_4  and  O3_5 
REMARK    3  A    between atoms: C2_4  and  C3_7 
REMARK    4  A    between atoms: C3_7  and  O4_8 
REMARK    5  A    between atoms: C3_7  and  C4_10 
REMARK    6  A    between atoms: C4_10  and  O5_11 
REMARK    7  A    between atoms: O5_11  and  P1_12 
ROOT
HETATM    1  C3  UNL     1      25.809  -8.249  15.701  1.00  0.00     0.181 C 
ENDROOT
BRANCH   1   2
HETATM    2  C2  UNL     1      25.638  -7.978  14.238  1.00  0.00     0.249 C 
BRANCH   2   3
HETATM    3  C1  UNL     1      24.209  -7.641  13.953  1.00  0.00     0.205 C 
HETATM    4  O1  UNL     1      23.646  -8.221  12.971  1.00  0.00    -0.646 OA
HETATM    5  O2  UNL     1      23.508  -6.727  14.725  1.00  0.00    -0.646 OA
ENDBRANCH   2   3
BRANCH   2   6
HETATM    6  O3  UNL     1      26.002  -9.124  13.482  1.00  0.00    -0.382 OA
ATOM      7  H3  UNL     1      26.699  -8.889  12.881  1.00  0.00     0.210 HD
ENDBRANCH   2   6
ENDBRANCH   1   2
BRANCH   1   8
HETATM    8  O4  UNL     1      25.738  -7.085  16.472  1.00  0.00    -0.390 OA
ATOM      9  H4  UNL     1      26.570  -6.628  16.518  1.00  0.00     0.210 HD
ENDBRANCH   1   8
BRANCH   1  10
HETATM   10  C4  UNL     1      27.053  -9.023  16.051  1.00  0.00     0.217 C 
BRANCH  10  11
HETATM   11  O5  UNL     1      26.746 -10.358  16.049  1.00  0.00    -0.280 OA
BRANCH  11  12
HETATM   12  P1  UNL     1      28.130 -11.218  15.746  1.00  0.00     0.422 P 
HETATM   13  O6  UNL     1      28.748 -10.072  14.961  1.00  0.00    -0.617 OA
HETATM   14  O7  UNL     1      28.226 -12.358  14.625  1.00  0.00    -0.617 OA
HETATM   15  O8  UNL     1      29.386 -11.058  16.890  1.00  0.00    -0.617 OA
ENDBRANCH  11  12
ENDBRANCH  10  11
ENDBRANCH   1  10
TORSDOF 7
ENDMDL
