MODEL 9
REMARK VINA RESULT: -7.023608651      2.030      5.480
REMARK  7 active torsions:
REMARK  status: ('A' for Active; 'I' for Inactive)
REMARK    1  A    between atoms: C1_2  and  C2_4 
REMARK    2  A    between atoms: C2_4  and  O3_5 
REMARK    3  A    between atoms: C2_4  and  C3_7 
REMARK    4  A    between atoms: C3_7  and  O4_8 
REMARK    5  A    between atoms: C3_7  and  C4_10 
REMARK    6  A    between atoms: C4_10  and  O5_11 
REMARK    7  A    between atoms: O5_11  and  P1_12 
ROOT
HETATM    1  C3  UNL     1      26.769 -10.026  15.040  1.00  0.00     0.181 C 
ENDROOT
BRANCH   1   2
HETATM    2  C2  UNL     1      28.069 -10.699  14.723  1.00  0.00     0.249 C 
BRANCH   2   3
HETATM    3  C1  UNL     1      28.437 -11.631  15.833  1.00  0.00     0.205 C 
HETATM    4  O1  UNL     1      28.974 -11.134  16.873  1.00  0.00    -0.646 OA
HETATM    5  O2  UNL     1      28.206 -12.995  15.744  1.00  0.00    -0.646 OA
ENDBRANCH   2   3
BRANCH   2   6
HETATM    6  O3  UNL     1      29.097  -9.730  14.572  1.00  0.00    -0.382 OA
ATOM      7  H3  UNL     1      28.766  -8.883  14.845  1.00  0.00     0.210 HD
ENDBRANCH   2   6
ENDBRANCH   1   2
BRANCH   1   8
HETATM    8  O4  UNL     1      25.931 -10.825  15.824  1.00  0.00    -0.390 OA
ATOM      9  H4  UNL     1      25.015 -10.592  15.730  1.00  0.00     0.210 HD
ENDBRANCH   1   8
BRANCH   1  10
HETATM   10  C4  UNL     1      26.019  -9.519  13.836  1.00  0.00     0.217 C 
BRANCH  10  11
HETATM   11  O5  UNL     1      25.738  -8.191  14.029  1.00  0.00    -0.280 OA
BRANCH  11  12
HETATM   12  P1  UNL     1      24.130  -8.041  14.403  1.00  0.00     0.422 P 
HETATM   13  O6  UNL     1      23.709  -8.239  12.955  1.00  0.00    -0.617 OA
HETATM   14  O7  UNL     1      23.421  -6.631  14.669  1.00  0.00    -0.617 OA
HETATM   15  O8  UNL     1      23.307  -9.483  14.797  1.00  0.00    -0.617 OA
ENDBRANCH  11  12
ENDBRANCH  10  11
ENDBRANCH   1  10
TORSDOF 7
ENDMDL
