MODEL 1
REMARK VINA RESULT: -7.174842175      0.000      0.000
REMARK  7 active torsions:
REMARK  status: ('A' for Active; 'I' for Inactive)
REMARK    1  A    between atoms: C1_2  and  C2_4 
REMARK    2  A    between atoms: C2_4  and  O3_5 
REMARK    3  A    between atoms: C2_4  and  C3_7 
REMARK    4  A    between atoms: C3_7  and  O4_8 
REMARK    5  A    between atoms: C3_7  and  C4_10 
REMARK    6  A    between atoms: C4_10  and  O5_11 
REMARK    7  A    between atoms: O5_11  and  P1_12 
ROOT
HETATM    1  C3  UNL     1      26.346  -8.522  14.106  1.00  0.00     0.181 C 
ENDROOT
BRANCH   1   2
HETATM    2  C2  UNL     1      24.977  -8.730  14.676  1.00  0.00     0.249 C 
BRANCH   2   3
HETATM    3  C1  UNL     1      24.006  -7.816  14.000  1.00  0.00     0.205 C 
HETATM    4  O1  UNL     1      23.606  -8.131  12.834  1.00  0.00    -0.646 OA
HETATM    5  O2  UNL     1      23.548  -6.659  14.611  1.00  0.00    -0.646 OA
ENDBRANCH   2   3
BRANCH   2   6
HETATM    6  O3  UNL     1      24.981  -8.452  16.070  1.00  0.00    -0.382 OA
ATOM      7  H3  UNL     1      24.607  -9.192  16.533  1.00  0.00     0.210 HD
ENDBRANCH   2   6
ENDBRANCH   1   2
BRANCH   1   8
HETATM    8  O4  UNL     1      26.412  -8.839  12.746  1.00  0.00    -0.390 OA
ATOM      9  H4  UNL     1      27.075  -8.338  12.287  1.00  0.00     0.210 HD
ENDBRANCH   1   8
BRANCH   1  10
HETATM   10  C4  UNL     1      27.447  -9.228  14.853  1.00  0.00     0.217 C 
BRANCH  10  11
HETATM   11  O5  UNL     1      26.929 -10.363  15.418  1.00  0.00    -0.280 OA
BRANCH  11  12
HETATM   12  P1  UNL     1      28.179 -11.387  15.789  1.00  0.00     0.422 P 
HETATM   13  O6  UNL     1      29.215 -10.431  15.220  1.00  0.00    -0.617 OA
HETATM   14  O7  UNL     1      28.538 -12.681  14.917  1.00  0.00    -0.617 OA
HETATM   15  O8  UNL     1      28.893 -11.184  17.325  1.00  0.00    -0.617 OA
ENDBRANCH  11  12
ENDBRANCH  10  11
ENDBRANCH   1  10
TORSDOF 7
ENDMDL
