MODEL 6
REMARK VINA RESULT: -7.114066588      0.891      1.658
REMARK  7 active torsions:
REMARK  status: ('A' for Active; 'I' for Inactive)
REMARK    1  A    between atoms: C1_2  and  C2_4 
REMARK    2  A    between atoms: C2_4  and  O3_5 
REMARK    3  A    between atoms: C2_4  and  C3_7 
REMARK    4  A    between atoms: C3_7  and  O4_8 
REMARK    5  A    between atoms: C3_7  and  C4_10 
REMARK    6  A    between atoms: C4_10  and  O5_11 
REMARK    7  A    between atoms: O5_11  and  P1_12 
ROOT
HETATM    1  C3  UNL     1      25.959  -9.316  15.067  1.00  0.00     0.181 C 
ENDROOT
BRANCH   1   2
HETATM    2  C2  UNL     1      25.932  -8.268  13.998  1.00  0.00     0.249 C 
BRANCH   2   3
HETATM    3  C1  UNL     1      24.546  -7.725  13.860  1.00  0.00     0.205 C 
HETATM    4  O1  UNL     1      23.755  -8.312  13.056  1.00  0.00    -0.646 OA
HETATM    5  O2  UNL     1      24.123  -6.617  14.578  1.00  0.00    -0.646 OA
ENDBRANCH   2   3
BRANCH   2   6
HETATM    6  O3  UNL     1      26.336  -8.826  12.755  1.00  0.00    -0.382 OA
ATOM      7  H3  UNL     1      26.567  -8.122  12.161  1.00  0.00     0.210 HD
ENDBRANCH   2   6
ENDBRANCH   1   2
BRANCH   1   8
HETATM    8  O4  UNL     1      24.728  -9.447  15.717  1.00  0.00    -0.390 OA
ATOM      9  H4  UNL     1      24.822  -9.733  16.618  1.00  0.00     0.210 HD
ENDBRANCH   1   8
BRANCH   1  10
HETATM   10  C4  UNL     1      27.061  -9.146  16.080  1.00  0.00     0.217 C 
BRANCH  10  11
HETATM   11  O5  UNL     1      28.222  -9.637  15.542  1.00  0.00    -0.280 OA
BRANCH  11  12
HETATM   12  P1  UNL     1      28.319 -11.256  15.882  1.00  0.00     0.422 P 
HETATM   13  O6  UNL     1      29.822 -11.186  16.103  1.00  0.00    -0.617 OA
HETATM   14  O7  UNL     1      28.293 -12.391  14.754  1.00  0.00    -0.617 OA
HETATM   15  O8  UNL     1      28.139 -11.697  17.521  1.00  0.00    -0.617 OA
ENDBRANCH  11  12
ENDBRANCH  10  11
ENDBRANCH   1  10
TORSDOF 7
ENDMDL
