MODEL 4
REMARK VINA RESULT: -7.135808432      1.179      2.255
REMARK  7 active torsions:
REMARK  status: ('A' for Active; 'I' for Inactive)
REMARK    1  A    between atoms: C1_2  and  C2_4 
REMARK    2  A    between atoms: C2_4  and  O3_5 
REMARK    3  A    between atoms: C2_4  and  C3_7 
REMARK    4  A    between atoms: C3_7  and  O4_8 
REMARK    5  A    between atoms: C3_7  and  C4_10 
REMARK    6  A    between atoms: C4_10  and  O5_11 
REMARK    7  A    between atoms: O5_11  and  P1_12 
ROOT
HETATM    1  C3  UNL     1      24.792  -9.421  14.464  1.00  0.00     0.181 C 
ENDROOT
BRANCH   1   2
HETATM    2  C2  UNL     1      24.749  -8.145  13.682  1.00  0.00     0.249 C 
BRANCH   2   3
HETATM    3  C1  UNL     1      24.521  -6.994  14.610  1.00  0.00     0.205 C 
HETATM    4  O1  UNL     1      23.339  -6.535  14.708  1.00  0.00    -0.646 OA
HETATM    5  O2  UNL     1      25.555  -6.435  15.344  1.00  0.00    -0.646 OA
ENDBRANCH   2   3
BRANCH   2   6
HETATM    6  O3  UNL     1      23.693  -8.189  12.732  1.00  0.00    -0.382 OA
ATOM      7  H3  UNL     1      22.866  -8.263  13.193  1.00  0.00     0.210 HD
ENDBRANCH   2   6
ENDBRANCH   1   2
BRANCH   1   8
HETATM    8  O4  UNL     1      24.248  -9.283  15.744  1.00  0.00    -0.390 OA
ATOM      9  H4  UNL     1      24.431 -10.031  16.300  1.00  0.00     0.210 HD
ENDBRANCH   1   8
BRANCH   1  10
HETATM   10  C4  UNL     1      26.157 -10.054  14.550  1.00  0.00     0.217 C 
BRANCH  10  11
HETATM   11  O5  UNL     1      26.218 -10.795  15.701  1.00  0.00    -0.280 OA
BRANCH  11  12
HETATM   12  P1  UNL     1      27.812 -11.030  16.094  1.00  0.00     0.422 P 
HETATM   13  O6  UNL     1      27.896 -12.301  15.263  1.00  0.00    -0.617 OA
HETATM   14  O7  UNL     1      28.288 -11.627  17.500  1.00  0.00    -0.617 OA
HETATM   15  O8  UNL     1      28.960 -10.320  15.051  1.00  0.00    -0.617 OA
ENDBRANCH  11  12
ENDBRANCH  10  11
ENDBRANCH   1  10
TORSDOF 7
ENDMDL
