MODEL 2
REMARK VINA RESULT: -7.150874355      1.127      1.885
REMARK  7 active torsions:
REMARK  status: ('A' for Active; 'I' for Inactive)
REMARK    1  A    between atoms: C1_2  and  C2_4 
REMARK    2  A    between atoms: C2_4  and  O3_5 
REMARK    3  A    between atoms: C2_4  and  C3_7 
REMARK    4  A    between atoms: C3_7  and  O4_8 
REMARK    5  A    between atoms: C3_7  and  C4_10 
REMARK    6  A    between atoms: C4_10  and  O5_11 
REMARK    7  A    between atoms: O5_11  and  P1_12 
ROOT
HETATM    1  C3  UNL     1      24.850  -9.417  14.426  1.00  0.00     0.181 C 
ENDROOT
BRANCH   1   2
HETATM    2  C2  UNL     1      24.764  -8.134  13.659  1.00  0.00     0.249 C 
BRANCH   2   3
HETATM    3  C1  UNL     1      24.519  -7.000  14.603  1.00  0.00     0.205 C 
HETATM    4  O1  UNL     1      23.325  -6.583  14.734  1.00  0.00    -0.646 OA
HETATM    5  O2  UNL     1      25.552  -6.412  15.317  1.00  0.00    -0.646 OA
ENDBRANCH   2   3
BRANCH   2   6
HETATM    6  O3  UNL     1      23.697  -8.194  12.722  1.00  0.00    -0.382 OA
ATOM      7  H3  UNL     1      23.813  -8.959  12.171  1.00  0.00     0.210 HD
ENDBRANCH   2   6
ENDBRANCH   1   2
BRANCH   1   8
HETATM    8  O4  UNL     1      24.465  -9.269  15.761  1.00  0.00    -0.390 OA
ATOM      9  H4  UNL     1      25.143  -9.545  16.367  1.00  0.00     0.210 HD
ENDBRANCH   1   8
BRANCH   1  10
HETATM   10  C4  UNL     1      26.189 -10.102  14.348  1.00  0.00     0.217 C 
BRANCH  10  11
HETATM   11  O5  UNL     1      26.781 -10.036  15.582  1.00  0.00    -0.280 OA
BRANCH  11  12
HETATM   12  P1  UNL     1      28.065 -11.084  15.609  1.00  0.00     0.422 P 
HETATM   13  O6  UNL     1      28.989 -10.070  14.952  1.00  0.00    -0.617 OA
HETATM   14  O7  UNL     1      28.239 -12.283  14.562  1.00  0.00    -0.617 OA
HETATM   15  O8  UNL     1      29.057 -11.030  16.996  1.00  0.00    -0.617 OA
ENDBRANCH  11  12
ENDBRANCH  10  11
ENDBRANCH   1  10
TORSDOF 7
ENDMDL
