MODEL 3
REMARK VINA RESULT: -7.150208155      2.034      5.201
REMARK  7 active torsions:
REMARK  status: ('A' for Active; 'I' for Inactive)
REMARK    1  A    between atoms: C1_2  and  C2_4 
REMARK    2  A    between atoms: C2_4  and  O3_5 
REMARK    3  A    between atoms: C2_4  and  C3_7 
REMARK    4  A    between atoms: C3_7  and  O4_8 
REMARK    5  A    between atoms: C3_7  and  C4_10 
REMARK    6  A    between atoms: C4_10  and  O5_11 
REMARK    7  A    between atoms: O5_11  and  P1_12 
ROOT
HETATM    1  C3  UNL     1      27.448  -9.269  14.772  1.00  0.00     0.181 C 
ENDROOT
BRANCH   1   2
HETATM    2  C2  UNL     1      27.333 -10.317  15.835  1.00  0.00     0.249 C 
BRANCH   2   3
HETATM    3  C1  UNL     1      28.421 -11.329  15.663  1.00  0.00     0.205 C 
HETATM    4  O1  UNL     1      28.223 -12.280  14.841  1.00  0.00    -0.646 OA
HETATM    5  O2  UNL     1      29.610 -11.248  16.370  1.00  0.00    -0.646 OA
ENDBRANCH   2   3
BRANCH   2   6
HETATM    6  O3  UNL     1      26.075 -10.970  15.745  1.00  0.00    -0.382 OA
ATOM      7  H3  UNL     1      25.399 -10.383  16.064  1.00  0.00     0.210 HD
ENDBRANCH   2   6
ENDBRANCH   1   2
BRANCH   1   8
HETATM    8  O4  UNL     1      28.763  -8.831  14.593  1.00  0.00    -0.390 OA
ATOM      9  H4  UNL     1      29.399  -9.524  14.728  1.00  0.00     0.210 HD
ENDBRANCH   1   8
BRANCH   1  10
HETATM   10  C4  UNL     1      26.532  -8.088  14.958  1.00  0.00     0.217 C 
BRANCH  10  11
HETATM   11  O5  UNL     1      25.731  -7.982  13.851  1.00  0.00    -0.280 OA
BRANCH  11  12
HETATM   12  P1  UNL     1      24.148  -7.974  14.344  1.00  0.00     0.422 P 
HETATM   13  O6  UNL     1      23.639  -8.187  12.927  1.00  0.00    -0.617 OA
HETATM   14  O7  UNL     1      23.346  -6.632  14.690  1.00  0.00    -0.617 OA
HETATM   15  O8  UNL     1      23.480  -9.485  14.769  1.00  0.00    -0.617 OA
ENDBRANCH  11  12
ENDBRANCH  10  11
ENDBRANCH   1  10
TORSDOF 7
ENDMDL
