MODEL 3
REMARK VINA RESULT: -9.977790355      3.463      4.786
REMARK  14 active torsions:
REMARK  status: ('A' for Active; 'I' for Inactive)
REMARK    1  A    between atoms: N5_13  and  C6_14 
REMARK    2  A    between atoms: C7_16  and  C8_17 
REMARK    3  A    between atoms: C8_17  and  O2_18 
REMARK    4  A    between atoms: O2_18  and  P1_19 
REMARK    5  A    between atoms: P1_19  and  O5_22 
REMARK    6  A    between atoms: O5_22  and  P2_23 
REMARK    7  A    between atoms: P2_23  and  O8_26 
REMARK    8  A    between atoms: O8_26  and  C9_27 
REMARK    9  A    between atoms: C9_27  and  C10_28 
REMARK   10  A    between atoms: C11_30  and  O10_31 
REMARK   11  A    between atoms: C12_33  and  O11_34 
REMARK   12  A    between atoms: C13_36  and  O12_37 
REMARK   13  A    between atoms: C14_39  and  O13_40 
REMARK   14  A    between atoms: C15_42  and  O14_43 
ROOT
HETATM    1  C6  UNL     1     -19.480  23.984   3.361  1.00  0.00     0.262 C 
HETATM    2  O1  UNL     1     -18.721  24.549   4.432  1.00  0.00    -0.353 OA
HETATM    3  C7  UNL     1     -17.471  24.359   3.900  1.00  0.00     0.180 C 
HETATM    4  C14 UNL     1     -17.648  25.047   2.475  1.00  0.00     0.182 C 
HETATM    5  C15 UNL     1     -19.144  25.104   2.366  1.00  0.00     0.198 C 
ENDROOT
BRANCH   3   6
HETATM    6  C8  UNL     1     -16.303  25.065   4.497  1.00  0.00     0.216 C 
BRANCH   6   7
HETATM    7  O2  UNL     1     -16.665  25.419   5.809  1.00  0.00    -0.287 OA
BRANCH   7   8
HETATM    8  P1  UNL     1     -15.814  24.400   6.812  1.00  0.00     0.417 P 
HETATM    9  O3  UNL     1     -16.294  24.295   8.399  1.00  0.00    -0.624 OA
HETATM   10  O4  UNL     1     -14.720  25.327   7.110  1.00  0.00    -0.624 OA
BRANCH   8  11
HETATM   11  O5  UNL     1     -14.911  23.245   6.108  1.00  0.00    -0.180 OA
BRANCH  11  12
HETATM   12  P2  UNL     1     -14.674  21.869   6.689  1.00  0.00     0.417 P 
HETATM   13  O6  UNL     1     -14.309  21.299   5.211  1.00  0.00    -0.624 OA
HETATM   14  O7  UNL     1     -16.320  21.768   7.148  1.00  0.00    -0.624 OA
BRANCH  12  15
HETATM   15  O8  UNL     1     -13.696  22.398   7.839  1.00  0.00    -0.287 OA
BRANCH  15  16
HETATM   16  C9  UNL     1     -13.534  21.683   8.984  1.00  0.00     0.216 C 
BRANCH  16  17
HETATM   17  C10 UNL     1     -12.119  21.163   9.087  1.00  0.00     0.180 C 
HETATM   18  O9  UNL     1     -11.893  20.620  10.311  1.00  0.00    -0.349 OA
HETATM   19  C11 UNL     1     -12.417  19.336  10.248  1.00  0.00     0.288 C 
HETATM   20  C12 UNL     1     -12.232  18.856   8.823  1.00  0.00     0.204 C 
HETATM   21  C13 UNL     1     -11.778  20.104   8.097  1.00  0.00     0.182 C 
BRANCH  19  22
HETATM   22  O10 UNL     1     -11.655  18.548  11.110  1.00  0.00    -0.369 OA
ATOM     23  H10 UNL     1     -11.809  17.644  10.863  1.00  0.00     0.212 HD
ENDBRANCH  19  22
BRANCH  20  24
HETATM   24  O11 UNL     1     -11.289  17.870   8.746  1.00  0.00    -0.388 OA
ATOM     25  H11 UNL     1     -11.109  17.494   9.599  1.00  0.00     0.210 HD
ENDBRANCH  20  24
BRANCH  21  26
HETATM   26  O12 UNL     1     -10.375  20.156   7.949  1.00  0.00    -0.390 OA
ATOM     27  H12 UNL     1     -10.019  20.064   8.824  1.00  0.00     0.210 HD
ENDBRANCH  21  26
ENDBRANCH  16  17
ENDBRANCH  15  16
ENDBRANCH  12  15
ENDBRANCH  11  12
ENDBRANCH   8  11
ENDBRANCH   7   8
ENDBRANCH   6   7
ENDBRANCH   3   6
BRANCH   4  28
HETATM   28  O13 UNL     1     -17.141  24.289   1.477  1.00  0.00    -0.390 OA
ATOM     29  H13 UNL     1     -16.212  24.440   1.349  1.00  0.00     0.210 HD
ENDBRANCH   4  28
BRANCH   1  30
HETATM   30  N5  UNL     1     -20.865  23.956   3.599  1.00  0.00    -0.297 N 
HETATM   31  C3  UNL     1     -21.721  25.000   3.777  1.00  0.00     0.142 A 
HETATM   32  N3  UNL     1     -21.555  26.288   3.927  1.00  0.00    -0.336 N 
HETATM   33  C4  UNL     1     -22.969  24.440   3.950  1.00  0.00     0.119 A 
HETATM   34  C2  UNL     1     -22.632  27.085   4.236  1.00  0.00     0.183 A 
ATOM     35  H3  UNL     1     -20.629  26.701   3.813  1.00  0.00     0.168 HD
HETATM   36  N2  UNL     1     -23.853  26.512   4.420  1.00  0.00    -0.339 N 
HETATM   37  C1  UNL     1     -24.083  25.199   4.293  1.00  0.00     0.148 A 
ATOM     38  H2  UNL     1     -24.636  27.116   4.668  1.00  0.00     0.167 HD
HETATM   39  N1  UNL     1     -25.303  24.538   4.589  1.00  0.00    -0.080 NA
HETATM   40  N4  UNL     1     -22.842  23.115   3.864  1.00  0.00    -0.346 N 
HETATM   41  C5  UNL     1     -21.575  22.798   3.672  1.00  0.00     0.188 A 
ATOM     42  H4  UNL     1     -23.608  22.446   3.936  1.00  0.00     0.167 HD
ENDBRANCH   1  30
BRANCH   5  43
HETATM   43  O14 UNL     1     -19.605  24.894   1.103  1.00  0.00    -0.388 OA
ATOM     44  H14 UNL     1     -18.957  25.021   0.421  1.00  0.00     0.210 HD
ENDBRANCH   5  43
TORSDOF 14
ENDMDL
