MODEL 4
REMARK VINA RESULT: -9.927975119      3.630      5.573
REMARK  14 active torsions:
REMARK  status: ('A' for Active; 'I' for Inactive)
REMARK    1  A    between atoms: N5_13  and  C6_14 
REMARK    2  A    between atoms: C7_16  and  C8_17 
REMARK    3  A    between atoms: C8_17  and  O2_18 
REMARK    4  A    between atoms: O2_18  and  P1_19 
REMARK    5  A    between atoms: P1_19  and  O5_22 
REMARK    6  A    between atoms: O5_22  and  P2_23 
REMARK    7  A    between atoms: P2_23  and  O8_26 
REMARK    8  A    between atoms: O8_26  and  C9_27 
REMARK    9  A    between atoms: C9_27  and  C10_28 
REMARK   10  A    between atoms: C11_30  and  O10_31 
REMARK   11  A    between atoms: C12_33  and  O11_34 
REMARK   12  A    between atoms: C13_36  and  O12_37 
REMARK   13  A    between atoms: C14_39  and  O13_40 
REMARK   14  A    between atoms: C15_42  and  O14_43 
ROOT
HETATM    1  C6  UNL     1     -20.157  24.715   2.814  1.00  0.00     0.262 C 
HETATM    2  O1  UNL     1     -19.312  24.293   3.887  1.00  0.00    -0.353 OA
HETATM    3  C7  UNL     1     -18.456  23.508   3.156  1.00  0.00     0.180 C 
HETATM    4  C14 UNL     1     -18.010  24.532   2.022  1.00  0.00     0.182 C 
HETATM    5  C15 UNL     1     -19.081  25.578   2.140  1.00  0.00     0.198 C 
ENDROOT
BRANCH   3   6
HETATM    6  C8  UNL     1     -17.171  23.060   3.762  1.00  0.00     0.216 C 
BRANCH   6   7
HETATM    7  O2  UNL     1     -17.354  23.060   5.157  1.00  0.00    -0.287 OA
BRANCH   7   8
HETATM    8  P1  UNL     1     -16.242  24.138   5.767  1.00  0.00     0.417 P 
HETATM    9  O3  UNL     1     -16.724  25.714   5.977  1.00  0.00    -0.624 OA
HETATM   10  O4  UNL     1     -15.564  24.420   4.498  1.00  0.00    -0.624 OA
BRANCH   8  11
HETATM   11  O5  UNL     1     -14.956  23.520   6.547  1.00  0.00    -0.180 OA
BRANCH  11  12
HETATM   12  P2  UNL     1     -14.622  23.789   7.997  1.00  0.00     0.417 P 
HETATM   13  O6  UNL     1     -16.192  23.652   8.393  1.00  0.00    -0.624 OA
HETATM   14  O7  UNL     1     -14.085  25.363   7.590  1.00  0.00    -0.624 OA
BRANCH  12  15
HETATM   15  O8  UNL     1     -13.463  22.688   8.053  1.00  0.00    -0.287 OA
BRANCH  15  16
HETATM   16  C9  UNL     1     -13.387  21.825   9.101  1.00  0.00     0.216 C 
BRANCH  16  17
HETATM   17  C10 UNL     1     -12.009  21.211   9.182  1.00  0.00     0.180 C 
HETATM   18  O9  UNL     1     -11.823  20.599  10.379  1.00  0.00    -0.349 OA
HETATM   19  C11 UNL     1     -12.428  19.354  10.254  1.00  0.00     0.288 C 
HETATM   20  C12 UNL     1     -12.267  18.932   8.809  1.00  0.00     0.204 C 
HETATM   21  C13 UNL     1     -11.730  20.180   8.144  1.00  0.00     0.182 C 
BRANCH  19  22
HETATM   22  O10 UNL     1     -11.722  18.480  11.080  1.00  0.00    -0.369 OA
ATOM     23  H10 UNL     1     -11.756  18.844  11.957  1.00  0.00     0.212 HD
ENDBRANCH  19  22
BRANCH  20  24
HETATM   24  O11 UNL     1     -11.388  17.892   8.687  1.00  0.00    -0.388 OA
ATOM     25  H11 UNL     1     -10.837  17.990   7.919  1.00  0.00     0.210 HD
ENDBRANCH  20  24
BRANCH  21  26
HETATM   26  O12 UNL     1     -10.327  20.150   8.001  1.00  0.00    -0.390 OA
ATOM     27  H12 UNL     1     -10.164  20.041   7.071  1.00  0.00     0.210 HD
ENDBRANCH  21  26
ENDBRANCH  16  17
ENDBRANCH  15  16
ENDBRANCH  12  15
ENDBRANCH  11  12
ENDBRANCH   8  11
ENDBRANCH   7   8
ENDBRANCH   6   7
ENDBRANCH   3   6
BRANCH   4  28
HETATM   28  O13 UNL     1     -18.043  23.974   0.790  1.00  0.00    -0.390 OA
ATOM     29  H13 UNL     1     -17.315  23.381   0.646  1.00  0.00     0.210 HD
ENDBRANCH   4  28
BRANCH   1  30
HETATM   30  N5  UNL     1     -21.231  25.525   3.222  1.00  0.00    -0.297 N 
HETATM   31  C3  UNL     1     -22.100  25.333   4.252  1.00  0.00     0.142 A 
HETATM   32  N3  UNL     1     -22.323  24.340   5.073  1.00  0.00    -0.336 N 
HETATM   33  C4  UNL     1     -22.947  26.422   4.240  1.00  0.00     0.119 A 
HETATM   34  C2  UNL     1     -23.391  24.393   5.937  1.00  0.00     0.183 A 
ATOM     35  H3  UNL     1     -21.706  23.528   5.073  1.00  0.00     0.168 HD
HETATM   36  N2  UNL     1     -24.225  25.468   5.899  1.00  0.00    -0.339 N 
HETATM   37  C1  UNL     1     -24.057  26.509   5.074  1.00  0.00     0.148 A 
ATOM     38  H2  UNL     1     -25.023  25.481   6.534  1.00  0.00     0.167 HD
HETATM   39  N1  UNL     1     -24.958  27.592   4.910  1.00  0.00    -0.080 NA
HETATM   40  N4  UNL     1     -22.573  27.222   3.242  1.00  0.00    -0.346 N 
HETATM   41  C5  UNL     1     -21.550  26.690   2.599  1.00  0.00     0.188 A 
ATOM     42  H4  UNL     1     -23.012  28.113   3.009  1.00  0.00     0.167 HD
ENDBRANCH   1  30
BRANCH   5  43
HETATM   43  O14 UNL     1     -19.452  26.111   0.945  1.00  0.00    -0.388 OA
ATOM     44  H14 UNL     1     -20.377  26.317   0.875  1.00  0.00     0.210 HD
ENDBRANCH   5  43
TORSDOF 14
ENDMDL
