MODEL 10
REMARK VINA RESULT: -9.474511041      4.923      9.505
REMARK  14 active torsions:
REMARK  status: ('A' for Active; 'I' for Inactive)
REMARK    1  A    between atoms: N5_13  and  C6_14 
REMARK    2  A    between atoms: C7_16  and  C8_17 
REMARK    3  A    between atoms: C8_17  and  O2_18 
REMARK    4  A    between atoms: O2_18  and  P1_19 
REMARK    5  A    between atoms: P1_19  and  O5_22 
REMARK    6  A    between atoms: O5_22  and  P2_23 
REMARK    7  A    between atoms: P2_23  and  O8_26 
REMARK    8  A    between atoms: O8_26  and  C9_27 
REMARK    9  A    between atoms: C9_27  and  C10_28 
REMARK   10  A    between atoms: C11_30  and  O10_31 
REMARK   11  A    between atoms: C12_33  and  O11_34 
REMARK   12  A    between atoms: C13_36  and  O12_37 
REMARK   13  A    between atoms: C14_39  and  O13_40 
REMARK   14  A    between atoms: C15_42  and  O14_43 
ROOT
HETATM    1  C6  UNL     1     -16.563  23.311   5.946  1.00  0.00     0.262 C 
HETATM    2  O1  UNL     1     -16.504  22.446   4.811  1.00  0.00    -0.353 OA
HETATM    3  C7  UNL     1     -17.621  22.907   4.161  1.00  0.00     0.180 C 
HETATM    4  C14 UNL     1     -17.309  24.468   4.108  1.00  0.00     0.182 C 
HETATM    5  C15 UNL     1     -16.235  24.583   5.151  1.00  0.00     0.198 C 
ENDROOT
BRANCH   3   6
HETATM    6  C8  UNL     1     -17.849  22.538   2.736  1.00  0.00     0.216 C 
BRANCH   6   7
HETATM    7  O2  UNL     1     -17.427  23.632   1.958  1.00  0.00    -0.287 OA
BRANCH   7   8
HETATM    8  P1  UNL     1     -18.269  23.530   0.527  1.00  0.00     0.417 P 
HETATM    9  O3  UNL     1     -18.272  22.072  -0.270  1.00  0.00    -0.624 OA
HETATM   10  O4  UNL     1     -17.222  24.097  -0.328  1.00  0.00    -0.624 OA
BRANCH   8  11
HETATM   11  O5  UNL     1     -19.395  24.668   0.243  1.00  0.00    -0.180 OA
BRANCH  11  12
HETATM   12  P2  UNL     1     -20.098  25.467   1.318  1.00  0.00     0.417 P 
HETATM   13  O6  UNL     1     -21.013  26.196   0.190  1.00  0.00    -0.624 OA
HETATM   14  O7  UNL     1     -18.626  26.249   1.712  1.00  0.00    -0.624 OA
BRANCH  12  15
HETATM   15  O8  UNL     1     -20.427  24.184   2.215  1.00  0.00    -0.287 OA
BRANCH  15  16
HETATM   16  C9  UNL     1     -21.680  23.994   2.707  1.00  0.00     0.216 C 
BRANCH  16  17
HETATM   17  C10 UNL     1     -21.741  24.385   4.165  1.00  0.00     0.180 C 
HETATM   18  O9  UNL     1     -21.585  25.727   4.311  1.00  0.00    -0.349 OA
HETATM   19  C11 UNL     1     -22.836  26.273   4.058  1.00  0.00     0.288 C 
HETATM   20  C12 UNL     1     -23.860  25.265   4.536  1.00  0.00     0.204 C 
HETATM   21  C13 UNL     1     -23.022  24.043   4.843  1.00  0.00     0.182 C 
BRANCH  19  22
HETATM   22  O10 UNL     1     -22.930  27.435   4.824  1.00  0.00    -0.369 OA
ATOM     23  H10 UNL     1     -22.721  27.191   5.718  1.00  0.00     0.212 HD
ENDBRANCH  19  22
BRANCH  20  24
HETATM   24  O11 UNL     1     -24.514  25.707   5.652  1.00  0.00    -0.388 OA
ATOM     25  H11 UNL     1     -25.410  25.954   5.455  1.00  0.00     0.210 HD
ENDBRANCH  20  24
BRANCH  21  26
HETATM   26  O12 UNL     1     -22.713  23.937   6.216  1.00  0.00    -0.390 OA
ATOM     27  H12 UNL     1     -23.443  23.475   6.610  1.00  0.00     0.210 HD
ENDBRANCH  21  26
ENDBRANCH  16  17
ENDBRANCH  15  16
ENDBRANCH  12  15
ENDBRANCH  11  12
ENDBRANCH   8  11
ENDBRANCH   7   8
ENDBRANCH   6   7
ENDBRANCH   3   6
BRANCH   4  28
HETATM   28  O13 UNL     1     -18.379  25.214   4.464  1.00  0.00    -0.390 OA
ATOM     29  H13 UNL     1     -18.125  26.037   4.865  1.00  0.00     0.210 HD
ENDBRANCH   4  28
BRANCH   1  30
HETATM   30  N5  UNL     1     -15.557  23.071   6.898  1.00  0.00    -0.297 N 
HETATM   31  C3  UNL     1     -14.504  22.211   6.826  1.00  0.00     0.142 A 
HETATM   32  N3  UNL     1     -14.159  21.273   5.982  1.00  0.00    -0.336 N 
HETATM   33  C4  UNL     1     -13.804  22.371   8.004  1.00  0.00     0.119 A 
HETATM   34  C2  UNL     1     -13.086  20.460   6.264  1.00  0.00     0.183 A 
ATOM     35  H3  UNL     1     -14.685  21.144   5.118  1.00  0.00     0.168 HD
HETATM   36  N2  UNL     1     -12.419  20.623   7.439  1.00  0.00    -0.339 N 
HETATM   37  C1  UNL     1     -12.731  21.555   8.347  1.00  0.00     0.148 A 
ATOM     38  H2  UNL     1     -11.638  19.998   7.639  1.00  0.00     0.167 HD
HETATM   39  N1  UNL     1     -12.148  21.689   9.633  1.00  0.00    -0.080 NA
HETATM   40  N4  UNL     1     -14.427  23.300   8.729  1.00  0.00    -0.346 N 
HETATM   41  C5  UNL     1     -15.501  23.723   8.089  1.00  0.00     0.188 A 
ATOM     42  H4  UNL     1     -14.119  23.635   9.642  1.00  0.00     0.167 HD
ENDBRANCH   1  30
BRANCH   5  43
HETATM   43  O14 UNL     1     -16.301  25.734   5.873  1.00  0.00    -0.388 OA
ATOM     44  H14 UNL     1     -15.818  26.462   5.500  1.00  0.00     0.210 HD
ENDBRANCH   5  43
TORSDOF 14
ENDMDL
