MODEL 2
REMARK VINA RESULT: -8.920646123      3.445      5.296
REMARK  8 active torsions:
REMARK  status: ('A' for Active; 'I' for Inactive)
REMARK    1  A    between atoms: N5_13  and  C6_14 
REMARK    2  A    between atoms: C7_16  and  C8_17 
REMARK    3  A    between atoms: C8_17  and  O2_18 
REMARK    4  A    between atoms: O2_18  and  P1_19 
REMARK    5  A    between atoms: P1_19  and  O5_22 
REMARK    6  A    between atoms: O5_22  and  P2_23 
REMARK    7  A    between atoms: C9_27  and  O9_28 
REMARK    8  A    between atoms: C10_30  and  O10_31 
ROOT
HETATM    1  C6  UNL     1      15.642  77.585  -5.305  1.00  0.00     0.262 C 
HETATM    2  O1  UNL     1      16.987  77.955  -5.298  1.00  0.00    -0.353 OA
HETATM    3  C7  UNL     1      17.401  77.453  -6.532  1.00  0.00     0.180 C 
HETATM    4  C9  UNL     1      16.347  77.859  -7.526  1.00  0.00     0.182 C 
HETATM    5  C10 UNL     1      15.169  78.198  -6.602  1.00  0.00     0.198 C 
ENDROOT
BRANCH   1   6
HETATM    6  N5  UNL     1      14.924  78.065  -4.159  1.00  0.00    -0.297 N 
HETATM    7  C3  UNL     1      15.097  79.298  -3.639  1.00  0.00     0.142 A 
HETATM    8  N3  UNL     1      15.906  80.322  -4.004  1.00  0.00    -0.336 N 
HETATM    9  C4  UNL     1      14.267  79.457  -2.550  1.00  0.00     0.119 A 
HETATM   10  C2  UNL     1      15.933  81.495  -3.344  1.00  0.00     0.183 A 
ATOM     11  H3  UNL     1      16.519  80.200  -4.811  1.00  0.00     0.168 HD
HETATM   12  N2  UNL     1      15.133  81.645  -2.294  1.00  0.00    -0.339 N 
HETATM   13  C1  UNL     1      14.303  80.656  -1.884  1.00  0.00     0.148 A 
ATOM     14  H2  UNL     1      15.143  82.528  -1.783  1.00  0.00     0.167 HD
HETATM   15  N1  UNL     1      13.477  80.860  -0.774  1.00  0.00    -0.080 NA
HETATM   16  N4  UNL     1      13.601  78.294  -2.438  1.00  0.00    -0.346 N 
HETATM   17  C5  UNL     1      14.006  77.462  -3.415  1.00  0.00     0.188 A 
ATOM     18  H4  UNL     1      12.901  78.078  -1.727  1.00  0.00     0.167 HD
ENDBRANCH   1   6
BRANCH   5  19
HETATM   19  O10 UNL     1      13.993  77.658  -7.068  1.00  0.00    -0.388 OA
ATOM     20  H10 UNL     1      14.121  76.948  -7.686  1.00  0.00     0.210 HD
ENDBRANCH   5  19
BRANCH   3  21
HETATM   21  C8  UNL     1      18.777  77.948  -6.912  1.00  0.00     0.216 C 
BRANCH  21  22
HETATM   22  O2  UNL     1      19.582  76.866  -7.087  1.00  0.00    -0.287 OA
BRANCH  22  23
HETATM   23  P1  UNL     1      19.643  76.175  -8.569  1.00  0.00     0.418 P 
HETATM   24  O3  UNL     1      20.567  75.043  -8.123  1.00  0.00    -0.624 OA
HETATM   25  O4  UNL     1      18.455  74.985  -8.926  1.00  0.00    -0.624 OA
BRANCH  23  26
HETATM   26  O5  UNL     1      20.619  76.707  -9.732  1.00  0.00    -0.173 OA
BRANCH  26  27
HETATM   27  P2  UNL     1      21.846  77.733  -9.348  1.00  0.00     0.431 P 
HETATM   28  O6  UNL     1      22.769  77.465  -8.049  1.00  0.00    -0.616 OA
HETATM   29  O7  UNL     1      21.971  79.190 -10.196  1.00  0.00    -0.616 OA
HETATM   30  O8  UNL     1      22.756  77.089 -10.396  1.00  0.00    -0.616 OA
ENDBRANCH  26  27
ENDBRANCH  23  26
ENDBRANCH  22  23
ENDBRANCH  21  22
ENDBRANCH   3  21
BRANCH   4  31
HETATM   31  O9  UNL     1      15.927  76.755  -8.282  1.00  0.00    -0.390 OA
ATOM     32  H9  UNL     1      15.978  76.945  -9.211  1.00  0.00     0.210 HD
ENDBRANCH   4  31
TORSDOF 8
ENDMDL
