MODEL 4
REMARK VINA RESULT: -8.870970928      4.868      7.676
REMARK  8 active torsions:
REMARK  status: ('A' for Active; 'I' for Inactive)
REMARK    1  A    between atoms: N5_13  and  C6_14 
REMARK    2  A    between atoms: C7_16  and  C8_17 
REMARK    3  A    between atoms: C8_17  and  O2_18 
REMARK    4  A    between atoms: O2_18  and  P1_19 
REMARK    5  A    between atoms: P1_19  and  O5_22 
REMARK    6  A    between atoms: O5_22  and  P2_23 
REMARK    7  A    between atoms: C9_27  and  O9_28 
REMARK    8  A    between atoms: C10_30  and  O10_31 
ROOT
HETATM    1  C6  UNL     1      15.250  78.742  -6.210  1.00  0.00     0.262 C 
HETATM    2  O1  UNL     1      16.078  79.411  -5.309  1.00  0.00    -0.353 OA
HETATM    3  C7  UNL     1      15.135  79.917  -4.416  1.00  0.00     0.180 C 
HETATM    4  C9  UNL     1      14.187  78.788  -4.120  1.00  0.00     0.182 C 
HETATM    5  C10 UNL     1      14.474  77.832  -5.286  1.00  0.00     0.198 C 
ENDROOT
BRANCH   1   6
HETATM    6  N5  UNL     1      15.981  78.030  -7.220  1.00  0.00    -0.297 N 
HETATM    7  C3  UNL     1      17.231  77.556  -7.035  1.00  0.00     0.142 A 
HETATM    8  N3  UNL     1      18.063  77.609  -5.967  1.00  0.00    -0.336 N 
HETATM    9  C4  UNL     1      17.655  76.922  -8.183  1.00  0.00     0.119 A 
HETATM   10  C2  UNL     1      19.295  77.066  -5.981  1.00  0.00     0.183 A 
ATOM     11  H3  UNL     1      17.744  78.079  -5.119  1.00  0.00     0.168 HD
HETATM   12  N2  UNL     1      19.701  76.456  -7.089  1.00  0.00    -0.339 N 
HETATM   13  C1  UNL     1      18.912  76.372  -8.186  1.00  0.00     0.148 A 
ATOM     14  H2  UNL     1      20.633  76.041  -7.115  1.00  0.00     0.167 HD
HETATM   15  N1  UNL     1      19.382  75.720  -9.330  1.00  0.00    -0.080 NA
HETATM   16  N4  UNL     1      16.632  77.031  -9.049  1.00  0.00    -0.346 N 
HETATM   17  C5  UNL     1      15.627  77.701  -8.456  1.00  0.00     0.188 A 
ATOM     18  H4  UNL     1      16.619  76.664 -10.001  1.00  0.00     0.167 HD
ENDBRANCH   1   6
BRANCH   5  19
HETATM   19  O10 UNL     1      13.310  77.352  -5.839  1.00  0.00    -0.388 OA
ATOM     20  H10 UNL     1      12.673  77.068  -5.195  1.00  0.00     0.210 HD
ENDBRANCH   5  19
BRANCH   3  21
HETATM   21  C8  UNL     1      15.780  80.476  -3.168  1.00  0.00     0.216 C 
BRANCH  21  22
HETATM   22  O2  UNL     1      15.265  79.816  -2.096  1.00  0.00    -0.287 OA
BRANCH  22  23
HETATM   23  P1  UNL     1      14.988  80.663  -0.723  1.00  0.00     0.418 P 
HETATM   24  O3  UNL     1      14.848  79.415   0.147  1.00  0.00    -0.624 OA
HETATM   25  O4  UNL     1      16.359  81.093   0.219  1.00  0.00    -0.624 OA
BRANCH  23  26
HETATM   26  O5  UNL     1      13.541  81.260  -0.352  1.00  0.00    -0.173 OA
BRANCH  26  27
HETATM   27  P2  UNL     1      12.189  80.477  -0.866  1.00  0.00     0.431 P 
HETATM   28  O6  UNL     1      11.553  79.273   0.005  1.00  0.00    -0.616 OA
HETATM   29  O7  UNL     1      11.619  80.793  -2.426  1.00  0.00    -0.616 OA
HETATM   30  O8  UNL     1      11.298  81.609  -0.351  1.00  0.00    -0.616 OA
ENDBRANCH  26  27
ENDBRANCH  23  26
ENDBRANCH  22  23
ENDBRANCH  21  22
ENDBRANCH   3  21
BRANCH   4  31
HETATM   31  O9  UNL     1      12.857  79.199  -4.288  1.00  0.00    -0.390 OA
ATOM     32  H9  UNL     1      12.280  78.448  -4.360  1.00  0.00     0.210 HD
ENDBRANCH   4  31
TORSDOF 8
ENDMDL
