MODEL 18
REMARK VINA RESULT: -8.230563592      1.173      1.331
REMARK  8 active torsions:
REMARK  status: ('A' for Active; 'I' for Inactive)
REMARK    1  A    between atoms: N5_13  and  C6_14 
REMARK    2  A    between atoms: C7_16  and  C8_17 
REMARK    3  A    between atoms: C8_17  and  O2_18 
REMARK    4  A    between atoms: O2_18  and  P1_19 
REMARK    5  A    between atoms: P1_19  and  O5_22 
REMARK    6  A    between atoms: O5_22  and  P2_23 
REMARK    7  A    between atoms: C9_27  and  O9_28 
REMARK    8  A    between atoms: C10_30  and  O10_31 
ROOT
HETATM    1  C6  UNL     1      13.007  79.683  -0.985  1.00  0.00     0.262 C 
HETATM    2  O1  UNL     1      13.802  79.540  -2.122  1.00  0.00    -0.353 OA
HETATM    3  C7  UNL     1      12.878  79.833  -3.123  1.00  0.00     0.180 C 
HETATM    4  C9  UNL     1      12.144  81.065  -2.672  1.00  0.00     0.182 C 
HETATM    5  C10 UNL     1      12.465  81.081  -1.171  1.00  0.00     0.198 C 
ENDROOT
BRANCH   1   6
HETATM    6  N5  UNL     1      13.744  79.522   0.237  1.00  0.00    -0.297 N 
HETATM    7  C3  UNL     1      14.960  80.066   0.447  1.00  0.00     0.142 A 
HETATM    8  N3  UNL     1      15.749  80.834  -0.343  1.00  0.00    -0.336 N 
HETATM    9  C4  UNL     1      15.400  79.732   1.710  1.00  0.00     0.119 A 
HETATM   10  C2  UNL     1      16.953  81.287   0.057  1.00  0.00     0.183 A 
ATOM     11  H3  UNL     1      15.419  81.079  -1.277  1.00  0.00     0.168 HD
HETATM   12  N2  UNL     1      17.375  80.962   1.274  1.00  0.00    -0.339 N 
HETATM   13  C1  UNL     1      16.628  80.199   2.107  1.00  0.00     0.148 A 
ATOM     14  H2  UNL     1      18.285  81.297   1.590  1.00  0.00     0.167 HD
HETATM   15  N1  UNL     1      17.113  79.884   3.379  1.00  0.00    -0.080 NA
HETATM   16  N4  UNL     1      14.420  78.981   2.241  1.00  0.00    -0.346 N 
HETATM   17  C5  UNL     1      13.425  78.861   1.343  1.00  0.00     0.188 A 
ATOM     18  H4  UNL     1      14.429  78.568   3.174  1.00  0.00     0.167 HD
ENDBRANCH   1   6
BRANCH   5  19
HETATM   19  O10 UNL     1      11.343  81.340  -0.419  1.00  0.00    -0.388 OA
ATOM     20  H10 UNL     1      11.340  82.205  -0.028  1.00  0.00     0.210 HD
ENDBRANCH   5  19
BRANCH   3  21
HETATM   21  C8  UNL     1      13.540  80.013  -4.470  1.00  0.00     0.216 C 
BRANCH  21  22
HETATM   22  O2  UNL     1      13.797  78.781  -4.983  1.00  0.00    -0.287 OA
BRANCH  22  23
HETATM   23  P1  UNL     1      15.355  78.357  -5.245  1.00  0.00     0.418 P 
HETATM   24  O3  UNL     1      15.581  79.426  -6.312  1.00  0.00    -0.624 OA
HETATM   25  O4  UNL     1      16.549  79.142  -4.290  1.00  0.00    -0.624 OA
BRANCH  23  26
HETATM   26  O5  UNL     1      15.769  77.122  -6.189  1.00  0.00    -0.173 OA
BRANCH  26  27
HETATM   27  P2  UNL     1      15.507  77.222  -7.810  1.00  0.00     0.431 P 
HETATM   28  O6  UNL     1      16.691  76.888  -8.859  1.00  0.00    -0.616 OA
HETATM   29  O7  UNL     1      14.058  77.906  -8.350  1.00  0.00    -0.616 OA
HETATM   30  O8  UNL     1      14.821  75.855  -7.817  1.00  0.00    -0.616 OA
ENDBRANCH  26  27
ENDBRANCH  23  26
ENDBRANCH  22  23
ENDBRANCH  21  22
ENDBRANCH   3  21
BRANCH   4  31
HETATM   31  O9  UNL     1      10.757  80.876  -2.757  1.00  0.00    -0.390 OA
ATOM     32  H9  UNL     1      10.536  80.347  -3.514  1.00  0.00     0.210 HD
ENDBRANCH   4  31
TORSDOF 8
ENDMDL
