MODEL 1
REMARK VINA RESULT: -8.963793935      0.000      0.000
REMARK  8 active torsions:
REMARK  status: ('A' for Active; 'I' for Inactive)
REMARK    1  A    between atoms: N5_13  and  C6_14 
REMARK    2  A    between atoms: C7_16  and  C8_17 
REMARK    3  A    between atoms: C8_17  and  O2_18 
REMARK    4  A    between atoms: O2_18  and  P1_19 
REMARK    5  A    between atoms: P1_19  and  O5_22 
REMARK    6  A    between atoms: O5_22  and  P2_23 
REMARK    7  A    between atoms: C9_27  and  O9_28 
REMARK    8  A    between atoms: C10_30  and  O10_31 
ROOT
HETATM    1  C6  UNL     1      13.712  79.925  -1.949  1.00  0.00     0.262 C 
HETATM    2  O1  UNL     1      14.790  79.645  -2.789  1.00  0.00    -0.353 OA
HETATM    3  C7  UNL     1      14.258  80.011  -4.025  1.00  0.00     0.180 C 
HETATM    4  C9  UNL     1      13.585  81.340  -3.815  1.00  0.00     0.182 C 
HETATM    5  C10 UNL     1      13.436  81.371  -2.288  1.00  0.00     0.198 C 
ENDROOT
BRANCH   1   6
HETATM    6  N5  UNL     1      14.017  79.719  -0.561  1.00  0.00    -0.297 N 
HETATM    7  C3  UNL     1      15.143  80.176   0.026  1.00  0.00     0.142 A 
HETATM    8  N3  UNL     1      16.192  80.878  -0.466  1.00  0.00    -0.336 N 
HETATM    9  C4  UNL     1      15.141  79.819   1.358  1.00  0.00     0.119 A 
HETATM   10  C2  UNL     1      17.239  81.245   0.297  1.00  0.00     0.183 A 
ATOM     11  H3  UNL     1      16.188  81.140  -1.452  1.00  0.00     0.168 HD
HETATM   12  N2  UNL     1      17.235  80.899   1.580  1.00  0.00    -0.339 N 
HETATM   13  C1  UNL     1      16.213  80.198   2.126  1.00  0.00     0.148 A 
ATOM     14  H2  UNL     1      18.023  81.169   2.170  1.00  0.00     0.167 HD
HETATM   15  N1  UNL     1      16.252  79.858   3.481  1.00  0.00    -0.080 NA
HETATM   16  N4  UNL     1      13.993  79.145   1.545  1.00  0.00    -0.346 N 
HETATM   17  C5  UNL     1      13.323  79.091   0.379  1.00  0.00     0.188 A 
ATOM     18  H4  UNL     1      13.680  78.740   2.428  1.00  0.00     0.167 HD
ENDBRANCH   1   6
BRANCH   5  19
HETATM   19  O10 UNL     1      12.181  81.792  -1.915  1.00  0.00    -0.388 OA
ATOM     20  H10 UNL     1      12.162  82.683  -1.586  1.00  0.00     0.210 HD
ENDBRANCH   5  19
BRANCH   3  21
HETATM   21  C8  UNL     1      15.315  80.061  -5.104  1.00  0.00     0.216 C 
BRANCH  21  22
HETATM   22  O2  UNL     1      16.405  79.379  -4.660  1.00  0.00    -0.287 OA
BRANCH  22  23
HETATM   23  P1  UNL     1      16.851  78.022  -5.458  1.00  0.00     0.418 P 
HETATM   24  O3  UNL     1      17.224  78.766  -6.738  1.00  0.00    -0.624 OA
HETATM   25  O4  UNL     1      18.496  77.544  -5.326  1.00  0.00    -0.624 OA
BRANCH  23  26
HETATM   26  O5  UNL     1      15.786  77.045  -6.165  1.00  0.00    -0.173 OA
BRANCH  26  27
HETATM   27  P2  UNL     1      15.583  77.119  -7.796  1.00  0.00     0.431 P 
HETATM   28  O6  UNL     1      16.748  76.615  -8.796  1.00  0.00    -0.616 OA
HETATM   29  O7  UNL     1      14.239  77.946  -8.402  1.00  0.00    -0.616 OA
HETATM   30  O8  UNL     1      14.743  75.840  -7.782  1.00  0.00    -0.616 OA
ENDBRANCH  26  27
ENDBRANCH  23  26
ENDBRANCH  22  23
ENDBRANCH  21  22
ENDBRANCH   3  21
BRANCH   4  31
HETATM   31  O9  UNL     1      12.277  81.319  -4.321  1.00  0.00    -0.390 OA
ATOM     32  H9  UNL     1      12.282  81.387  -5.268  1.00  0.00     0.210 HD
ENDBRANCH   4  31
TORSDOF 8
ENDMDL
