MODEL 3
REMARK VINA RESULT: -8.895579420      5.055      7.778
REMARK  8 active torsions:
REMARK  status: ('A' for Active; 'I' for Inactive)
REMARK    1  A    between atoms: N5_13  and  C6_14 
REMARK    2  A    between atoms: C7_16  and  C8_17 
REMARK    3  A    between atoms: C8_17  and  O2_18 
REMARK    4  A    between atoms: O2_18  and  P1_19 
REMARK    5  A    between atoms: P1_19  and  O5_22 
REMARK    6  A    between atoms: O5_22  and  P2_23 
REMARK    7  A    between atoms: C9_27  and  O9_28 
REMARK    8  A    between atoms: C10_30  and  O10_31 
ROOT
HETATM    1  C6  UNL     1      15.344  78.713  -6.379  1.00  0.00     0.262 C 
HETATM    2  O1  UNL     1      16.185  79.502  -5.594  1.00  0.00    -0.353 OA
HETATM    3  C7  UNL     1      15.264  80.060  -4.708  1.00  0.00     0.180 C 
HETATM    4  C9  UNL     1      14.382  78.930  -4.251  1.00  0.00     0.182 C 
HETATM    5  C10 UNL     1      14.654  77.872  -5.330  1.00  0.00     0.198 C 
ENDROOT
BRANCH   1   6
HETATM    6  N5  UNL     1      16.057  77.931  -7.349  1.00  0.00    -0.297 N 
HETATM    7  C3  UNL     1      17.309  77.467  -7.153  1.00  0.00     0.142 A 
HETATM    8  N3  UNL     1      18.159  77.592  -6.105  1.00  0.00    -0.336 N 
HETATM    9  C4  UNL     1      17.713  76.755  -8.262  1.00  0.00     0.119 A 
HETATM   10  C2  UNL     1      19.390  77.046  -6.103  1.00  0.00     0.183 A 
ATOM     11  H3  UNL     1      17.856  78.120  -5.287  1.00  0.00     0.168 HD
HETATM   12  N2  UNL     1      19.777  76.360  -7.173  1.00  0.00    -0.339 N 
HETATM   13  C1  UNL     1      18.968  76.202  -8.248  1.00  0.00     0.148 A 
ATOM     14  H2  UNL     1      20.707  75.941  -7.186  1.00  0.00     0.167 HD
HETATM   15  N1  UNL     1      19.418  75.471  -9.352  1.00  0.00    -0.080 NA
HETATM   16  N4  UNL     1      16.675  76.806  -9.115  1.00  0.00    -0.346 N 
HETATM   17  C5  UNL     1      15.681  77.518  -8.553  1.00  0.00     0.188 A 
ATOM     18  H4  UNL     1      16.646  76.374 -10.040  1.00  0.00     0.167 HD
ENDBRANCH   1   6
BRANCH   5  19
HETATM   19  O10 UNL     1      13.488  77.293  -5.771  1.00  0.00    -0.388 OA
ATOM     20  H10 UNL     1      13.566  76.361  -5.935  1.00  0.00     0.210 HD
ENDBRANCH   5  19
BRANCH   3  21
HETATM   21  C8  UNL     1      15.942  80.767  -3.557  1.00  0.00     0.216 C 
BRANCH  21  22
HETATM   22  O2  UNL     1      15.618  80.113  -2.409  1.00  0.00    -0.287 OA
BRANCH  22  23
HETATM   23  P1  UNL     1      15.478  80.984  -1.031  1.00  0.00     0.418 P 
HETATM   24  O3  UNL     1      16.975  81.269  -0.930  1.00  0.00    -0.624 OA
HETATM   25  O4  UNL     1      15.228  82.676  -1.200  1.00  0.00    -0.624 OA
BRANCH  23  26
HETATM   26  O5  UNL     1      15.364  80.297   0.419  1.00  0.00    -0.173 OA
BRANCH  26  27
HETATM   27  P2  UNL     1      14.310  79.054   0.641  1.00  0.00     0.431 P 
HETATM   28  O6  UNL     1      14.410  78.113   1.951  1.00  0.00    -0.616 OA
HETATM   29  O7  UNL     1      13.280  78.634  -0.632  1.00  0.00    -0.616 OA
HETATM   30  O8  UNL     1      13.232  80.014   1.148  1.00  0.00    -0.616 OA
ENDBRANCH  26  27
ENDBRANCH  23  26
ENDBRANCH  22  23
ENDBRANCH  21  22
ENDBRANCH   3  21
BRANCH   4  31
HETATM   31  O9  UNL     1      13.029  79.270  -4.390  1.00  0.00    -0.390 OA
ATOM     32  H9  UNL     1      12.742  79.148  -5.287  1.00  0.00     0.210 HD
ENDBRANCH   4  31
TORSDOF 8
ENDMDL
