MODEL 3
REMARK VINA RESULT: -7.033621137      1.210      2.508
REMARK  2 active torsions:
REMARK  status: ('A' for Active; 'I' for Inactive)
REMARK    1  A    between atoms: C2_2  and  C3_3 
REMARK    2  A    between atoms: C6_12  and  C7_13 
ROOT
HETATM    1  C3  UNL     1      90.107  11.020  36.319  1.00  0.00     0.025 A 
HETATM    2  N1  UNL     1      90.335  10.162  37.336  1.00  0.00    -0.333 N 
ATOM      3  H1  UNL     1      90.156  10.478  38.288  1.00  0.00     0.168 HD
HETATM    4  C4  UNL     1      90.785   8.916  37.151  1.00  0.00     0.194 A 
HETATM    5  N2  UNL     1      91.003   8.096  38.280  1.00  0.00    -0.063 NA
HETATM    6  N3  UNL     1      91.018   8.503  35.903  1.00  0.00    -0.318 N 
ATOM      7  H3  UNL     1      91.360   7.553  35.761  1.00  0.00     0.169 HD
HETATM    8  C5  UNL     1      90.824   9.284  34.822  1.00  0.00     0.131 A 
HETATM    9  N4  UNL     1      91.086   8.815  33.502  1.00  0.00    -0.082 NA
HETATM   10  C6  UNL     1      90.353  10.584  35.047  1.00  0.00     0.038 A 
ENDROOT
BRANCH  10  11
HETATM   11  C7  UNL     1      90.202  11.417  33.853  1.00  0.00    -0.021 A 
HETATM   12  C8  UNL     1      88.969  11.458  33.192  1.00  0.00     0.014 A 
HETATM   13  C9  UNL     1      88.749  12.218  32.063  1.00  0.00     0.024 A 
HETATM   14  C10 UNL     1      89.811  12.957  31.588  1.00  0.00     0.034 A 
HETATM   15 CL1  UNL     1      89.530  13.928  30.155  1.00  0.00    -0.084 Cl
HETATM   16  C11 UNL     1      91.034  12.923  32.233  1.00  0.00     0.024 A 
HETATM   17  C12 UNL     1      91.238  12.145  33.379  1.00  0.00     0.014 A 
ENDBRANCH  10  11
BRANCH   1  18
HETATM   18  C2  UNL     1      89.594  12.384  36.530  1.00  0.00     0.054 C 
HETATM   19  C1  UNL     1      88.089  12.385  36.755  1.00  0.00     0.011 C 
ENDBRANCH   1  18
TORSDOF 2
ENDMDL
