MODEL 4
REMARK VINA RESULT: -7.015428248      3.999      6.297
REMARK  2 active torsions:
REMARK  status: ('A' for Active; 'I' for Inactive)
REMARK    1  A    between atoms: C2_2  and  C3_3 
REMARK    2  A    between atoms: C6_12  and  C7_13 
ROOT
HETATM    1  C3  UNL     1      90.410  14.079  32.950  1.00  0.00     0.025 A 
HETATM    2  N1  UNL     1      90.376  14.387  31.637  1.00  0.00    -0.333 N 
ATOM      3  H1  UNL     1      90.917  15.187  31.311  1.00  0.00     0.168 HD
HETATM    4  C4  UNL     1      89.665  13.690  30.743  1.00  0.00     0.194 A 
HETATM    5  N2  UNL     1      89.684  14.097  29.391  1.00  0.00    -0.063 NA
HETATM    6  N3  UNL     1      88.958  12.642  31.171  1.00  0.00    -0.318 N 
ATOM      7  H3  UNL     1      88.417  12.110  30.490  1.00  0.00     0.169 HD
HETATM    8  C5  UNL     1      88.925  12.255  32.461  1.00  0.00     0.131 A 
HETATM    9  N4  UNL     1      88.157  11.133  32.888  1.00  0.00    -0.082 NA
HETATM   10  C6  UNL     1      89.679  13.004  33.374  1.00  0.00     0.038 A 
ENDROOT
BRANCH  10  11
HETATM   11  C7  UNL     1      89.578  12.583  34.772  1.00  0.00    -0.021 A 
HETATM   12  C8  UNL     1      88.515  13.044  35.557  1.00  0.00     0.014 A 
HETATM   13  C9  UNL     1      88.352  12.692  36.880  1.00  0.00     0.024 A 
HETATM   14  C10 UNL     1      89.297  11.848  37.425  1.00  0.00     0.034 A 
HETATM   15 CL1  UNL     1      89.087  11.396  39.106  1.00  0.00    -0.084 Cl
HETATM   16  C11 UNL     1      90.351  11.387  36.658  1.00  0.00     0.024 A 
HETATM   17  C12 UNL     1      90.499  11.756  35.316  1.00  0.00     0.014 A 
ENDBRANCH  10  11
BRANCH   1  18
HETATM   18  C2  UNL     1      91.210  14.839  33.925  1.00  0.00     0.054 C 
HETATM   19  C1  UNL     1      91.364  16.294  33.507  1.00  0.00     0.011 C 
ENDBRANCH   1  18
TORSDOF 2
ENDMDL
