MODEL 1
REMARK VINA RESULT: -7.193305456      0.000      0.000
REMARK  2 active torsions:
REMARK  status: ('A' for Active; 'I' for Inactive)
REMARK    1  A    between atoms: C2_2  and  C3_3 
REMARK    2  A    between atoms: C6_12  and  C7_13 
ROOT
HETATM    1  C3  UNL     1      90.753   9.299  35.441  1.00  0.00     0.025 A 
HETATM    2  N1  UNL     1      90.904   8.732  36.656  1.00  0.00    -0.333 N 
ATOM      3  H1  UNL     1      90.990   7.718  36.712  1.00  0.00     0.168 HD
HETATM    4  C4  UNL     1      90.947   9.440  37.790  1.00  0.00     0.194 A 
HETATM    5  N2  UNL     1      91.098   8.754  39.015  1.00  0.00    -0.063 NA
HETATM    6  N3  UNL     1      90.836  10.767  37.715  1.00  0.00    -0.318 N 
ATOM      7  H3  UNL     1      90.870  11.308  38.580  1.00  0.00     0.169 HD
HETATM    8  C5  UNL     1      90.680  11.428  36.551  1.00  0.00     0.131 A 
HETATM    9  N4  UNL     1      90.560  12.847  36.505  1.00  0.00    -0.082 NA
HETATM   10  C6  UNL     1      90.638  10.660  35.380  1.00  0.00     0.038 A 
ENDROOT
BRANCH  10  11
HETATM   11  C7  UNL     1      90.418  11.409  34.142  1.00  0.00    -0.021 A 
HETATM   12  C8  UNL     1      89.117  11.558  33.647  1.00  0.00     0.014 A 
HETATM   13  C9  UNL     1      88.829  12.248  32.489  1.00  0.00     0.024 A 
HETATM   14  C10 UNL     1      89.894  12.804  31.810  1.00  0.00     0.034 A 
HETATM   15 CL1  UNL     1      89.528  13.686  30.340  1.00  0.00    -0.084 Cl
HETATM   16  C11 UNL     1      91.183  12.662  32.290  1.00  0.00     0.024 A 
HETATM   17  C12 UNL     1      91.454  11.957  33.468  1.00  0.00     0.014 A 
ENDBRANCH  10  11
BRANCH   1  18
HETATM   18  C2  UNL     1      90.726   8.515  34.194  1.00  0.00     0.054 C 
HETATM   19  C1  UNL     1      89.713   7.382  34.271  1.00  0.00     0.011 C 
ENDBRANCH   1  18
TORSDOF 2
ENDMDL
