MODEL 2
REMARK VINA RESULT: -7.152779337      1.764      3.139
REMARK  2 active torsions:
REMARK  status: ('A' for Active; 'I' for Inactive)
REMARK    1  A    between atoms: C2_2  and  C3_3 
REMARK    2  A    between atoms: C6_12  and  C7_13 
ROOT
HETATM    1  C3  UNL     1      89.085  12.164  36.260  1.00  0.00     0.025 A 
HETATM    2  N1  UNL     1      89.317  11.555  37.442  1.00  0.00    -0.333 N 
ATOM      3  H1  UNL     1      88.883  11.939  38.280  1.00  0.00     0.168 HD
HETATM    4  C4  UNL     1      90.090  10.471  37.562  1.00  0.00     0.194 A 
HETATM    5  N2  UNL     1      90.282   9.910  38.845  1.00  0.00    -0.063 NA
HETATM    6  N3  UNL     1      90.657   9.968  36.464  1.00  0.00    -0.318 N 
ATOM      7  H3  UNL     1      91.246   9.140  36.555  1.00  0.00     0.169 HD
HETATM    8  C5  UNL     1      90.488  10.504  35.239  1.00  0.00     0.131 A 
HETATM    9  N4  UNL     1      91.110   9.946  34.084  1.00  0.00    -0.082 NA
HETATM   10  C6  UNL     1      89.674  11.640  35.143  1.00  0.00     0.038 A 
ENDROOT
BRANCH  10  11
HETATM   11  C7  UNL     1      89.555  12.222  33.805  1.00  0.00    -0.021 A 
HETATM   12  C8  UNL     1      90.482  13.183  33.386  1.00  0.00     0.014 A 
HETATM   13  C9  UNL     1      90.436  13.776  32.142  1.00  0.00     0.024 A 
HETATM   14  C10 UNL     1      89.419  13.383  31.298  1.00  0.00     0.034 A 
HETATM   15 CL1  UNL     1      89.364  14.133  29.714  1.00  0.00    -0.084 Cl
HETATM   16  C11 UNL     1      88.498  12.435  31.703  1.00  0.00     0.024 A 
HETATM   17  C12 UNL     1      88.561  11.845  32.970  1.00  0.00     0.014 A 
ENDBRANCH  10  11
BRANCH   1  18
HETATM   18  C2  UNL     1      88.216  13.347  36.132  1.00  0.00     0.054 C 
HETATM   19  C1  UNL     1      87.976  14.010  37.480  1.00  0.00     0.011 C 
ENDBRANCH   1  18
TORSDOF 2
ENDMDL
