MODEL 7
REMARK VINA RESULT: -6.623461851      0.987      1.556
REMARK  8 active torsions:
REMARK  status: ('A' for Active; 'I' for Inactive)
REMARK    1  A    between atoms: C4_6  and  C5_7 
REMARK    2  A    between atoms: C5_7  and  O1_8 
REMARK    3  A    between atoms: O1_8  and  P1_9 
REMARK    4  A    between atoms: C6_13  and  C7_14 
REMARK    5  A    between atoms: C7_14  and  N2_15 
REMARK    6  A    between atoms: N2_15  and  C8_18 
REMARK    7  A    between atoms: C8_18  and  C10_20 
REMARK    8  A    between atoms: C11_23  and  O7_24 
ROOT
HETATM    1  C1  UNL     1      74.086  37.885  65.033  1.00  0.00     0.071 C 
HETATM    2  C2  UNL     1      74.762  37.480  63.762  1.00  0.00     0.039 A 
HETATM    3  N1  UNL     1      74.806  38.304  62.705  1.00  0.00    -0.367 N 
ATOM      4  H1  UNL     1      74.365  39.221  62.785  1.00  0.00     0.165 HD
HETATM    5  C3  UNL     1      75.402  37.979  61.549  1.00  0.00     0.098 A 
HETATM    6  C4  UNL     1      76.004  36.722  61.442  1.00  0.00    -0.008 A 
HETATM    7  C6  UNL     1      75.988  35.834  62.502  1.00  0.00     0.012 A 
HETATM    8  C11 UNL     1      75.356  36.239  63.658  1.00  0.00     0.096 A 
ENDROOT
BRANCH   7   9
HETATM    9  C7  UNL     1      76.647  34.537  62.296  1.00  0.00     0.275 C 
BRANCH   9  10
HETATM   10  N2  UNL     1      75.759  33.425  62.088  1.00  0.00    -0.058 N 
ATOM     11  H22 UNL     1      74.784  33.698  61.967  1.00  0.00     0.278 HD
ATOM     12  H21 UNL     1      75.873  32.976  61.179  1.00  0.00     0.278 HD
BRANCH  10  13
HETATM   13  C8  UNL     1      75.981  32.517  63.226  1.00  0.00     0.282 C 
HETATM   14  C9  UNL     1      77.452  32.421  63.517  1.00  0.00     0.052 C 
BRANCH  13  15
HETATM   15  C10 UNL     1      75.373  31.191  62.957  1.00  0.00     0.204 C 
HETATM   16  O5  UNL     1      74.341  30.818  63.528  1.00  0.00    -0.646 OA
HETATM   17  O6  UNL     1      75.978  30.350  62.043  1.00  0.00    -0.646 OA
ENDBRANCH  13  15
ENDBRANCH  10  13
ENDBRANCH   9  10
ENDBRANCH   7   9
BRANCH   6  18
HETATM   18  C5  UNL     1      76.668  36.325  60.194  1.00  0.00     0.223 C 
BRANCH  18  19
HETATM   19  O1  UNL     1      77.950  36.877  60.105  1.00  0.00    -0.278 OA
BRANCH  19  20
HETATM   20  P1  UNL     1      78.349  37.311  58.694  1.00  0.00     0.422 P 
HETATM   21  O2  UNL     1      79.467  36.116  58.559  1.00  0.00    -0.617 OA
HETATM   22  O3  UNL     1      78.770  38.810  59.287  1.00  0.00    -0.617 OA
HETATM   23  O4  UNL     1      76.831  37.049  58.136  1.00  0.00    -0.617 OA
ENDBRANCH  19  20
ENDBRANCH  18  19
ENDBRANCH   6  18
BRANCH   8  24
HETATM   24  O7  UNL     1      75.327  35.374  64.726  1.00  0.00    -0.358 OA
ATOM     25  H7  UNL     1      76.108  35.241  65.249  1.00  0.00     0.217 HD
ENDBRANCH   8  24
TORSDOF 8
ENDMDL
