MODEL 9
REMARK VINA RESULT: -6.212752339      3.048      5.408
REMARK  8 active torsions:
REMARK  status: ('A' for Active; 'I' for Inactive)
REMARK    1  A    between atoms: C4_6  and  C5_7 
REMARK    2  A    between atoms: C5_7  and  O1_8 
REMARK    3  A    between atoms: O1_8  and  P1_9 
REMARK    4  A    between atoms: C6_13  and  C7_14 
REMARK    5  A    between atoms: C7_14  and  N2_15 
REMARK    6  A    between atoms: N2_15  and  C8_18 
REMARK    7  A    between atoms: C8_18  and  C10_20 
REMARK    8  A    between atoms: C11_23  and  O7_24 
ROOT
HETATM    1  C1  UNL     1      75.654  37.583  60.647  1.00  0.00     0.071 C 
HETATM    2  C2  UNL     1      75.732  36.586  61.758  1.00  0.00     0.039 A 
HETATM    3  N1  UNL     1      75.313  36.890  62.995  1.00  0.00    -0.367 N 
ATOM      4  H1  UNL     1      74.936  37.823  63.165  1.00  0.00     0.165 HD
HETATM    5  C3  UNL     1      75.366  36.024  64.018  1.00  0.00     0.098 A 
HETATM    6  C4  UNL     1      75.883  34.747  63.782  1.00  0.00    -0.008 A 
HETATM    7  C6  UNL     1      76.329  34.382  62.525  1.00  0.00     0.012 A 
HETATM    8  C11 UNL     1      76.242  35.325  61.524  1.00  0.00     0.096 A 
ENDROOT
BRANCH   7   9
HETATM    9  C7  UNL     1      76.854  33.018  62.373  1.00  0.00     0.275 C 
BRANCH   9  10
HETATM   10  N2  UNL     1      75.990  32.103  61.676  1.00  0.00    -0.058 N 
ATOM     11  H22 UNL     1      75.014  32.398  61.655  1.00  0.00     0.278 HD
ATOM     12  H21 UNL     1      76.136  32.091  60.667  1.00  0.00     0.278 HD
BRANCH  10  13
HETATM   13  C8  UNL     1      76.196  30.793  62.317  1.00  0.00     0.282 C 
HETATM   14  C9  UNL     1      76.799  29.835  61.329  1.00  0.00     0.052 C 
BRANCH  13  15
HETATM   15  C10 UNL     1      74.921  30.289  62.884  1.00  0.00     0.204 C 
HETATM   16  O5  UNL     1      74.564  29.113  62.743  1.00  0.00    -0.646 OA
HETATM   17  O6  UNL     1      74.111  31.158  63.588  1.00  0.00    -0.646 OA
ENDBRANCH  13  15
ENDBRANCH  10  13
ENDBRANCH   9  10
ENDBRANCH   7   9
BRANCH   6  18
HETATM   18  C5  UNL     1      75.959  33.768  64.873  1.00  0.00     0.223 C 
BRANCH  18  19
HETATM   19  O1  UNL     1      77.243  33.725  65.426  1.00  0.00    -0.278 OA
BRANCH  19  20
HETATM   20  P1  UNL     1      77.328  32.971  66.754  1.00  0.00     0.422 P 
HETATM   21  O2  UNL     1      76.918  31.541  66.057  1.00  0.00    -0.617 OA
HETATM   22  O3  UNL     1      76.160  33.977  67.386  1.00  0.00    -0.617 OA
HETATM   23  O4  UNL     1      78.912  33.350  66.920  1.00  0.00    -0.617 OA
ENDBRANCH  19  20
ENDBRANCH  18  19
ENDBRANCH   6  18
BRANCH   8  24
HETATM   24  O7  UNL     1      76.679  34.987  60.265  1.00  0.00    -0.358 OA
ATOM     25  H7  UNL     1      76.841  35.666  59.621  1.00  0.00     0.217 HD
ENDBRANCH   8  24
TORSDOF 8
ENDMDL
