MODEL 1
REMARK VINA RESULT: -7.209992710      0.000      0.000
REMARK  8 active torsions:
REMARK  status: ('A' for Active; 'I' for Inactive)
REMARK    1  A    between atoms: C4_6  and  C5_7 
REMARK    2  A    between atoms: C5_7  and  O1_8 
REMARK    3  A    between atoms: O1_8  and  P1_9 
REMARK    4  A    between atoms: C6_13  and  C7_14 
REMARK    5  A    between atoms: C7_14  and  N2_15 
REMARK    6  A    between atoms: N2_15  and  C8_18 
REMARK    7  A    between atoms: C8_18  and  C10_20 
REMARK    8  A    between atoms: C11_23  and  O7_24 
ROOT
HETATM    1  C1  UNL     1      74.145  37.797  64.841  1.00  0.00     0.071 C 
HETATM    2  C2  UNL     1      74.815  37.491  63.540  1.00  0.00     0.039 A 
HETATM    3  N1  UNL     1      74.815  38.376  62.534  1.00  0.00    -0.367 N 
ATOM      4  H1  UNL     1      74.344  39.271  62.673  1.00  0.00     0.165 HD
HETATM    5  C3  UNL     1      75.405  38.140  61.352  1.00  0.00     0.098 A 
HETATM    6  C4  UNL     1      76.049  36.913  61.165  1.00  0.00    -0.008 A 
HETATM    7  C6  UNL     1      76.080  35.965  62.171  1.00  0.00     0.012 A 
HETATM    8  C11 UNL     1      75.451  36.280  63.357  1.00  0.00     0.096 A 
ENDROOT
BRANCH   7   9
HETATM    9  C7  UNL     1      76.781  34.707  61.881  1.00  0.00     0.275 C 
BRANCH   9  10
HETATM   10  N2  UNL     1      75.929  33.573  61.640  1.00  0.00    -0.058 N 
ATOM     11  H22 UNL     1      74.937  33.772  61.770  1.00  0.00     0.278 HD
ATOM     12  H21 UNL     1      75.871  33.306  60.657  1.00  0.00     0.278 HD
BRANCH  10  13
HETATM   13  C8  UNL     1      76.435  32.500  62.513  1.00  0.00     0.282 C 
HETATM   14  C9  UNL     1      77.056  31.417  61.677  1.00  0.00     0.052 C 
BRANCH  13  15
HETATM   15  C10 UNL     1      75.349  31.986  63.383  1.00  0.00     0.204 C 
HETATM   16  O5  UNL     1      74.926  32.633  64.349  1.00  0.00    -0.646 OA
HETATM   17  O6  UNL     1      74.798  30.750  63.107  1.00  0.00    -0.646 OA
ENDBRANCH  13  15
ENDBRANCH  10  13
ENDBRANCH   9  10
ENDBRANCH   7   9
BRANCH   6  18
HETATM   18  C5  UNL     1      76.709  36.614  59.888  1.00  0.00     0.223 C 
BRANCH  18  19
HETATM   19  O1  UNL     1      76.611  37.693  59.003  1.00  0.00    -0.278 OA
BRANCH  19  20
HETATM   20  P1  UNL     1      77.847  37.896  58.125  1.00  0.00     0.422 P 
HETATM   21  O2  UNL     1      77.015  38.792  57.028  1.00  0.00    -0.617 OA
HETATM   22  O3  UNL     1      77.980  36.244  57.951  1.00  0.00    -0.617 OA
HETATM   23  O4  UNL     1      78.639  38.658  59.339  1.00  0.00    -0.617 OA
ENDBRANCH  19  20
ENDBRANCH  18  19
ENDBRANCH   6  18
BRANCH   8  24
HETATM   24  O7  UNL     1      75.467  35.353  64.372  1.00  0.00    -0.358 OA
ATOM     25  H7  UNL     1      76.266  35.202  64.862  1.00  0.00     0.217 HD
ENDBRANCH   8  24
TORSDOF 8
ENDMDL
