MODEL 6
REMARK VINA RESULT: -6.626830143      1.310      1.907
REMARK  8 active torsions:
REMARK  status: ('A' for Active; 'I' for Inactive)
REMARK    1  A    between atoms: C4_6  and  C5_7 
REMARK    2  A    between atoms: C5_7  and  O1_8 
REMARK    3  A    between atoms: O1_8  and  P1_9 
REMARK    4  A    between atoms: C6_13  and  C7_14 
REMARK    5  A    between atoms: C7_14  and  N2_15 
REMARK    6  A    between atoms: N2_15  and  C8_18 
REMARK    7  A    between atoms: C8_18  and  C10_20 
REMARK    8  A    between atoms: C11_23  and  O7_24 
ROOT
HETATM    1  C1  UNL     1      74.062  37.965  64.804  1.00  0.00     0.071 C 
HETATM    2  C2  UNL     1      74.771  37.552  63.553  1.00  0.00     0.039 A 
HETATM    3  N1  UNL     1      74.806  38.353  62.479  1.00  0.00    -0.367 N 
ATOM      4  H1  UNL     1      74.336  39.257  62.530  1.00  0.00     0.165 HD
HETATM    5  C3  UNL     1      75.430  38.020  61.339  1.00  0.00     0.098 A 
HETATM    6  C4  UNL     1      76.073  36.780  61.272  1.00  0.00    -0.008 A 
HETATM    7  C6  UNL     1      76.068  35.917  62.351  1.00  0.00     0.012 A 
HETATM    8  C11 UNL     1      75.405  36.328  63.488  1.00  0.00     0.096 A 
ENDROOT
BRANCH   7   9
HETATM    9  C7  UNL     1      76.770  34.637  62.186  1.00  0.00     0.275 C 
BRANCH   9  10
HETATM   10  N2  UNL     1      75.935  33.523  61.821  1.00  0.00    -0.058 N 
ATOM     11  H22 UNL     1      74.938  33.736  61.838  1.00  0.00     0.278 HD
ATOM     12  H21 UNL     1      75.990  33.278  60.832  1.00  0.00     0.278 HD
BRANCH  10  13
HETATM   13  C8  UNL     1      76.319  32.424  62.723  1.00  0.00     0.282 C 
HETATM   14  C9  UNL     1      76.751  31.233  61.914  1.00  0.00     0.052 C 
BRANCH  13  15
HETATM   15  C10 UNL     1      75.207  32.102  63.649  1.00  0.00     0.204 C 
HETATM   16  O5  UNL     1      74.930  32.827  64.613  1.00  0.00    -0.646 OA
HETATM   17  O6  UNL     1      74.461  30.961  63.430  1.00  0.00    -0.646 OA
ENDBRANCH  13  15
ENDBRANCH  10  13
ENDBRANCH   9  10
ENDBRANCH   7   9
BRANCH   6  18
HETATM   18  C5  UNL     1      76.769  36.376  60.043  1.00  0.00     0.223 C 
BRANCH  18  19
HETATM   19  O1  UNL     1      75.863  35.968  59.059  1.00  0.00    -0.278 OA
BRANCH  19  20
HETATM   20  P1  UNL     1      76.447  34.992  58.037  1.00  0.00     0.422 P 
HETATM   21  O2  UNL     1      77.393  34.259  59.162  1.00  0.00    -0.617 OA
HETATM   22  O3  UNL     1      77.020  36.281  57.151  1.00  0.00    -0.617 OA
HETATM   23  O4  UNL     1      74.965  34.372  57.715  1.00  0.00    -0.617 OA
ENDBRANCH  19  20
ENDBRANCH  18  19
ENDBRANCH   6  18
BRANCH   8  24
HETATM   24  O7  UNL     1      75.385  35.487  64.575  1.00  0.00    -0.358 OA
ATOM     25  H7  UNL     1      76.097  34.874  64.713  1.00  0.00     0.217 HD
ENDBRANCH   8  24
TORSDOF 8
ENDMDL
