MODEL 3
REMARK VINA RESULT: -7.191293657      0.041      1.079
REMARK  8 active torsions:
REMARK  status: ('A' for Active; 'I' for Inactive)
REMARK    1  A    between atoms: C4_6  and  C5_7 
REMARK    2  A    between atoms: C5_7  and  O1_8 
REMARK    3  A    between atoms: O1_8  and  P1_9 
REMARK    4  A    between atoms: C6_13  and  C7_14 
REMARK    5  A    between atoms: C7_14  and  N2_15 
REMARK    6  A    between atoms: N2_15  and  C8_18 
REMARK    7  A    between atoms: C8_18  and  C10_20 
REMARK    8  A    between atoms: C11_23  and  O7_24 
ROOT
HETATM    1  C1  UNL     1      74.161  37.781  64.838  1.00  0.00     0.071 C 
HETATM    2  C2  UNL     1      74.823  37.482  63.531  1.00  0.00     0.039 A 
HETATM    3  N1  UNL     1      74.809  38.369  62.526  1.00  0.00    -0.367 N 
ATOM      4  H1  UNL     1      74.333  39.260  62.671  1.00  0.00     0.165 HD
HETATM    5  C3  UNL     1      75.390  38.139  61.340  1.00  0.00     0.098 A 
HETATM    6  C4  UNL     1      76.042  36.917  61.145  1.00  0.00    -0.008 A 
HETATM    7  C6  UNL     1      76.087  35.968  62.148  1.00  0.00     0.012 A 
HETATM    8  C11 UNL     1      75.466  36.276  63.340  1.00  0.00     0.096 A 
ENDROOT
BRANCH   7   9
HETATM    9  C7  UNL     1      76.794  34.715  61.851  1.00  0.00     0.275 C 
BRANCH   9  10
HETATM   10  N2  UNL     1      75.948  33.578  61.601  1.00  0.00    -0.058 N 
ATOM     11  H22 UNL     1      74.955  33.772  61.729  1.00  0.00     0.278 HD
ATOM     12  H21 UNL     1      75.895  33.317  60.616  1.00  0.00     0.278 HD
BRANCH  10  13
HETATM   13  C8  UNL     1      76.456  32.503  62.469  1.00  0.00     0.282 C 
HETATM   14  C9  UNL     1      77.082  31.426  61.629  1.00  0.00     0.052 C 
BRANCH  13  15
HETATM   15  C10 UNL     1      75.371  31.982  63.336  1.00  0.00     0.204 C 
HETATM   16  O5  UNL     1      74.959  32.614  64.316  1.00  0.00    -0.646 OA
HETATM   17  O6  UNL     1      74.808  30.756  63.040  1.00  0.00    -0.646 OA
ENDBRANCH  13  15
ENDBRANCH  10  13
ENDBRANCH   9  10
ENDBRANCH   7   9
BRANCH   6  18
HETATM   18  C5  UNL     1      76.692  36.625  59.861  1.00  0.00     0.223 C 
BRANCH  18  19
HETATM   19  O1  UNL     1      76.645  37.731  59.006  1.00  0.00    -0.278 OA
BRANCH  19  20
HETATM   20  P1  UNL     1      77.877  37.885  58.113  1.00  0.00     0.422 P 
HETATM   21  O2  UNL     1      78.022  36.262  57.900  1.00  0.00    -0.617 OA
HETATM   22  O3  UNL     1      78.669  38.655  59.360  1.00  0.00    -0.617 OA
HETATM   23  O4  UNL     1      77.029  38.760  57.018  1.00  0.00    -0.617 OA
ENDBRANCH  19  20
ENDBRANCH  18  19
ENDBRANCH   6  18
BRANCH   8  24
HETATM   24  O7  UNL     1      75.497  35.348  64.354  1.00  0.00    -0.358 OA
ATOM     25  H7  UNL     1      75.611  34.427  64.149  1.00  0.00     0.217 HD
ENDBRANCH   8  24
TORSDOF 8
ENDMDL
