MODEL 13
REMARK VINA RESULT: -4.973419617      1.278      4.104
REMARK  6 active torsions:
REMARK  status: ('A' for Active; 'I' for Inactive)
REMARK    1  A    between atoms: C1_2  and  C2_4 
REMARK    2  A    between atoms: C2_4  and  C3_5 
REMARK    3  A    between atoms: C3_5  and  O3_6 
REMARK    4  A    between atoms: C3_5  and  C4_8 
REMARK    5  A    between atoms: C3_5  and  C6_12 
REMARK    6  A    between atoms: C4_8  and  C5_9 
ROOT
HETATM    1  C3  UNL     1      86.096  -1.483  41.600  1.00  0.00     0.164 C 
ENDROOT
BRANCH   1   2
HETATM    2  C2  UNL     1      87.501  -1.944  41.538  1.00  0.00     0.163 C 
BRANCH   2   3
HETATM    3  C1  UNL     1      87.802  -3.022  40.580  1.00  0.00     0.176 C 
HETATM    4  O1  UNL     1      88.284  -2.717  39.464  1.00  0.00    -0.648 OA
HETATM    5  O2  UNL     1      87.594  -4.372  40.814  1.00  0.00    -0.648 OA
ENDBRANCH   2   3
ENDBRANCH   1   2
BRANCH   1   6
HETATM    6  O3  UNL     1      85.380  -2.134  40.590  1.00  0.00    -0.378 OA
ATOM      7  H3  UNL     1      85.051  -1.474  39.991  1.00  0.00     0.211 HD
ENDBRANCH   1   6
BRANCH   1   8
HETATM    8  C4  UNL     1      85.850  -0.019  41.539  1.00  0.00     0.163 C 
BRANCH   8   9
HETATM    9  C5  UNL     1      84.432   0.382  41.435  1.00  0.00     0.176 C 
HETATM   10  O4  UNL     1      83.865   0.909  42.411  1.00  0.00    -0.648 OA
HETATM   11  O5  UNL     1      83.783   0.149  40.232  1.00  0.00    -0.648 OA
ENDBRANCH   8   9
ENDBRANCH   1   8
BRANCH   1  12
HETATM   12  C6  UNL     1      85.549  -1.947  42.904  1.00  0.00     0.210 C 
HETATM   13  O6  UNL     1      86.192  -1.682  43.940  1.00  0.00    -0.646 OA
HETATM   14  O7  UNL     1      84.369  -2.648  42.994  1.00  0.00    -0.646 OA
ENDBRANCH   1  12
TORSDOF 6
ENDMDL
