MODEL 17
REMARK VINA RESULT: -4.908704028      1.436      4.519
REMARK  6 active torsions:
REMARK  status: ('A' for Active; 'I' for Inactive)
REMARK    1  A    between atoms: C1_2  and  C2_4 
REMARK    2  A    between atoms: C2_4  and  C3_5 
REMARK    3  A    between atoms: C3_5  and  O3_6 
REMARK    4  A    between atoms: C3_5  and  C4_8 
REMARK    5  A    between atoms: C3_5  and  C6_12 
REMARK    6  A    between atoms: C4_8  and  C5_9 
ROOT
HETATM    1  C3  UNL     1      86.050  -2.145  42.715  1.00  0.00     0.164 C 
ENDROOT
BRANCH   1   2
HETATM    2  C2  UNL     1      87.242  -2.509  43.514  1.00  0.00     0.163 C 
BRANCH   2   3
HETATM    3  C1  UNL     1      87.561  -3.943  43.610  1.00  0.00     0.176 C 
HETATM    4  O1  UNL     1      88.245  -4.470  42.701  1.00  0.00    -0.648 OA
HETATM    5  O2  UNL     1      87.161  -4.778  44.643  1.00  0.00    -0.648 OA
ENDBRANCH   2   3
ENDBRANCH   1   2
BRANCH   1   6
HETATM    6  O3  UNL     1      85.940  -3.055  41.660  1.00  0.00    -0.378 OA
ATOM      7  H3  UNL     1      85.664  -3.891  42.018  1.00  0.00     0.211 HD
ENDBRANCH   1   6
BRANCH   1   8
HETATM    8  C4  UNL     1      85.968  -0.753  42.200  1.00  0.00     0.163 C 
BRANCH   8   9
HETATM    9  C5  UNL     1      84.741  -0.428  41.444  1.00  0.00     0.176 C 
HETATM   10  O4  UNL     1      84.432  -1.106  40.445  1.00  0.00    -0.648 OA
HETATM   11  O5  UNL     1      83.973   0.637  41.888  1.00  0.00    -0.648 OA
ENDBRANCH   8   9
ENDBRANCH   1   8
BRANCH   1  12
HETATM   12  C6  UNL     1      84.867  -2.337  43.597  1.00  0.00     0.210 C 
HETATM   13  O6  UNL     1      84.042  -3.221  43.291  1.00  0.00    -0.646 OA
HETATM   14  O7  UNL     1      84.665  -1.575  44.723  1.00  0.00    -0.646 OA
ENDBRANCH   1  12
TORSDOF 6
ENDMDL
