MODEL 5
REMARK VINA RESULT: -8.704072356      3.982      8.372
REMARK  6 active torsions:
REMARK  status: ('A' for Active; 'I' for Inactive)
REMARK    1  A    between atoms: C2_2  and  N1_4 
REMARK    2  A    between atoms: C6_7  and  N2_8 
REMARK       I    between atoms: N2_8  and  C7_10 
REMARK    3  A    between atoms: C7_10  and  C8_12 
REMARK    4  A    between atoms: N3_20  and  C16_21 
REMARK    5  A    between atoms: C16_21  and  C17_22 
REMARK    6  A    between atoms: C19_24  and  C20_25 
ROOT
HETATM    1  C8  UNL     1       4.976   5.831  22.328  1.00  0.00     0.104 A 
HETATM    2  C9  UNL     1       3.940   5.007  22.810  1.00  0.00     0.049 A 
HETATM    3  C10 UNL     1       3.153   5.702  23.698  1.00  0.00    -0.007 A 
HETATM    4  C11 UNL     1       2.031   5.376  24.443  1.00  0.00     0.014 A 
HETATM    5  C12 UNL     1       1.429   6.286  25.271  1.00  0.00     0.001 A 
HETATM    6  C13 UNL     1       2.000   7.559  25.329  1.00  0.00     0.002 A 
HETATM    7  C14 UNL     1       3.115   7.887  24.590  1.00  0.00     0.030 A 
HETATM    8  C15 UNL     1       3.708   6.959  23.760  1.00  0.00     0.045 A 
HETATM    9  N3  UNL     1       4.800   6.994  22.925  1.00  0.00    -0.336 N 
ENDROOT
BRANCH   1  10
HETATM   10  C7  UNL     1       5.925   5.295  21.377  1.00  0.00     0.268 C 
HETATM   11  N2  UNL     1       5.726   4.320  20.396  1.00  0.00    -0.351 N 
ATOM     12  H2  UNL     1       4.794   3.913  20.319  1.00  0.00     0.163 HD
HETATM   13  O1  UNL     1       7.137   5.729  21.374  1.00  0.00    -0.266 OA
BRANCH  11  14
HETATM   14  C6  UNL     1       6.739   3.843  19.484  1.00  0.00     0.088 C 
HETATM   15  C5  UNL     1       7.303   2.574  20.110  1.00  0.00     0.055 C 
HETATM   16  C4  UNL     1       7.747   1.593  19.049  1.00  0.00     0.275 C 
HETATM   17  N1  UNL     1       8.429   2.376  18.027  1.00  0.00     0.092 N 
HETATM   18  C25 UNL     1       7.457   3.101  17.284  1.00  0.00     0.275 C 
HETATM   19  C24 UNL     1       6.239   3.484  18.130  1.00  0.00     0.055 C 
BRANCH  17  20
HETATM   20  C2  UNL     1       9.321   1.558  17.252  1.00  0.00     0.215 C 
HETATM   21  C1  UNL     1       8.589   0.390  16.600  1.00  0.00     0.042 C 
HETATM   22  C3  UNL     1      10.415   0.978  18.100  1.00  0.00     0.042 C 
ENDBRANCH  17  20
ENDBRANCH  11  14
ENDBRANCH   1  10
BRANCH   9  23
HETATM   23  C16 UNL     1       5.589   8.181  22.780  1.00  0.00     0.188 C 
BRANCH  23  24
HETATM   24  C17 UNL     1       6.557   8.362  23.893  1.00  0.00     0.053 A 
HETATM   25  C18 UNL     1       7.789   7.789  24.071  1.00  0.00     0.069 A 
HETATM   26  C19 UNL     1       8.248   8.300  25.258  1.00  0.00     0.117 A 
HETATM   27  O2  UNL     1       7.354   9.111  25.742  1.00  0.00    -0.236 OA
HETATM   28  N4  UNL     1       6.358   9.159  24.954  1.00  0.00    -0.263 N 
ATOM     29  H4  UNL     1       5.523   9.724  25.107  1.00  0.00     0.194 HD
BRANCH  26  30
HETATM   30  C20 UNL     1       9.542   8.008  25.924  1.00  0.00     0.042 A 
HETATM   31  C21 UNL     1       9.751   7.245  27.041  1.00  0.00     0.024 A 
HETATM   32  C22 UNL     1      11.010   7.117  27.470  1.00  0.00     0.033 A 
HETATM   33  C23 UNL     1      11.988   7.757  26.758  1.00  0.00     0.075 A 
HETATM   34 CL1  UNL     1      13.731   7.766  27.086  1.00  0.00    -0.076 Cl
HETATM   35  S1  UNL     1      11.113   8.520  25.508  1.00  0.00    -0.075 SA
ENDBRANCH  26  30
ENDBRANCH  23  24
ENDBRANCH   9  23
TORSDOF 6
ENDMDL
