MODEL 4
REMARK VINA RESULT: -8.719395812      4.804      8.238
REMARK  6 active torsions:
REMARK  status: ('A' for Active; 'I' for Inactive)
REMARK    1  A    between atoms: C2_2  and  N1_4 
REMARK    2  A    between atoms: C6_7  and  N2_8 
REMARK       I    between atoms: N2_8  and  C7_10 
REMARK    3  A    between atoms: C7_10  and  C8_12 
REMARK    4  A    between atoms: N3_20  and  C16_21 
REMARK    5  A    between atoms: C16_21  and  C17_22 
REMARK    6  A    between atoms: C19_24  and  C20_25 
ROOT
HETATM    1  C8  UNL     1       6.291   3.501  20.351  1.00  0.00     0.104 A 
HETATM    2  C9  UNL     1       7.111   2.375  20.558  1.00  0.00     0.049 A 
HETATM    3  C10 UNL     1       7.934   2.178  19.473  1.00  0.00    -0.007 A 
HETATM    4  C11 UNL     1       8.908   1.242  19.166  1.00  0.00     0.014 A 
HETATM    5  C12 UNL     1       9.593   1.282  17.981  1.00  0.00     0.001 A 
HETATM    6  C13 UNL     1       9.266   2.312  17.097  1.00  0.00     0.002 A 
HETATM    7  C14 UNL     1       8.299   3.245  17.400  1.00  0.00     0.030 A 
HETATM    8  C15 UNL     1       7.618   3.190  18.598  1.00  0.00     0.045 A 
HETATM    9  N3  UNL     1       6.627   3.960  19.162  1.00  0.00    -0.336 N 
ENDROOT
BRANCH   1  10
HETATM   10  C7  UNL     1       5.345   3.888  21.375  1.00  0.00     0.268 C 
HETATM   11  N2  UNL     1       5.092   5.159  21.898  1.00  0.00    -0.351 N 
ATOM     12  H2  UNL     1       5.634   5.938  21.525  1.00  0.00     0.163 HD
HETATM   13  O1  UNL     1       4.601   2.993  21.925  1.00  0.00    -0.266 OA
BRANCH  11  14
HETATM   14  C6  UNL     1       4.121   5.453  22.926  1.00  0.00     0.088 C 
HETATM   15  C5  UNL     1       4.685   6.632  23.708  1.00  0.00     0.055 C 
HETATM   16  C4  UNL     1       3.577   7.510  24.245  1.00  0.00     0.275 C 
HETATM   17  N1  UNL     1       2.548   6.609  24.748  1.00  0.00     0.092 N 
HETATM   18  C25 UNL     1       1.871   6.027  23.642  1.00  0.00     0.275 C 
HETATM   19  C24 UNL     1       2.781   5.855  22.422  1.00  0.00     0.055 C 
BRANCH  17  20
HETATM   20  C2  UNL     1       1.710   7.262  25.717  1.00  0.00     0.215 C 
HETATM   21  C1  UNL     1       0.245   6.877  25.542  1.00  0.00     0.042 C 
HETATM   22  C3  UNL     1       1.793   8.756  25.599  1.00  0.00     0.042 C 
ENDBRANCH  17  20
ENDBRANCH  11  14
ENDBRANCH   1  10
BRANCH   9  23
HETATM   23  C16 UNL     1       6.088   5.097  18.478  1.00  0.00     0.188 C 
BRANCH  23  24
HETATM   24  C17 UNL     1       6.654   6.381  18.971  1.00  0.00     0.053 A 
HETATM   25  C18 UNL     1       6.108   7.637  18.938  1.00  0.00     0.069 A 
HETATM   26  C19 UNL     1       7.050   8.447  19.520  1.00  0.00     0.117 A 
HETATM   27  O2  UNL     1       8.072   7.722  19.868  1.00  0.00    -0.236 OA
HETATM   28  N4  UNL     1       7.855   6.510  19.554  1.00  0.00    -0.263 N 
ATOM     29  H4  UNL     1       8.504   5.741  19.721  1.00  0.00     0.194 HD
BRANCH  26  30
HETATM   30  C20 UNL     1       6.966   9.912  19.740  1.00  0.00     0.042 A 
HETATM   31  C21 UNL     1       7.842  10.703  20.433  1.00  0.00     0.024 A 
HETATM   32  C22 UNL     1       7.567  12.009  20.504  1.00  0.00     0.033 A 
HETATM   33  C23 UNL     1       6.432  12.450  19.879  1.00  0.00     0.075 A 
HETATM   34 CL1  UNL     1       5.818  14.112  19.804  1.00  0.00    -0.076 Cl
HETATM   35  S1  UNL     1       5.785  11.020  19.209  1.00  0.00    -0.075 SA
ENDBRANCH  26  30
ENDBRANCH  23  24
ENDBRANCH   9  23
TORSDOF 6
ENDMDL
