MODEL 3
REMARK VINA RESULT: -8.905694784      3.528      7.402
REMARK  6 active torsions:
REMARK  status: ('A' for Active; 'I' for Inactive)
REMARK    1  A    between atoms: C2_2  and  N1_4 
REMARK    2  A    between atoms: C6_7  and  N2_8 
REMARK       I    between atoms: N2_8  and  C7_10 
REMARK    3  A    between atoms: C7_10  and  C8_12 
REMARK    4  A    between atoms: N3_20  and  C16_21 
REMARK    5  A    between atoms: C16_21  and  C17_22 
REMARK    6  A    between atoms: C19_24  and  C20_25 
ROOT
HETATM    1  C8  UNL     1       7.796   8.335  25.308  1.00  0.00     0.104 A 
HETATM    2  C9  UNL     1       8.288   7.629  26.423  1.00  0.00     0.049 A 
HETATM    3  C10 UNL     1       9.660   7.716  26.475  1.00  0.00    -0.007 A 
HETATM    4  C11 UNL     1      10.620   7.220  27.341  1.00  0.00     0.014 A 
HETATM    5  C12 UNL     1      11.954   7.466  27.152  1.00  0.00     0.001 A 
HETATM    6  C13 UNL     1      12.301   8.241  26.044  1.00  0.00     0.002 A 
HETATM    7  C14 UNL     1      11.349   8.737  25.181  1.00  0.00     0.030 A 
HETATM    8  C15 UNL     1      10.010   8.480  25.386  1.00  0.00     0.045 A 
HETATM    9  N3  UNL     1       8.863   8.830  24.713  1.00  0.00    -0.336 N 
ENDROOT
BRANCH   1  10
HETATM   10  C7  UNL     1       6.370   8.372  25.064  1.00  0.00     0.268 C 
HETATM   11  N2  UNL     1       5.506   7.316  24.762  1.00  0.00    -0.351 N 
ATOM     12  H2  UNL     1       5.908   6.382  24.697  1.00  0.00     0.163 HD
HETATM   13  O1  UNL     1       5.744   9.495  25.117  1.00  0.00    -0.266 OA
BRANCH  11  14
HETATM   14  C6  UNL     1       4.086   7.448  24.533  1.00  0.00     0.088 C 
HETATM   15  C5  UNL     1       3.642   6.139  23.892  1.00  0.00     0.055 C 
HETATM   16  C4  UNL     1       2.220   5.797  24.278  1.00  0.00     0.275 C 
HETATM   17  N1  UNL     1       1.467   7.042  24.205  1.00  0.00     0.092 N 
HETATM   18  C25 UNL     1       1.822   7.855  25.317  1.00  0.00     0.275 C 
HETATM   19  C24 UNL     1       3.271   7.637  25.763  1.00  0.00     0.055 C 
BRANCH  17  20
HETATM   20  C2  UNL     1       0.061   6.792  24.042  1.00  0.00     0.215 C 
HETATM   21  C1  UNL     1      -0.622   6.529  25.380  1.00  0.00     0.042 C 
HETATM   22  C3  UNL     1      -0.190   5.594  23.174  1.00  0.00     0.042 C 
ENDBRANCH  17  20
ENDBRANCH  11  14
ENDBRANCH   1  10
BRANCH   9  23
HETATM   23  C16 UNL     1       8.911   9.631  23.526  1.00  0.00     0.188 C 
BRANCH  23  24
HETATM   24  C17 UNL     1       8.695   8.833  22.290  1.00  0.00     0.053 A 
HETATM   25  C18 UNL     1       7.924   7.716  22.105  1.00  0.00     0.069 A 
HETATM   26  C19 UNL     1       8.086   7.390  20.782  1.00  0.00     0.117 A 
HETATM   27  O2  UNL     1       8.891   8.251  20.232  1.00  0.00    -0.236 OA
HETATM   28  N4  UNL     1       9.256   9.103  21.102  1.00  0.00    -0.263 N 
ATOM     29  H4  UNL     1       9.888   9.883  20.922  1.00  0.00     0.194 HD
BRANCH  26  30
HETATM   30  C20 UNL     1       7.469   6.256  20.052  1.00  0.00     0.042 A 
HETATM   31  C21 UNL     1       6.965   6.259  18.779  1.00  0.00     0.024 A 
HETATM   32  C22 UNL     1       6.451   5.114  18.319  1.00  0.00     0.033 A 
HETATM   33  C23 UNL     1       6.473   4.031  19.156  1.00  0.00     0.075 A 
HETATM   34 CL1  UNL     1       5.870   2.397  18.822  1.00  0.00    -0.076 Cl
HETATM   35  S1  UNL     1       7.212   4.651  20.563  1.00  0.00    -0.075 SA
ENDBRANCH  26  30
ENDBRANCH  23  24
ENDBRANCH   9  23
TORSDOF 6
ENDMDL
