MODEL 1
REMARK VINA RESULT: -9.335663420      0.000      0.000
REMARK  6 active torsions:
REMARK  status: ('A' for Active; 'I' for Inactive)
REMARK    1  A    between atoms: C2_2  and  N1_4 
REMARK    2  A    between atoms: C6_7  and  N2_8 
REMARK       I    between atoms: N2_8  and  C7_10 
REMARK    3  A    between atoms: C7_10  and  C8_12 
REMARK    4  A    between atoms: N3_20  and  C16_21 
REMARK    5  A    between atoms: C16_21  and  C17_22 
REMARK    6  A    between atoms: C19_24  and  C20_25 
ROOT
HETATM    1  C8  UNL     1       6.943   9.758  21.114  1.00  0.00     0.104 A 
HETATM    2  C9  UNL     1       7.153  11.086  20.694  1.00  0.00     0.049 A 
HETATM    3  C10 UNL     1       6.169  11.466  19.809  1.00  0.00    -0.007 A 
HETATM    4  C11 UNL     1       5.907  12.634  19.113  1.00  0.00     0.014 A 
HETATM    5  C12 UNL     1       4.829  12.745  18.276  1.00  0.00     0.001 A 
HETATM    6  C13 UNL     1       4.004  11.623  18.159  1.00  0.00     0.002 A 
HETATM    7  C14 UNL     1       4.262  10.461  18.851  1.00  0.00     0.030 A 
HETATM    8  C15 UNL     1       5.353  10.367  19.689  1.00  0.00     0.045 A 
HETATM    9  N3  UNL     1       5.852   9.364  20.487  1.00  0.00    -0.336 N 
ENDROOT
BRANCH   1  10
HETATM   10  C7  UNL     1       7.867   9.156  22.051  1.00  0.00     0.268 C 
HETATM   11  N2  UNL     1       7.945   9.325  23.436  1.00  0.00    -0.351 N 
ATOM     12  H2  UNL     1       7.270   9.954  23.872  1.00  0.00     0.163 HD
HETATM   13  O1  UNL     1       8.768   8.343  21.622  1.00  0.00    -0.266 OA
BRANCH  11  14
HETATM   14  C6  UNL     1       8.907   8.679  24.297  1.00  0.00     0.088 C 
HETATM   15  C5  UNL     1      10.122   9.597  24.331  1.00  0.00     0.055 C 
HETATM   16  C4  UNL     1      10.832   9.512  25.664  1.00  0.00     0.275 C 
HETATM   17  N1  UNL     1      10.861   8.101  26.022  1.00  0.00     0.092 N 
HETATM   18  C25 UNL     1       9.557   7.706  26.427  1.00  0.00     0.275 C 
HETATM   19  C24 UNL     1       8.457   8.487  25.701  1.00  0.00     0.055 C 
BRANCH  17  20
HETATM   20  C2  UNL     1      11.914   7.822  26.961  1.00  0.00     0.215 C 
HETATM   21  C1  UNL     1      13.241   7.561  26.255  1.00  0.00     0.042 C 
HETATM   22  C3  UNL     1      11.607   6.610  27.790  1.00  0.00     0.042 C 
ENDBRANCH  17  20
ENDBRANCH  11  14
ENDBRANCH   1  10
BRANCH   9  23
HETATM   23  C16 UNL     1       5.209   8.087  20.569  1.00  0.00     0.188 C 
BRANCH  23  24
HETATM   24  C17 UNL     1       5.948   7.028  19.832  1.00  0.00     0.053 A 
HETATM   25  C18 UNL     1       6.367   5.800  20.272  1.00  0.00     0.069 A 
HETATM   26  C19 UNL     1       6.996   5.233  19.192  1.00  0.00     0.117 A 
HETATM   27  O2  UNL     1       6.950   6.066  18.194  1.00  0.00    -0.236 OA
HETATM   28  N4  UNL     1       6.339   7.121  18.552  1.00  0.00    -0.263 N 
ATOM     29  H4  UNL     1       6.170   7.927  17.951  1.00  0.00     0.194 HD
BRANCH  26  30
HETATM   30  C20 UNL     1       7.638   3.898  19.123  1.00  0.00     0.042 A 
HETATM   31  C21 UNL     1       7.189   2.727  19.672  1.00  0.00     0.024 A 
HETATM   32  C22 UNL     1       7.935   1.634  19.483  1.00  0.00     0.033 A 
HETATM   33  C23 UNL     1       9.086   1.773  18.754  1.00  0.00     0.075 A 
HETATM   34 CL1  UNL     1      10.262   0.511  18.344  1.00  0.00    -0.076 Cl
HETATM   35  S1  UNL     1       9.088   3.432  18.357  1.00  0.00    -0.075 SA
ENDBRANCH  26  30
ENDBRANCH  23  24
ENDBRANCH   9  23
TORSDOF 6
ENDMDL
