MODEL 8
REMARK VINA RESULT: -4.663504929      1.727      3.281
REMARK  4 active torsions:
REMARK  status: ('A' for Active; 'I' for Inactive)
REMARK    1  A    between atoms: O1_2  and  C2_3 
REMARK    2  A    between atoms: C4_6  and  O3_7 
REMARK    3  A    between atoms: C5_9  and  O4_10 
REMARK    4  A    between atoms: C6_12  and  O5_13 
ROOT
HETATM    1  C2  UNL     1      22.346  22.819  29.978  1.00  0.00     0.290 C 
HETATM    2  O2  UNL     1      21.393  22.131  30.740  1.00  0.00    -0.356 OA
HETATM    3  C3  UNL     1      21.279  20.859  30.151  1.00  0.00     0.205 C 
HETATM    4  C4  UNL     1      20.411  20.998  28.941  1.00  0.00     0.173 C 
HETATM    5  C5  UNL     1      20.491  22.431  28.443  1.00  0.00     0.182 C 
HETATM    6  C6  UNL     1      21.943  22.853  28.541  1.00  0.00     0.204 C 
ENDROOT
BRANCH   1   7
HETATM    7  O1  UNL     1      23.570  22.214  30.204  1.00  0.00    -0.363 OA
HETATM    8  C1  UNL     1      24.235  22.797  31.289  1.00  0.00     0.204 C 
ENDBRANCH   1   7
BRANCH   6   9
HETATM    9  O5  UNL     1      22.675  21.986  27.739  1.00  0.00    -0.388 OA
ATOM     10  H5  UNL     1      22.218  21.724  26.949  1.00  0.00     0.210 HD
ENDBRANCH   6   9
BRANCH   5  11
HETATM   11  O4  UNL     1      19.740  23.227  29.286  1.00  0.00    -0.390 OA
ATOM     12  H4  UNL     1      19.919  24.137  29.078  1.00  0.00     0.210 HD
ENDBRANCH   5  11
BRANCH   4  13
HETATM   13  O3  UNL     1      19.082  20.703  29.286  1.00  0.00    -0.391 OA
ATOM     14  H3  UNL     1      18.787  19.953  28.785  1.00  0.00     0.210 HD
ENDBRANCH   4  13
TORSDOF 4
ENDMDL
