MODEL 2
REMARK VINA RESULT: -5.191710929      1.712      2.885
REMARK  4 active torsions:
REMARK  status: ('A' for Active; 'I' for Inactive)
REMARK    1  A    between atoms: O1_2  and  C2_3 
REMARK    2  A    between atoms: C4_6  and  O3_7 
REMARK    3  A    between atoms: C5_9  and  O4_10 
REMARK    4  A    between atoms: C6_12  and  O5_13 
ROOT
HETATM    1  C2  UNL     1      22.863  21.638  30.285  1.00  0.00     0.290 C 
HETATM    2  O2  UNL     1      21.744  22.150  30.952  1.00  0.00    -0.356 OA
HETATM    3  C3  UNL     1      20.642  21.428  30.459  1.00  0.00     0.205 C 
HETATM    4  C4  UNL     1      20.283  22.005  29.127  1.00  0.00     0.173 C 
HETATM    5  C5  UNL     1      21.516  22.664  28.531  1.00  0.00     0.182 C 
HETATM    6  C6  UNL     1      22.686  21.741  28.806  1.00  0.00     0.204 C 
ENDROOT
BRANCH   1   7
HETATM    7  O1  UNL     1      23.058  20.344  30.737  1.00  0.00    -0.363 OA
HETATM    8  C1  UNL     1      24.246  20.234  31.470  1.00  0.00     0.204 C 
ENDBRANCH   1   7
BRANCH   6   9
HETATM    9  O5  UNL     1      22.402  20.527  28.195  1.00  0.00    -0.388 OA
ATOM     10  H5  UNL     1      21.972  20.618  27.352  1.00  0.00     0.210 HD
ENDBRANCH   6   9
BRANCH   5  11
HETATM   11  O4  UNL     1      21.730  23.861  29.185  1.00  0.00    -0.390 OA
ATOM     12  H4  UNL     1      21.589  24.569  28.568  1.00  0.00     0.210 HD
ENDBRANCH   5  11
BRANCH   4  13
HETATM   13  O3  UNL     1      19.279  22.973  29.296  1.00  0.00    -0.391 OA
ATOM     14  H3  UNL     1      19.094  23.383  28.460  1.00  0.00     0.210 HD
ENDBRANCH   4  13
TORSDOF 4
ENDMDL
