MODEL 5
REMARK VINA RESULT: -6.929928083      2.405      7.446
REMARK  6 active torsions:
REMARK  status: ('A' for Active; 'I' for Inactive)
REMARK    1  A    between atoms: N1_2  and  C4_5 
REMARK    2  A    between atoms: C4_5  and  C5_6 
REMARK    3  A    between atoms: C5_6  and  C6_7 
REMARK    4  A    between atoms: C6_7  and  N2_8 
REMARK    5  A    between atoms: C15_20  and  C16_21 
REMARK    6  A    between atoms: C19_24  and  C20_25 
ROOT
HETATM    1  N2  UNL     1      -5.090  10.544  21.195  1.00  0.00    -0.288 N 
HETATM    2  C7  UNL     1      -6.450  10.260  21.498  1.00  0.00     0.234 C 
HETATM    3  O1  UNL     1      -6.876   9.207  22.036  1.00  0.00    -0.272 OA
HETATM    4  C8  UNL     1      -7.272  11.393  21.081  1.00  0.00     0.131 C 
HETATM    5  C9  UNL     1      -6.320  12.443  20.582  1.00  0.00     0.127 C 
HETATM    6  C10 UNL     1      -5.040  11.690  20.340  1.00  0.00     0.233 C 
HETATM    7  O2  UNL     1      -4.110  11.998  19.550  1.00  0.00    -0.272 OA
HETATM    8  C11 UNL     1      -6.833  12.855  19.230  1.00  0.00     0.237 C 
HETATM    9  C12 UNL     1      -7.978  13.838  19.307  1.00  0.00     0.038 C 
HETATM   10  C13 UNL     1      -8.679  13.598  17.987  1.00  0.00     0.032 C 
HETATM   11  C14 UNL     1      -8.457  12.140  17.748  1.00  0.00     0.274 C 
HETATM   12  N3  UNL     1      -7.517  11.662  18.736  1.00  0.00     0.103 N 
HETATM   13  C15 UNL     1      -8.152  11.108  19.892  1.00  0.00     0.270 C 
ENDROOT
BRANCH  13  14
HETATM   14  C16 UNL     1      -8.495   9.673  19.770  1.00  0.00    -0.024 A 
HETATM   15  C17 UNL     1      -9.628   9.171  20.371  1.00  0.00     0.010 A 
HETATM   16  C18 UNL     1      -9.942   7.835  20.255  1.00  0.00     0.015 A 
HETATM   17  C19 UNL     1      -9.163   6.927  19.543  1.00  0.00     0.004 A 
HETATM   18  C21 UNL     1      -8.038   7.458  18.952  1.00  0.00     0.015 A 
HETATM   19  C22 UNL     1      -7.705   8.799  19.058  1.00  0.00     0.010 A 
BRANCH  17  20
HETATM   20  C20 UNL     1      -9.544   5.542  19.457  1.00  0.00     0.120 C 
HETATM   21  N4  UNL     1      -8.893   4.596  20.293  1.00  0.00    -0.082 NA
HETATM   22  N5  UNL     1     -10.442   5.121  18.664  1.00  0.00    -0.387 N 
ATOM     23  H52 UNL     1     -10.910   5.800  18.064  1.00  0.00     0.157 HD
ATOM     24  H51 UNL     1     -10.713   4.139  18.603  1.00  0.00     0.157 HD
ENDBRANCH  17  20
ENDBRANCH  13  14
BRANCH   1  25
HETATM   25  C6  UNL     1      -3.936   9.820  21.656  1.00  0.00     0.137 C 
BRANCH  25  26
HETATM   26  C5  UNL     1      -3.082  10.634  22.571  1.00  0.00     0.048 C 
BRANCH  26  27
HETATM   27  C4  UNL     1      -3.504  10.391  24.005  1.00  0.00     0.237 C 
BRANCH  27  28
HETATM   28  N1  UNL     1      -2.419  10.639  24.934  1.00  0.00    -0.079 N 
HETATM   29  C1  UNL     1      -1.443  11.564  24.409  1.00  0.00     0.271 C 
HETATM   30  C2  UNL     1      -2.890  11.084  26.220  1.00  0.00     0.271 C 
HETATM   31  C3  UNL     1      -1.739   9.370  25.135  1.00  0.00     0.271 C 
ENDBRANCH  27  28
ENDBRANCH  26  27
ENDBRANCH  25  26
ENDBRANCH   1  25
TORSDOF 6
ENDMDL
