MODEL 1
REMARK VINA RESULT: -7.939598825      0.000      0.000
REMARK  6 active torsions:
REMARK  status: ('A' for Active; 'I' for Inactive)
REMARK    1  A    between atoms: N1_2  and  C4_5 
REMARK    2  A    between atoms: C4_5  and  C5_6 
REMARK    3  A    between atoms: C5_6  and  C6_7 
REMARK    4  A    between atoms: C6_7  and  N2_8 
REMARK    5  A    between atoms: C15_20  and  C16_21 
REMARK    6  A    between atoms: C19_24  and  C20_25 
ROOT
HETATM    1  N2  UNL     1      -5.648  11.855  22.091  1.00  0.00    -0.288 N 
HETATM    2  C7  UNL     1      -4.675  10.857  22.377  1.00  0.00     0.234 C 
HETATM    3  O1  UNL     1      -4.851   9.852  23.113  1.00  0.00    -0.272 OA
HETATM    4  C8  UNL     1      -3.437  11.191  21.678  1.00  0.00     0.131 C 
HETATM    5  C9  UNL     1      -3.734  12.417  20.860  1.00  0.00     0.127 C 
HETATM    6  C10 UNL     1      -4.996  12.965  21.468  1.00  0.00     0.233 C 
HETATM    7  O2  UNL     1      -5.403  14.155  21.439  1.00  0.00    -0.272 OA
HETATM    8  C11 UNL     1      -2.643  13.400  21.183  1.00  0.00     0.237 C 
HETATM    9  C12 UNL     1      -1.361  13.128  20.431  1.00  0.00     0.038 C 
HETATM   10  C13 UNL     1      -0.331  13.769  21.337  1.00  0.00     0.032 C 
HETATM   11  C14 UNL     1      -0.906  13.561  22.700  1.00  0.00     0.274 C 
HETATM   12  N3  UNL     1      -2.250  13.052  22.547  1.00  0.00     0.103 N 
HETATM   13  C15 UNL     1      -2.316  11.624  22.586  1.00  0.00     0.270 C 
ENDROOT
BRANCH  13  14
HETATM   14  C16 UNL     1      -2.438  11.058  23.949  1.00  0.00    -0.024 A 
HETATM   15  C17 UNL     1      -1.884   9.833  24.250  1.00  0.00     0.010 A 
HETATM   16  C18 UNL     1      -2.000   9.311  25.518  1.00  0.00     0.015 A 
HETATM   17  C19 UNL     1      -2.664   9.962  26.554  1.00  0.00     0.004 A 
HETATM   18  C21 UNL     1      -3.208  11.184  26.224  1.00  0.00     0.015 A 
HETATM   19  C22 UNL     1      -3.101  11.726  24.953  1.00  0.00     0.010 A 
BRANCH  17  20
HETATM   20  C20 UNL     1      -2.752   9.364  27.860  1.00  0.00     0.120 C 
HETATM   21  N4  UNL     1      -1.965   8.217  28.145  1.00  0.00    -0.082 NA
HETATM   22  N5  UNL     1      -3.506   9.816  28.777  1.00  0.00    -0.387 N 
ATOM     23  H52 UNL     1      -4.071  10.640  28.572  1.00  0.00     0.157 HD
ATOM     24  H51 UNL     1      -3.568   9.392  29.703  1.00  0.00     0.157 HD
ENDBRANCH  17  20
ENDBRANCH  13  14
BRANCH   1  25
HETATM   25  C6  UNL     1      -7.057  11.787  22.368  1.00  0.00     0.137 C 
BRANCH  25  26
HETATM   26  C5  UNL     1      -7.816  11.085  21.291  1.00  0.00     0.048 C 
BRANCH  26  27
HETATM   27  C4  UNL     1      -8.209   9.703  21.768  1.00  0.00     0.237 C 
BRANCH  27  28
HETATM   28  N1  UNL     1      -8.214   8.741  20.684  1.00  0.00    -0.079 N 
HETATM   29  C1  UNL     1      -6.885   8.443  20.204  1.00  0.00     0.271 C 
HETATM   30  C2  UNL     1      -8.904   7.527  21.033  1.00  0.00     0.271 C 
HETATM   31  C3  UNL     1      -8.939   9.353  19.582  1.00  0.00     0.271 C 
ENDBRANCH  27  28
ENDBRANCH  26  27
ENDBRANCH  25  26
ENDBRANCH   1  25
TORSDOF 6
ENDMDL
