MODEL 4
REMARK VINA RESULT: -6.999897356      1.257      1.500
REMARK  6 active torsions:
REMARK  status: ('A' for Active; 'I' for Inactive)
REMARK    1  A    between atoms: N1_2  and  C4_5 
REMARK    2  A    between atoms: C4_5  and  C5_6 
REMARK    3  A    between atoms: C5_6  and  C6_7 
REMARK    4  A    between atoms: C6_7  and  N2_8 
REMARK    5  A    between atoms: C15_20  and  C16_21 
REMARK    6  A    between atoms: C19_24  and  C20_25 
ROOT
HETATM    1  N2  UNL     1      -6.869  11.130  21.830  1.00  0.00    -0.288 N 
HETATM    2  C7  UNL     1      -5.659  10.401  22.001  1.00  0.00     0.234 C 
HETATM    3  O1  UNL     1      -5.471   9.478  22.833  1.00  0.00    -0.272 OA
HETATM    4  C8  UNL     1      -4.670  10.903  21.050  1.00  0.00     0.131 C 
HETATM    5  C9  UNL     1      -5.375  11.931  20.211  1.00  0.00     0.127 C 
HETATM    6  C10 UNL     1      -6.606  12.269  21.007  1.00  0.00     0.233 C 
HETATM    7  O2  UNL     1      -7.274  13.335  20.964  1.00  0.00    -0.272 OA
HETATM    8  C11 UNL     1      -4.501  13.153  20.238  1.00  0.00     0.237 C 
HETATM    9  C12 UNL     1      -3.339  13.070  19.275  1.00  0.00     0.038 C 
HETATM   10  C13 UNL     1      -2.344  14.018  19.911  1.00  0.00     0.032 C 
HETATM   11  C14 UNL     1      -2.614  13.859  21.372  1.00  0.00     0.274 C 
HETATM   12  N3  UNL     1      -3.810  13.063  21.523  1.00  0.00     0.103 N 
HETATM   13  C15 UNL     1      -3.540  11.669  21.687  1.00  0.00     0.270 C 
ENDROOT
BRANCH  13  14
HETATM   14  C16 UNL     1      -3.293  11.258  23.088  1.00  0.00    -0.024 A 
HETATM   15  C17 UNL     1      -2.436  10.217  23.371  1.00  0.00     0.010 A 
HETATM   16  C18 UNL     1      -2.210   9.838  24.676  1.00  0.00     0.015 A 
HETATM   17  C19 UNL     1      -2.812  10.461  25.767  1.00  0.00     0.004 A 
HETATM   18  C21 UNL     1      -3.663  11.497  25.452  1.00  0.00     0.015 A 
HETATM   19  C22 UNL     1      -3.903  11.893  24.146  1.00  0.00     0.010 A 
BRANCH  17  20
HETATM   20  C20 UNL     1      -2.535  10.019  27.107  1.00  0.00     0.120 C 
HETATM   21  N4  UNL     1      -1.282   9.413  27.388  1.00  0.00    -0.082 NA
HETATM   22  N5  UNL     1      -3.365  10.144  28.060  1.00  0.00    -0.387 N 
ATOM     23  H52 UNL     1      -4.266  10.579  27.859  1.00  0.00     0.157 HD
ATOM     24  H51 UNL     1      -3.169   9.831  29.012  1.00  0.00     0.157 HD
ENDBRANCH  17  20
ENDBRANCH  13  14
BRANCH   1  25
HETATM   25  C6  UNL     1      -8.156  10.800  22.379  1.00  0.00     0.137 C 
BRANCH  25  26
HETATM   26  C5  UNL     1      -8.984   9.986  21.441  1.00  0.00     0.048 C 
BRANCH  26  27
HETATM   27  C4  UNL     1      -8.730   8.514  21.690  1.00  0.00     0.237 C 
BRANCH  27  28
HETATM   28  N1  UNL     1      -8.637   7.767  20.452  1.00  0.00    -0.079 N 
HETATM   29  C1  UNL     1      -7.271   7.580  20.022  1.00  0.00     0.271 C 
HETATM   30  C2  UNL     1      -9.317   6.500  20.523  1.00  0.00     0.271 C 
HETATM   31  C3  UNL     1      -9.300   8.561  19.430  1.00  0.00     0.271 C 
ENDBRANCH  27  28
ENDBRANCH  26  27
ENDBRANCH  25  26
ENDBRANCH   1  25
TORSDOF 6
ENDMDL
