MODEL 2
REMARK VINA RESULT: -7.841983356      2.035      3.525
REMARK  6 active torsions:
REMARK  status: ('A' for Active; 'I' for Inactive)
REMARK    1  A    between atoms: N1_2  and  C4_5 
REMARK    2  A    between atoms: C4_5  and  C5_6 
REMARK    3  A    between atoms: C5_6  and  C6_7 
REMARK    4  A    between atoms: C6_7  and  N2_8 
REMARK    5  A    between atoms: C15_20  and  C16_21 
REMARK    6  A    between atoms: C19_24  and  C20_25 
ROOT
HETATM    1  N2  UNL     1      -5.557  12.440  22.475  1.00  0.00    -0.288 N 
HETATM    2  C7  UNL     1      -4.707  11.311  22.638  1.00  0.00     0.234 C 
HETATM    3  O1  UNL     1      -4.967  10.293  23.329  1.00  0.00    -0.272 OA
HETATM    4  C8  UNL     1      -3.482  11.529  21.873  1.00  0.00     0.131 C 
HETATM    5  C9  UNL     1      -3.666  12.831  21.146  1.00  0.00     0.127 C 
HETATM    6  C10 UNL     1      -4.806  13.496  21.870  1.00  0.00     0.233 C 
HETATM    7  O2  UNL     1      -5.054  14.728  21.934  1.00  0.00    -0.272 OA
HETATM    8  C11 UNL     1      -2.439  13.646  21.444  1.00  0.00     0.237 C 
HETATM    9  C12 UNL     1      -1.252  13.262  20.590  1.00  0.00     0.038 C 
HETATM   10  C13 UNL     1      -0.093  13.709  21.456  1.00  0.00     0.032 C 
HETATM   11  C14 UNL     1      -0.604  13.490  22.842  1.00  0.00     0.274 C 
HETATM   12  N3  UNL     1      -2.010  13.166  22.756  1.00  0.00     0.103 N 
HETATM   13  C15 UNL     1      -2.260  11.758  22.723  1.00  0.00     0.270 C 
ENDROOT
BRANCH  13  14
HETATM   14  C16 UNL     1      -2.370  11.128  24.058  1.00  0.00    -0.024 A 
HETATM   15  C17 UNL     1      -1.907   9.847  24.267  1.00  0.00     0.010 A 
HETATM   16  C18 UNL     1      -2.011   9.265  25.510  1.00  0.00     0.015 A 
HETATM   17  C19 UNL     1      -2.573   9.909  26.610  1.00  0.00     0.004 A 
HETATM   18  C21 UNL     1      -3.026  11.187  26.371  1.00  0.00     0.015 A 
HETATM   19  C22 UNL     1      -2.930  11.790  25.127  1.00  0.00     0.010 A 
BRANCH  17  20
HETATM   20  C20 UNL     1      -2.654   9.247  27.885  1.00  0.00     0.120 C 
HETATM   21  N4  UNL     1      -1.874   8.080  28.105  1.00  0.00    -0.082 NA
HETATM   22  N5  UNL     1      -3.395   9.658  28.830  1.00  0.00    -0.387 N 
ATOM     23  H52 UNL     1      -3.955  10.496  28.672  1.00  0.00     0.157 HD
ATOM     24  H51 UNL     1      -3.452   9.189  29.734  1.00  0.00     0.157 HD
ENDBRANCH  17  20
ENDBRANCH  13  14
BRANCH   1  25
HETATM   25  C6  UNL     1      -6.943  12.535  22.846  1.00  0.00     0.137 C 
BRANCH  25  26
HETATM   26  C5  UNL     1      -7.124  12.834  24.297  1.00  0.00     0.048 C 
BRANCH  26  27
HETATM   27  C4  UNL     1      -7.470  14.298  24.472  1.00  0.00     0.237 C 
BRANCH  27  28
HETATM   28  N1  UNL     1      -6.755  14.891  25.584  1.00  0.00    -0.079 N 
HETATM   29  C1  UNL     1      -7.643  15.450  26.576  1.00  0.00     0.271 C 
HETATM   30  C2  UNL     1      -5.835  13.970  26.198  1.00  0.00     0.271 C 
HETATM   31  C3  UNL     1      -5.974  15.991  25.042  1.00  0.00     0.271 C 
ENDBRANCH  27  28
ENDBRANCH  26  27
ENDBRANCH  25  26
ENDBRANCH   1  25
TORSDOF 6
ENDMDL
