MODEL 3
REMARK VINA RESULT: -7.592304787      2.400      6.369
REMARK  6 active torsions:
REMARK  status: ('A' for Active; 'I' for Inactive)
REMARK    1  A    between atoms: N1_2  and  C4_5 
REMARK    2  A    between atoms: C4_5  and  C5_6 
REMARK    3  A    between atoms: C5_6  and  C6_7 
REMARK    4  A    between atoms: C6_7  and  N2_8 
REMARK    5  A    between atoms: C15_20  and  C16_21 
REMARK    6  A    between atoms: C19_24  and  C20_25 
ROOT
HETATM    1  N2  UNL     1      -2.077  13.448  21.331  1.00  0.00    -0.288 N 
HETATM    2  C7  UNL     1      -3.010  13.411  22.405  1.00  0.00     0.234 C 
HETATM    3  O1  UNL     1      -2.744  13.631  23.613  1.00  0.00    -0.272 OA
HETATM    4  C8  UNL     1      -4.327  13.074  21.871  1.00  0.00     0.131 C 
HETATM    5  C9  UNL     1      -4.170  12.995  20.379  1.00  0.00     0.127 C 
HETATM    6  C10 UNL     1      -2.685  12.867  20.175  1.00  0.00     0.233 C 
HETATM    7  O2  UNL     1      -2.091  12.356  19.190  1.00  0.00    -0.272 OA
HETATM    8  C11 UNL     1      -4.772  11.679  19.971  1.00  0.00     0.237 C 
HETATM    9  C12 UNL     1      -6.279  11.723  19.875  1.00  0.00     0.038 C 
HETATM   10  C13 UNL     1      -6.643  10.269  20.088  1.00  0.00     0.032 C 
HETATM   11  C14 UNL     1      -5.585   9.791  21.029  1.00  0.00     0.274 C 
HETATM   12  N3  UNL     1      -4.588  10.830  21.146  1.00  0.00     0.103 N 
HETATM   13  C15 UNL     1      -4.814  11.702  22.257  1.00  0.00     0.270 C 
ENDROOT
BRANCH  13  14
HETATM   14  C16 UNL     1      -4.226  11.229  23.532  1.00  0.00    -0.024 A 
HETATM   15  C17 UNL     1      -4.788  11.589  24.737  1.00  0.00     0.010 A 
HETATM   16  C18 UNL     1      -4.238  11.147  25.919  1.00  0.00     0.015 A 
HETATM   17  C19 UNL     1      -3.112  10.329  25.979  1.00  0.00     0.004 A 
HETATM   18  C21 UNL     1      -2.574   9.985  24.759  1.00  0.00     0.015 A 
HETATM   19  C22 UNL     1      -3.113  10.420  23.559  1.00  0.00     0.010 A 
BRANCH  17  20
HETATM   20  C20 UNL     1      -2.585   9.899  27.246  1.00  0.00     0.120 C 
HETATM   21  N4  UNL     1      -1.230   9.479  27.321  1.00  0.00    -0.082 NA
HETATM   22  N5  UNL     1      -3.277   9.876  28.310  1.00  0.00    -0.387 N 
ATOM     23  H52 UNL     1      -4.250  10.177  28.257  1.00  0.00     0.157 HD
ATOM     24  H51 UNL     1      -2.903   9.571  29.209  1.00  0.00     0.157 HD
ENDBRANCH  17  20
ENDBRANCH  13  14
BRANCH   1  25
HETATM   25  C6  UNL     1      -0.739  13.974  21.372  1.00  0.00     0.137 C 
BRANCH  25  26
HETATM   26  C5  UNL     1      -0.682  15.413  20.977  1.00  0.00     0.048 C 
BRANCH  26  27
HETATM   27  C4  UNL     1       0.689  15.970  21.296  1.00  0.00     0.237 C 
BRANCH  27  28
HETATM   28  N1  UNL     1       0.897  17.270  20.689  1.00  0.00    -0.079 N 
HETATM   29  C1  UNL     1      -0.344  17.925  20.351  1.00  0.00     0.271 C 
HETATM   30  C2  UNL     1       1.713  18.131  21.504  1.00  0.00     0.271 C 
HETATM   31  C3  UNL     1       1.612  17.043  19.444  1.00  0.00     0.271 C 
ENDBRANCH  27  28
ENDBRANCH  26  27
ENDBRANCH  25  26
ENDBRANCH   1  25
TORSDOF 6
ENDMDL
