MODEL 1
REMARK VINA RESULT: -8.875422461      0.000      0.000
REMARK  4 active torsions:
REMARK  status: ('A' for Active; 'I' for Inactive)
REMARK    1  A    between atoms: C2_2  and  C3_3 
REMARK    2  A    between atoms: C2_2  and  C10_17 
REMARK       I    between atoms: C3_3  and  N1_5 
REMARK    3  A    between atoms: C6_9  and  C7_10 
REMARK    4  A    between atoms: C13_20  and  N4_21 
ROOT
HETATM    1  C1  UNL     1     -13.806 202.914 110.584  1.00  0.00     0.025 C 
HETATM    2  C2  UNL     1     -13.447 202.852 112.087  1.00  0.00     0.107 C 
ENDROOT
BRANCH   2   3
HETATM    3  C3  UNL     1     -14.519 203.521 112.807  1.00  0.00     0.231 C 
HETATM    4  O1  UNL     1     -14.824 204.732 112.621  1.00  0.00    -0.272 OA
HETATM    5  N1  UNL     1     -15.288 202.815 113.782  1.00  0.00    -0.311 N 
HETATM    6  C4  UNL     1     -15.043 203.080 115.027  1.00  0.00     0.124 A 
ATOM      7  H1  UNL     1     -15.997 202.134 113.511  1.00  0.00     0.170 HD
HETATM    8  C5  UNL     1     -14.051 204.037 115.488  1.00  0.00     0.076 A 
HETATM    9  N3  UNL     1     -15.639 202.558 116.205  1.00  0.00    -0.285 N 
HETATM   10  C6  UNL     1     -14.090 204.044 116.806  1.00  0.00     0.033 A 
HETATM   11  N2  UNL     1     -15.087 203.114 117.196  1.00  0.00    -0.303 N 
ATOM     12  H2  UNL     1     -15.331 202.917 118.167  1.00  0.00     0.186 HD
ATOM     13  H3  UNL     1     -16.380 201.858 116.244  1.00  0.00     0.188 HD
BRANCH  10  14
HETATM   14  C7  UNL     1     -13.274 204.850 117.758  1.00  0.00     0.037 A 
HETATM   15  C8  UNL     1     -13.173 204.441 119.178  1.00  0.00     0.011 A 
HETATM   16  C9  UNL     1     -11.993 204.198 118.313  1.00  0.00     0.011 A 
ENDBRANCH  10  14
ENDBRANCH   2   3
BRANCH   2  17
HETATM   17  C10 UNL     1     -12.100 203.441 112.231  1.00  0.00    -0.045 A 
HETATM   18  C11 UNL     1     -11.419 203.191 113.405  1.00  0.00     0.010 A 
HETATM   19  C12 UNL     1     -10.163 203.725 113.632  1.00  0.00     0.030 A 
HETATM   20  C13 UNL     1      -9.531 204.534 112.695  1.00  0.00     0.038 A 
HETATM   21  C17 UNL     1     -10.218 204.777 111.527  1.00  0.00     0.030 A 
HETATM   22  C18 UNL     1     -11.490 204.236 111.297  1.00  0.00     0.010 A 
BRANCH  20  23
HETATM   23  N4  UNL     1      -8.239 205.085 112.947  1.00  0.00    -0.298 N 
HETATM   24  C14 UNL     1      -7.010 204.421 112.605  1.00  0.00     0.153 C 
HETATM   25  C15 UNL     1      -5.893 205.379 112.783  1.00  0.00     0.144 C 
HETATM   26  N5  UNL     1      -6.459 206.501 113.474  1.00  0.00    -0.341 N 
HETATM   27  C16 UNL     1      -7.862 206.313 113.547  1.00  0.00     0.323 C 
ATOM     28  H5  UNL     1      -5.942 207.297 113.848  1.00  0.00     0.164 HD
HETATM   29  O2  UNL     1      -8.665 207.131 114.077  1.00  0.00    -0.247 OA
ENDBRANCH  20  23
ENDBRANCH   2  17
TORSDOF 4
ENDMDL
