MODEL 3
REMARK VINA RESULT: -8.356201136      2.076      4.528
REMARK  4 active torsions:
REMARK  status: ('A' for Active; 'I' for Inactive)
REMARK    1  A    between atoms: C2_2  and  C3_3 
REMARK    2  A    between atoms: C2_2  and  C10_17 
REMARK       I    between atoms: C3_3  and  N1_5 
REMARK    3  A    between atoms: C6_9  and  C7_10 
REMARK    4  A    between atoms: C13_20  and  N4_21 
ROOT
HETATM    1  C1  UNL     1     -11.755 203.707 119.456  1.00  0.00     0.025 C 
HETATM    2  C2  UNL     1     -12.425 204.543 118.341  1.00  0.00     0.107 C 
ENDROOT
BRANCH   2   3
HETATM    3  C3  UNL     1     -13.734 203.957 118.100  1.00  0.00     0.231 C 
HETATM    4  O1  UNL     1     -14.110 202.871 118.623  1.00  0.00    -0.272 OA
HETATM    5  N1  UNL     1     -14.671 204.604 117.236  1.00  0.00    -0.311 N 
HETATM    6  C4  UNL     1     -14.841 204.083 116.062  1.00  0.00     0.124 A 
ATOM      7  H1  UNL     1     -15.181 205.437 117.531  1.00  0.00     0.170 HD
HETATM    8  C5  UNL     1     -14.152 202.900 115.574  1.00  0.00     0.076 A 
HETATM    9  N3  UNL     1     -15.696 204.485 115.002  1.00  0.00    -0.285 N 
HETATM   10  C6  UNL     1     -14.584 202.667 114.350  1.00  0.00     0.033 A 
HETATM   11  N2  UNL     1     -15.535 203.673 114.047  1.00  0.00    -0.303 N 
ATOM     12  H2  UNL     1     -16.033 203.736 113.159  1.00  0.00     0.186 HD
ATOM     13  H3  UNL     1     -16.327 205.286 115.009  1.00  0.00     0.188 HD
BRANCH  10  14
HETATM   14  C7  UNL     1     -14.191 201.574 113.417  1.00  0.00     0.037 A 
HETATM   15  C8  UNL     1     -14.907 201.403 112.131  1.00  0.00     0.011 A 
HETATM   16  C9  UNL     1     -13.545 201.988 112.080  1.00  0.00     0.011 A 
ENDBRANCH  10  14
ENDBRANCH   2   3
BRANCH   2  17
HETATM   17  C10 UNL     1     -11.495 204.551 117.193  1.00  0.00    -0.045 A 
HETATM   18  C11 UNL     1     -11.290 205.754 116.549  1.00  0.00     0.010 A 
HETATM   19  C12 UNL     1     -10.455 205.845 115.450  1.00  0.00     0.030 A 
HETATM   20  C13 UNL     1      -9.787 204.736 114.944  1.00  0.00     0.038 A 
HETATM   21  C17 UNL     1      -9.998 203.541 115.593  1.00  0.00     0.030 A 
HETATM   22  C18 UNL     1     -10.844 203.448 116.707  1.00  0.00     0.010 A 
BRANCH  20  23
HETATM   23  N4  UNL     1      -8.935 204.844 113.804  1.00  0.00    -0.298 N 
HETATM   24  C14 UNL     1      -7.507 204.991 113.888  1.00  0.00     0.153 C 
HETATM   25  C15 UNL     1      -6.937 204.824 112.530  1.00  0.00     0.144 C 
HETATM   26  N5  UNL     1      -8.061 204.843 111.639  1.00  0.00    -0.341 N 
HETATM   27  C16 UNL     1      -9.243 204.838 112.420  1.00  0.00     0.323 C 
ATOM     28  H5  UNL     1      -8.017 204.857 110.620  1.00  0.00     0.164 HD
HETATM   29  O2  UNL     1     -10.413 204.831 111.944  1.00  0.00    -0.247 OA
ENDBRANCH  20  23
ENDBRANCH   2  17
TORSDOF 4
ENDMDL
