MODEL 2
REMARK VINA RESULT: -8.657436013      0.918      1.165
REMARK  4 active torsions:
REMARK  status: ('A' for Active; 'I' for Inactive)
REMARK    1  A    between atoms: C2_2  and  C3_3 
REMARK    2  A    between atoms: C2_2  and  C10_17 
REMARK       I    between atoms: C3_3  and  N1_5 
REMARK    3  A    between atoms: C6_9  and  C7_10 
REMARK    4  A    between atoms: C13_20  and  N4_21 
ROOT
HETATM    1  C1  UNL     1     -13.649 202.936 110.638  1.00  0.00     0.025 C 
HETATM    2  C2  UNL     1     -13.334 202.906 112.151  1.00  0.00     0.107 C 
ENDROOT
BRANCH   2   3
HETATM    3  C3  UNL     1     -14.470 203.509 112.832  1.00  0.00     0.231 C 
HETATM    4  O1  UNL     1     -14.843 204.698 112.628  1.00  0.00    -0.272 OA
HETATM    5  N1  UNL     1     -15.225 202.760 113.786  1.00  0.00    -0.311 N 
HETATM    6  C4  UNL     1     -15.038 203.047 115.036  1.00  0.00     0.124 A 
ATOM      7  H1  UNL     1     -15.881 202.035 113.496  1.00  0.00     0.170 HD
HETATM    8  C5  UNL     1     -14.123 204.065 115.523  1.00  0.00     0.076 A 
HETATM    9  N3  UNL     1     -15.639 202.493 116.198  1.00  0.00    -0.285 N 
HETATM   10  C6  UNL     1     -14.206 204.076 116.839  1.00  0.00     0.033 A 
HETATM   11  N2  UNL     1     -15.156 203.088 117.203  1.00  0.00    -0.303 N 
ATOM     12  H2  UNL     1     -15.419 202.880 118.166  1.00  0.00     0.186 HD
ATOM     13  H3  UNL     1     -16.336 201.749 116.218  1.00  0.00     0.188 HD
BRANCH  10  14
HETATM   14  C7  UNL     1     -13.474 204.936 117.812  1.00  0.00     0.037 A 
HETATM   15  C8  UNL     1     -13.221 204.450 119.188  1.00  0.00     0.011 A 
HETATM   16  C9  UNL     1     -12.073 204.468 118.250  1.00  0.00     0.011 A 
ENDBRANCH  10  14
ENDBRANCH   2   3
BRANCH   2  17
HETATM   17  C10 UNL     1     -12.033 203.580 112.334  1.00  0.00    -0.045 A 
HETATM   18  C11 UNL     1     -11.469 203.545 113.593  1.00  0.00     0.010 A 
HETATM   19  C12 UNL     1     -10.265 204.172 113.856  1.00  0.00     0.030 A 
HETATM   20  C13 UNL     1      -9.570 204.865 112.871  1.00  0.00     0.038 A 
HETATM   21  C17 UNL     1     -10.140 204.893 111.619  1.00  0.00     0.030 A 
HETATM   22  C18 UNL     1     -11.360 204.258 111.352  1.00  0.00     0.010 A 
BRANCH  20  23
HETATM   23  N4  UNL     1      -8.332 205.514 113.160  1.00  0.00    -0.298 N 
HETATM   24  C14 UNL     1      -8.203 206.600 114.095  1.00  0.00     0.153 C 
HETATM   25  C15 UNL     1      -6.761 206.855 114.322  1.00  0.00     0.144 C 
HETATM   26  N5  UNL     1      -6.075 206.089 113.321  1.00  0.00    -0.341 N 
HETATM   27  C16 UNL     1      -7.030 205.285 112.650  1.00  0.00     0.323 C 
ATOM     28  H5  UNL     1      -5.075 206.119 113.125  1.00  0.00     0.164 HD
HETATM   29  O2  UNL     1      -6.753 204.474 111.722  1.00  0.00    -0.247 OA
ENDBRANCH  20  23
ENDBRANCH   2  17
TORSDOF 4
ENDMDL
