MODEL 9
REMARK VINA RESULT: -9.615036924      2.828     10.635
REMARK  14 active torsions:
REMARK  status: ('A' for Active; 'I' for Inactive)
REMARK    1  A    between atoms: C5_5  and  O1_6 
REMARK    2  A    between atoms: C6_8  and  N1_9 
REMARK       I    between atoms: N1_9  and  C7_11 
REMARK    3  A    between atoms: C7_11  and  C8_13 
REMARK    4  A    between atoms: C8_13  and  C9_14 
REMARK    5  A    between atoms: C8_13  and  C16_21 
REMARK    6  A    between atoms: C9_14  and  C10_15 
REMARK    7  A    between atoms: C16_21  and  C17_22 
REMARK    8  A    between atoms: C17_22  and  O3_23 
REMARK    9  A    between atoms: C17_22  and  C18_25 
REMARK   10  A    between atoms: C18_25  and  N2_26 
REMARK       I    between atoms: N3_29  and  C21_30 
REMARK   11  A    between atoms: C21_30  and  C22_32 
REMARK   12  A    between atoms: C23_33  and  C24_34 
REMARK   13  A    between atoms: C30_42  and  C31_43 
REMARK       I    between atoms: C31_43  and  N5_45 
REMARK   14  A    between atoms: N5_45  and  C32_47 
ROOT
HETATM    1  N2  UNL     1      14.671  22.034   5.626  1.00  0.00     0.107 N 
HETATM    2  C19 UNL     1      14.239  21.449   6.859  1.00  0.00     0.293 C 
HETATM    3  C20 UNL     1      15.181  20.614   7.612  1.00  0.00     0.156 C 
HETATM    4  N3  UNL     1      16.567  20.678   7.251  1.00  0.00    -0.344 N 
HETATM    5  C21 UNL     1      17.547  19.891   7.881  1.00  0.00     0.243 C 
HETATM    6  O4  UNL     1      18.751  19.962   7.558  1.00  0.00    -0.268 OA
HETATM    7  C29 UNL     1      16.994  21.583   6.203  1.00  0.00     0.172 C 
HETATM    8  C30 UNL     1      15.925  21.513   5.139  1.00  0.00     0.332 C 
ENDROOT
BRANCH   1   9
HETATM    9  C18 UNL     1      14.753  23.474   5.675  1.00  0.00     0.305 C 
BRANCH   9  10
HETATM   10  C17 UNL     1      13.656  24.210   4.993  1.00  0.00     0.147 C 
BRANCH  10  11
HETATM   11  C16 UNL     1      12.849  23.301   4.113  1.00  0.00     0.047 C 
BRANCH  11  12
HETATM   12  C8  UNL     1      11.376  23.749   4.253  1.00  0.00     0.084 C 
BRANCH  12  13
HETATM   13  C7  UNL     1      11.072  23.671   5.674  1.00  0.00     0.222 C 
HETATM   14  N1  UNL     1      10.821  24.818   6.478  1.00  0.00    -0.353 N 
ATOM     15  H1  UNL     1      10.868  25.755   6.077  1.00  0.00     0.163 HD
HETATM   16  O2  UNL     1      11.018  22.545   6.240  1.00  0.00    -0.273 OA
BRANCH  14  17
HETATM   17  C6  UNL     1      10.499  24.630   7.871  1.00  0.00     0.116 C 
HETATM   18  C2  UNL     1      11.383  25.389   8.790  1.00  0.00     0.007 C 
HETATM   19  C1  UNL     1      12.775  25.649   8.328  1.00  0.00     0.012 C 
HETATM   20  C3  UNL     1      10.657  26.730   8.900  1.00  0.00     0.009 C 
HETATM   21  C4  UNL     1       9.243  26.256   9.136  1.00  0.00     0.034 C 
HETATM   22  C5  UNL     1       9.079  25.128   8.151  1.00  0.00     0.141 C 
BRANCH  22  23
HETATM   23  O1  UNL     1       8.538  25.686   6.990  1.00  0.00    -0.394 OA
ATOM     24  H1  UNL     1       8.087  24.984   6.535  1.00  0.00     0.210 HD
ENDBRANCH  22  23
ENDBRANCH  14  17
ENDBRANCH  12  13
BRANCH  12  25
HETATM   25  C9  UNL     1      10.560  22.962   3.307  1.00  0.00     0.052 C 
BRANCH  25  26
HETATM   26  C10 UNL     1       9.461  23.782   2.757  1.00  0.00    -0.057 A 
HETATM   27  C11 UNL     1       9.670  24.589   1.656  1.00  0.00     0.007 A 
HETATM   28  C12 UNL     1       8.669  25.351   1.103  1.00  0.00     0.001 A 
HETATM   29  C13 UNL     1       7.427  25.291   1.685  1.00  0.00     0.000 A 
HETATM   30  C14 UNL     1       7.160  24.501   2.790  1.00  0.00     0.001 A 
HETATM   31  C15 UNL     1       8.208  23.752   3.306  1.00  0.00     0.007 A 
ENDBRANCH  25  26
ENDBRANCH  12  25
ENDBRANCH  11  12
ENDBRANCH  10  11
BRANCH  10  32
HETATM   32  O3  UNL     1      14.174  25.276   4.259  1.00  0.00    -0.394 OA
ATOM     33  H3  UNL     1      15.108  25.364   4.409  1.00  0.00     0.210 HD
ENDBRANCH  10  32
ENDBRANCH   9  10
ENDBRANCH   1   9
BRANCH   8  34
HETATM   34  C31 UNL     1      15.741  20.131   4.697  1.00  0.00     0.253 C 
HETATM   35  O5  UNL     1      14.585  19.663   4.571  1.00  0.00    -0.271 OA
HETATM   36  N5  UNL     1      16.849  19.302   4.404  1.00  0.00    -0.351 N 
ATOM     37  H5  UNL     1      17.804  19.650   4.494  1.00  0.00     0.163 HD
BRANCH  36  38
HETATM   38  C32 UNL     1      16.585  17.936   3.969  1.00  0.00     0.022 C 
HETATM   39  C33 UNL     1      16.826  17.834   2.478  1.00  0.00     0.037 C 
HETATM   40  C34 UNL     1      15.150  17.555   4.278  1.00  0.00     0.037 C 
HETATM   41  C35 UNL     1      17.497  17.012   4.742  1.00  0.00     0.037 C 
ENDBRANCH  36  38
ENDBRANCH   8  34
BRANCH   5  42
HETATM   42  C22 UNL     1      17.159  18.970   8.937  1.00  0.00     0.075 C 
HETATM   43  C23 UNL     1      18.008  18.569   9.875  1.00  0.00     0.018 C 
BRANCH  43  44
HETATM   44  C24 UNL     1      17.702  17.666  10.944  1.00  0.00    -0.021 A 
HETATM   45  C25 UNL     1      16.573  16.903  10.989  1.00  0.00     0.014 A 
HETATM   46  C26 UNL     1      16.344  16.053  12.043  1.00  0.00     0.018 A 
HETATM   47  C27 UNL     1      17.268  15.977  13.060  1.00  0.00     0.087 A 
HETATM   48  N4  UNL     1      18.393  16.722  13.039  1.00  0.00    -0.374 N 
HETATM   49  C28 UNL     1      18.587  17.540  11.999  1.00  0.00     0.099 A 
ATOM     50  H4  UNL     1      19.074  16.663  13.795  1.00  0.00     0.164 HD
ENDBRANCH  43  44
ENDBRANCH   5  42
TORSDOF 14
ENDMDL
