MODEL 7
REMARK VINA RESULT: -9.692114492      2.769      4.398
REMARK  14 active torsions:
REMARK  status: ('A' for Active; 'I' for Inactive)
REMARK    1  A    between atoms: C5_5  and  O1_6 
REMARK    2  A    between atoms: C6_8  and  N1_9 
REMARK       I    between atoms: N1_9  and  C7_11 
REMARK    3  A    between atoms: C7_11  and  C8_13 
REMARK    4  A    between atoms: C8_13  and  C9_14 
REMARK    5  A    between atoms: C8_13  and  C16_21 
REMARK    6  A    between atoms: C9_14  and  C10_15 
REMARK    7  A    between atoms: C16_21  and  C17_22 
REMARK    8  A    between atoms: C17_22  and  O3_23 
REMARK    9  A    between atoms: C17_22  and  C18_25 
REMARK   10  A    between atoms: C18_25  and  N2_26 
REMARK       I    between atoms: N3_29  and  C21_30 
REMARK   11  A    between atoms: C21_30  and  C22_32 
REMARK   12  A    between atoms: C23_33  and  C24_34 
REMARK   13  A    between atoms: C30_42  and  C31_43 
REMARK       I    between atoms: C31_43  and  N5_45 
REMARK   14  A    between atoms: N5_45  and  C32_47 
ROOT
HETATM    1  N2  UNL     1       9.492  25.491   4.083  1.00  0.00     0.107 N 
HETATM    2  C19 UNL     1       8.513  24.448   4.118  1.00  0.00     0.293 C 
HETATM    3  C20 UNL     1       7.115  24.782   3.821  1.00  0.00     0.156 C 
HETATM    4  N3  UNL     1       6.847  26.050   3.209  1.00  0.00    -0.344 N 
HETATM    5  C21 UNL     1       5.542  26.486   2.919  1.00  0.00     0.243 C 
HETATM    6  O4  UNL     1       5.325  27.591   2.382  1.00  0.00    -0.268 OA
HETATM    7  C29 UNL     1       7.947  26.929   2.867  1.00  0.00     0.172 C 
HETATM    8  C30 UNL     1       8.932  26.819   4.006  1.00  0.00     0.332 C 
ENDROOT
BRANCH   1   9
HETATM    9  C18 UNL     1      10.459  25.334   3.022  1.00  0.00     0.305 C 
BRANCH   9  10
HETATM   10  C17 UNL     1      10.868  23.936   2.720  1.00  0.00     0.147 C 
BRANCH  10  11
HETATM   11  C16 UNL     1      12.361  23.797   2.684  1.00  0.00     0.047 C 
BRANCH  11  12
HETATM   12  C8  UNL     1      12.697  22.486   3.432  1.00  0.00     0.084 C 
BRANCH  12  13
HETATM   13  C7  UNL     1      12.126  22.633   4.763  1.00  0.00     0.222 C 
HETATM   14  N1  UNL     1      12.584  23.600   5.701  1.00  0.00    -0.353 N 
ATOM     15  H1  UNL     1      13.359  24.221   5.471  1.00  0.00     0.163 HD
HETATM   16  O2  UNL     1      11.178  21.882   5.122  1.00  0.00    -0.273 OA
BRANCH  14  17
HETATM   17  C6  UNL     1      11.930  23.683   6.984  1.00  0.00     0.116 C 
HETATM   18  C2  UNL     1      12.804  23.297   8.119  1.00  0.00     0.007 C 
HETATM   19  C1  UNL     1      13.874  22.299   7.840  1.00  0.00     0.012 C 
HETATM   20  C3  UNL     1      13.471  24.626   8.478  1.00  0.00     0.009 C 
HETATM   21  C4  UNL     1      12.269  25.539   8.487  1.00  0.00     0.034 C 
HETATM   22  C5  UNL     1      11.500  25.125   7.259  1.00  0.00     0.141 C 
BRANCH  22  23
HETATM   23  O1  UNL     1      11.933  25.953   6.219  1.00  0.00    -0.394 OA
ATOM     24  H1  UNL     1      12.821  25.685   6.010  1.00  0.00     0.210 HD
ENDBRANCH  22  23
ENDBRANCH  14  17
ENDBRANCH  12  13
BRANCH  12  25
HETATM   25  C9  UNL     1      14.147  22.237   3.304  1.00  0.00     0.052 C 
BRANCH  25  26
HETATM   26  C10 UNL     1      14.431  20.788   3.326  1.00  0.00    -0.057 A 
HETATM   27  C11 UNL     1      14.624  20.128   4.524  1.00  0.00     0.007 A 
HETATM   28  C12 UNL     1      14.871  18.778   4.587  1.00  0.00     0.001 A 
HETATM   29  C13 UNL     1      14.922  18.083   3.404  1.00  0.00     0.000 A 
HETATM   30  C14 UNL     1      14.736  18.691   2.175  1.00  0.00     0.001 A 
HETATM   31  C15 UNL     1      14.491  20.057   2.171  1.00  0.00     0.007 A 
ENDBRANCH  25  26
ENDBRANCH  12  25
ENDBRANCH  11  12
ENDBRANCH  10  11
BRANCH  10  32
HETATM   32  O3  UNL     1      10.304  23.521   1.514  1.00  0.00    -0.394 OA
ATOM     33  H3  UNL     1      10.365  24.207   0.861  1.00  0.00     0.210 HD
ENDBRANCH  10  32
ENDBRANCH   9  10
ENDBRANCH   1   9
BRANCH   8  34
HETATM   34  C31 UNL     1       8.277  27.146   5.273  1.00  0.00     0.253 C 
HETATM   35  O5  UNL     1       7.393  28.034   5.308  1.00  0.00    -0.271 OA
HETATM   36  N5  UNL     1       8.622  26.477   6.470  1.00  0.00    -0.351 N 
ATOM     37  H5  UNL     1       9.337  25.749   6.478  1.00  0.00     0.163 HD
BRANCH  36  38
HETATM   38  C32 UNL     1       7.926  26.860   7.692  1.00  0.00     0.022 C 
HETATM   39  C33 UNL     1       8.121  25.779   8.735  1.00  0.00     0.037 C 
HETATM   40  C34 UNL     1       6.446  27.040   7.419  1.00  0.00     0.037 C 
HETATM   41  C35 UNL     1       8.486  28.184   8.157  1.00  0.00     0.037 C 
ENDBRANCH  36  38
ENDBRANCH   8  34
BRANCH   5  42
HETATM   42  C22 UNL     1       4.411  25.633   3.248  1.00  0.00     0.075 C 
HETATM   43  C23 UNL     1       3.984  24.677   2.433  1.00  0.00     0.018 C 
BRANCH  43  44
HETATM   44  C24 UNL     1       2.881  23.799   2.685  1.00  0.00    -0.021 A 
HETATM   45  C25 UNL     1       3.018  22.467   2.939  1.00  0.00     0.014 A 
HETATM   46  C26 UNL     1       1.918  21.682   3.177  1.00  0.00     0.018 A 
HETATM   47  C27 UNL     1       0.666  22.253   3.157  1.00  0.00     0.087 A 
HETATM   48  N4  UNL     1       0.503  23.569   2.908  1.00  0.00    -0.374 N 
HETATM   49  C28 UNL     1       1.594  24.307   2.680  1.00  0.00     0.099 A 
ATOM     50  H4  UNL     1      -0.427  23.988   2.893  1.00  0.00     0.164 HD
ENDBRANCH  43  44
ENDBRANCH   5  42
TORSDOF 14
ENDMDL
