MODEL 4
REMARK VINA RESULT: -9.900441864      2.364     10.806
REMARK  14 active torsions:
REMARK  status: ('A' for Active; 'I' for Inactive)
REMARK    1  A    between atoms: C5_5  and  O1_6 
REMARK    2  A    between atoms: C6_8  and  N1_9 
REMARK       I    between atoms: N1_9  and  C7_11 
REMARK    3  A    between atoms: C7_11  and  C8_13 
REMARK    4  A    between atoms: C8_13  and  C9_14 
REMARK    5  A    between atoms: C8_13  and  C16_21 
REMARK    6  A    between atoms: C9_14  and  C10_15 
REMARK    7  A    between atoms: C16_21  and  C17_22 
REMARK    8  A    between atoms: C17_22  and  O3_23 
REMARK    9  A    between atoms: C17_22  and  C18_25 
REMARK   10  A    between atoms: C18_25  and  N2_26 
REMARK       I    between atoms: N3_29  and  C21_30 
REMARK   11  A    between atoms: C21_30  and  C22_32 
REMARK   12  A    between atoms: C23_33  and  C24_34 
REMARK   13  A    between atoms: C30_42  and  C31_43 
REMARK       I    between atoms: C31_43  and  N5_45 
REMARK   14  A    between atoms: N5_45  and  C32_47 
ROOT
HETATM    1  N2  UNL     1      13.467  23.709   7.218  1.00  0.00     0.107 N 
HETATM    2  C19 UNL     1      13.243  22.736   8.244  1.00  0.00     0.293 C 
HETATM    3  C20 UNL     1      14.337  21.828   8.605  1.00  0.00     0.156 C 
HETATM    4  N3  UNL     1      15.656  22.155   8.148  1.00  0.00    -0.344 N 
HETATM    5  C21 UNL     1      16.767  21.333   8.404  1.00  0.00     0.243 C 
HETATM    6  O4  UNL     1      17.910  21.634   8.003  1.00  0.00    -0.268 OA
HETATM    7  C29 UNL     1      15.872  23.374   7.396  1.00  0.00     0.172 C 
HETATM    8  C30 UNL     1      14.685  23.505   6.473  1.00  0.00     0.332 C 
ENDROOT
BRANCH   1   9
HETATM    9  C18 UNL     1      13.441  25.069   7.703  1.00  0.00     0.305 C 
BRANCH   9  10
HETATM   10  C17 UNL     1      12.443  25.967   7.063  1.00  0.00     0.147 C 
BRANCH  10  11
HETATM   11  C16 UNL     1      11.042  25.479   7.288  1.00  0.00     0.047 C 
BRANCH  11  12
HETATM   12  C8  UNL     1      10.301  25.638   5.940  1.00  0.00     0.084 C 
BRANCH  12  13
HETATM   13  C7  UNL     1       9.300  26.672   6.159  1.00  0.00     0.222 C 
HETATM   14  N1  UNL     1       7.905  26.449   5.990  1.00  0.00    -0.353 N 
ATOM     15  H1  UNL     1       7.556  25.541   5.683  1.00  0.00     0.163 HD
HETATM   16  O2  UNL     1       9.662  27.825   6.519  1.00  0.00    -0.273 OA
BRANCH  14  17
HETATM   17  C6  UNL     1       6.993  27.533   6.261  1.00  0.00     0.116 C 
HETATM   18  C2  UNL     1       5.918  27.669   5.247  1.00  0.00     0.007 C 
HETATM   19  C1  UNL     1       6.238  27.233   3.859  1.00  0.00     0.012 C 
HETATM   20  C3  UNL     1       4.834  26.743   5.801  1.00  0.00     0.009 C 
HETATM   21  C4  UNL     1       4.821  27.175   7.248  1.00  0.00     0.034 C 
HETATM   22  C5  UNL     1       6.282  27.296   7.595  1.00  0.00     0.141 C 
BRANCH  22  23
HETATM   23  O1  UNL     1       6.670  26.062   8.124  1.00  0.00    -0.394 OA
ATOM     24  H1  UNL     1       7.566  26.165   8.425  1.00  0.00     0.210 HD
ENDBRANCH  22  23
ENDBRANCH  14  17
ENDBRANCH  12  13
BRANCH  12  25
HETATM   25  C9  UNL     1       9.857  24.302   5.493  1.00  0.00     0.052 C 
BRANCH  25  26
HETATM   26  C10 UNL     1       9.838  24.225   4.019  1.00  0.00    -0.057 A 
HETATM   27  C11 UNL     1      11.006  24.353   3.293  1.00  0.00     0.007 A 
HETATM   28  C12 UNL     1      11.032  24.267   1.922  1.00  0.00     0.001 A 
HETATM   29  C13 UNL     1       9.842  24.045   1.275  1.00  0.00     0.000 A 
HETATM   30  C14 UNL     1       8.642  23.909   1.949  1.00  0.00     0.001 A 
HETATM   31  C15 UNL     1       8.675  24.005   3.333  1.00  0.00     0.007 A 
ENDBRANCH  25  26
ENDBRANCH  12  25
ENDBRANCH  11  12
ENDBRANCH  10  11
BRANCH  10  32
HETATM   32  O3  UNL     1      12.710  26.090   5.701  1.00  0.00    -0.394 OA
ATOM     33  H3  UNL     1      13.469  26.643   5.556  1.00  0.00     0.210 HD
ENDBRANCH  10  32
ENDBRANCH   9  10
ENDBRANCH   1   9
BRANCH   8  34
HETATM   34  C31 UNL     1      14.556  22.307   5.643  1.00  0.00     0.253 C 
HETATM   35  O5  UNL     1      13.422  21.823   5.416  1.00  0.00    -0.271 OA
HETATM   36  N5  UNL     1      15.692  21.677   5.085  1.00  0.00    -0.351 N 
ATOM     37  H5  UNL     1      16.630  22.044   5.248  1.00  0.00     0.163 HD
BRANCH  36  38
HETATM   38  C32 UNL     1      15.482  20.487   4.270  1.00  0.00     0.022 C 
HETATM   39  C33 UNL     1      14.779  20.881   2.988  1.00  0.00     0.037 C 
HETATM   40  C34 UNL     1      14.638  19.477   5.022  1.00  0.00     0.037 C 
HETATM   41  C35 UNL     1      16.830  19.863   3.992  1.00  0.00     0.037 C 
ENDBRANCH  36  38
ENDBRANCH   8  34
BRANCH   5  42
HETATM   42  C22 UNL     1      16.590  20.100   9.154  1.00  0.00     0.075 C 
HETATM   43  C23 UNL     1      17.563  19.570   9.885  1.00  0.00     0.018 C 
BRANCH  43  44
HETATM   44  C24 UNL     1      17.467  18.362  10.649  1.00  0.00    -0.021 A 
HETATM   45  C25 UNL     1      16.388  17.530  10.616  1.00  0.00     0.014 A 
HETATM   46  C26 UNL     1      16.363  16.384  11.371  1.00  0.00     0.018 A 
HETATM   47  C27 UNL     1      17.442  16.079  12.168  1.00  0.00     0.087 A 
HETATM   48  N4  UNL     1      18.522  16.886  12.219  1.00  0.00    -0.374 N 
HETATM   49  C28 UNL     1      18.517  17.995  11.472  1.00  0.00     0.099 A 
ATOM     50  H4  UNL     1      19.320  16.657  12.812  1.00  0.00     0.164 HD
ENDBRANCH  43  44
ENDBRANCH   5  42
TORSDOF 14
ENDMDL
