MODEL 11
REMARK VINA RESULT: -9.589476224      2.144      4.206
REMARK  14 active torsions:
REMARK  status: ('A' for Active; 'I' for Inactive)
REMARK    1  A    between atoms: C5_5  and  O1_6 
REMARK    2  A    between atoms: C6_8  and  N1_9 
REMARK       I    between atoms: N1_9  and  C7_11 
REMARK    3  A    between atoms: C7_11  and  C8_13 
REMARK    4  A    between atoms: C8_13  and  C9_14 
REMARK    5  A    between atoms: C8_13  and  C16_21 
REMARK    6  A    between atoms: C9_14  and  C10_15 
REMARK    7  A    between atoms: C16_21  and  C17_22 
REMARK    8  A    between atoms: C17_22  and  O3_23 
REMARK    9  A    between atoms: C17_22  and  C18_25 
REMARK   10  A    between atoms: C18_25  and  N2_26 
REMARK       I    between atoms: N3_29  and  C21_30 
REMARK   11  A    between atoms: C21_30  and  C22_32 
REMARK   12  A    between atoms: C23_33  and  C24_34 
REMARK   13  A    between atoms: C30_42  and  C31_43 
REMARK       I    between atoms: C31_43  and  N5_45 
REMARK   14  A    between atoms: N5_45  and  C32_47 
ROOT
HETATM    1  N2  UNL     1      11.666  23.970   4.675  1.00  0.00     0.107 N 
HETATM    2  C19 UNL     1      10.552  23.079   4.554  1.00  0.00     0.293 C 
HETATM    3  C20 UNL     1       9.358  23.535   3.835  1.00  0.00     0.156 C 
HETATM    4  N3  UNL     1       9.475  24.712   3.024  1.00  0.00    -0.344 N 
HETATM    5  C21 UNL     1       8.383  25.257   2.325  1.00  0.00     0.243 C 
HETATM    6  O4  UNL     1       8.502  26.280   1.621  1.00  0.00    -0.268 OA
HETATM    7  C29 UNL     1      10.756  25.378   2.907  1.00  0.00     0.172 C 
HETATM    8  C30 UNL     1      11.374  25.328   4.284  1.00  0.00     0.332 C 
ENDROOT
BRANCH   1   9
HETATM    9  C18 UNL     1      12.837  23.523   3.960  1.00  0.00     0.305 C 
BRANCH   9  10
HETATM   10  C17 UNL     1      14.136  23.713   4.658  1.00  0.00     0.147 C 
BRANCH  10  11
HETATM   11  C16 UNL     1      14.011  23.449   6.130  1.00  0.00     0.047 C 
BRANCH  11  12
HETATM   12  C8  UNL     1      15.324  22.757   6.564  1.00  0.00     0.084 C 
BRANCH  12  13
HETATM   13  C7  UNL     1      15.247  21.399   6.045  1.00  0.00     0.222 C 
HETATM   14  N1  UNL     1      16.190  20.867   5.121  1.00  0.00    -0.353 N 
ATOM     15  H1  UNL     1      16.956  21.442   4.770  1.00  0.00     0.163 HD
HETATM   16  O2  UNL     1      14.313  20.639   6.420  1.00  0.00    -0.273 OA
BRANCH  14  17
HETATM   17  C6  UNL     1      16.040  19.499   4.691  1.00  0.00     0.116 C 
HETATM   18  C2  UNL     1      15.520  19.367   3.308  1.00  0.00     0.007 C 
HETATM   19  C1  UNL     1      14.626  20.453   2.815  1.00  0.00     0.012 C 
HETATM   20  C3  UNL     1      16.803  19.390   2.477  1.00  0.00     0.009 C 
HETATM   21  C4  UNL     1      17.650  18.414   3.258  1.00  0.00     0.034 C 
HETATM   22  C5  UNL     1      17.401  18.799   4.693  1.00  0.00     0.141 C 
BRANCH  22  23
HETATM   23  O1  UNL     1      18.401  19.712   5.041  1.00  0.00    -0.394 OA
ATOM     24  H1  UNL     1      18.349  19.826   5.983  1.00  0.00     0.210 HD
ENDBRANCH  22  23
ENDBRANCH  14  17
ENDBRANCH  12  13
BRANCH  12  25
HETATM   25  C9  UNL     1      15.495  22.954   8.017  1.00  0.00     0.052 C 
BRANCH  25  26
HETATM   26  C10 UNL     1      16.503  22.019   8.556  1.00  0.00    -0.057 A 
HETATM   27  C11 UNL     1      16.117  20.936   9.321  1.00  0.00     0.007 A 
HETATM   28  C12 UNL     1      17.023  20.032   9.823  1.00  0.00     0.001 A 
HETATM   29  C13 UNL     1      18.351  20.236   9.540  1.00  0.00     0.000 A 
HETATM   30  C14 UNL     1      18.795  21.303   8.780  1.00  0.00     0.001 A 
HETATM   31  C15 UNL     1      17.836  22.184   8.298  1.00  0.00     0.007 A 
ENDBRANCH  25  26
ENDBRANCH  12  25
ENDBRANCH  11  12
ENDBRANCH  10  11
BRANCH  10  32
HETATM   32  O3  UNL     1      14.622  24.999   4.427  1.00  0.00    -0.394 OA
ATOM     33  H3  UNL     1      15.561  24.982   4.281  1.00  0.00     0.210 HD
ENDBRANCH  10  32
ENDBRANCH   9  10
ENDBRANCH   1   9
BRANCH   8  34
HETATM   34  C31 UNL     1      10.473  25.936   5.264  1.00  0.00     0.253 C 
HETATM   35  O5  UNL     1       9.758  26.912   4.935  1.00  0.00    -0.271 OA
HETATM   36  N5  UNL     1      10.388  25.441   6.586  1.00  0.00    -0.351 N 
ATOM     37  H5  UNL     1      10.954  24.647   6.888  1.00  0.00     0.163 HD
BRANCH  36  38
HETATM   38  C32 UNL     1       9.468  26.099   7.504  1.00  0.00     0.022 C 
HETATM   39  C33 UNL     1       8.198  26.459   6.762  1.00  0.00     0.037 C 
HETATM   40  C34 UNL     1      10.099  27.356   8.070  1.00  0.00     0.037 C 
HETATM   41  C35 UNL     1       9.189  25.154   8.650  1.00  0.00     0.037 C 
ENDBRANCH  36  38
ENDBRANCH   8  34
BRANCH   5  42
HETATM   42  C22 UNL     1       7.080  24.619   2.419  1.00  0.00     0.075 C 
HETATM   43  C23 UNL     1       6.071  25.164   3.087  1.00  0.00     0.018 C 
BRANCH  43  44
HETATM   44  C24 UNL     1       4.762  24.599   3.226  1.00  0.00    -0.021 A 
HETATM   45  C25 UNL     1       4.532  23.309   3.602  1.00  0.00     0.014 A 
HETATM   46  C26 UNL     1       3.250  22.833   3.720  1.00  0.00     0.018 A 
HETATM   47  C27 UNL     1       2.192  23.672   3.455  1.00  0.00     0.087 A 
HETATM   48  N4  UNL     1       2.394  24.952   3.080  1.00  0.00    -0.374 N 
HETATM   49  C28 UNL     1       3.653  25.387   2.974  1.00  0.00     0.099 A 
ATOM     50  H4  UNL     1       1.607  25.571   2.884  1.00  0.00     0.164 HD
ENDBRANCH  43  44
ENDBRANCH   5  42
TORSDOF 14
ENDMDL
