MODEL 6
REMARK VINA RESULT: -9.716328254      2.302      4.247
REMARK  14 active torsions:
REMARK  status: ('A' for Active; 'I' for Inactive)
REMARK    1  A    between atoms: C5_5  and  O1_6 
REMARK    2  A    between atoms: C6_8  and  N1_9 
REMARK       I    between atoms: N1_9  and  C7_11 
REMARK    3  A    between atoms: C7_11  and  C8_13 
REMARK    4  A    between atoms: C8_13  and  C9_14 
REMARK    5  A    between atoms: C8_13  and  C16_21 
REMARK    6  A    between atoms: C9_14  and  C10_15 
REMARK    7  A    between atoms: C16_21  and  C17_22 
REMARK    8  A    between atoms: C17_22  and  O3_23 
REMARK    9  A    between atoms: C17_22  and  C18_25 
REMARK   10  A    between atoms: C18_25  and  N2_26 
REMARK       I    between atoms: N3_29  and  C21_30 
REMARK   11  A    between atoms: C21_30  and  C22_32 
REMARK   12  A    between atoms: C23_33  and  C24_34 
REMARK   13  A    between atoms: C30_42  and  C31_43 
REMARK       I    between atoms: C31_43  and  N5_45 
REMARK   14  A    between atoms: N5_45  and  C32_47 
ROOT
HETATM    1  N2  UNL     1      12.114  23.999   4.920  1.00  0.00     0.107 N 
HETATM    2  C19 UNL     1      11.054  23.040   4.854  1.00  0.00     0.293 C 
HETATM    3  C20 UNL     1       9.781  23.435   4.240  1.00  0.00     0.156 C 
HETATM    4  N3  UNL     1       9.761  24.639   3.462  1.00  0.00    -0.344 N 
HETATM    5  C21 UNL     1       8.586  25.129   2.863  1.00  0.00     0.243 C 
HETATM    6  O4  UNL     1       8.586  26.176   2.185  1.00  0.00    -0.268 OA
HETATM    7  C29 UNL     1      10.984  25.390   3.270  1.00  0.00     0.172 C 
HETATM    8  C30 UNL     1      11.707  25.345   4.595  1.00  0.00     0.332 C 
ENDROOT
BRANCH   1   9
HETATM    9  C18 UNL     1      13.254  23.650   4.106  1.00  0.00     0.305 C 
BRANCH   9  10
HETATM   10  C17 UNL     1      14.525  23.409   4.838  1.00  0.00     0.147 C 
BRANCH  10  11
HETATM   11  C16 UNL     1      14.282  23.194   6.303  1.00  0.00     0.047 C 
BRANCH  11  12
HETATM   12  C8  UNL     1      15.103  21.947   6.705  1.00  0.00     0.084 C 
BRANCH  12  13
HETATM   13  C7  UNL     1      14.637  20.871   5.843  1.00  0.00     0.222 C 
HETATM   14  N1  UNL     1      15.503  20.127   4.994  1.00  0.00    -0.353 N 
ATOM     15  H1  UNL     1      16.499  20.343   4.948  1.00  0.00     0.163 HD
HETATM   16  O2  UNL     1      13.413  20.564   5.834  1.00  0.00    -0.273 OA
BRANCH  14  17
HETATM   17  C6  UNL     1      14.945  19.060   4.201  1.00  0.00     0.116 C 
HETATM   18  C2  UNL     1      14.850  19.385   2.756  1.00  0.00     0.007 C 
HETATM   19  C1  UNL     1      14.665  20.819   2.396  1.00  0.00     0.012 C 
HETATM   20  C3  UNL     1      16.215  18.933   2.234  1.00  0.00     0.009 C 
HETATM   21  C4  UNL     1      16.319  17.575   2.886  1.00  0.00     0.034 C 
HETATM   22  C5  UNL     1      15.836  17.819   4.292  1.00  0.00     0.141 C 
BRANCH  22  23
HETATM   23  O1  UNL     1      16.969  18.108   5.059  1.00  0.00    -0.394 OA
ATOM     24  H1  UNL     1      16.657  18.352   5.923  1.00  0.00     0.210 HD
ENDBRANCH  22  23
ENDBRANCH  14  17
ENDBRANCH  12  13
BRANCH  12  25
HETATM   25  C9  UNL     1      15.004  21.778   8.169  1.00  0.00     0.052 C 
BRANCH  25  26
HETATM   26  C10 UNL     1      16.168  21.034   8.689  1.00  0.00    -0.057 A 
HETATM   27  C11 UNL     1      17.453  21.470   8.430  1.00  0.00     0.007 A 
HETATM   28  C12 UNL     1      18.562  20.816   8.913  1.00  0.00     0.001 A 
HETATM   29  C13 UNL     1      18.357  19.693   9.675  1.00  0.00     0.000 A 
HETATM   30  C14 UNL     1      17.094  19.209   9.966  1.00  0.00     0.001 A 
HETATM   31  C15 UNL     1      16.011  19.910   9.453  1.00  0.00     0.007 A 
ENDBRANCH  25  26
ENDBRANCH  12  25
ENDBRANCH  11  12
ENDBRANCH  10  11
BRANCH  10  32
HETATM   32  O3  UNL     1      15.406  24.470   4.634  1.00  0.00    -0.394 OA
ATOM     33  H3  UNL     1      15.986  24.573   5.379  1.00  0.00     0.210 HD
ENDBRANCH  10  32
ENDBRANCH   9  10
ENDBRANCH   1   9
BRANCH   8  34
HETATM   34  C31 UNL     1      10.847  25.865   5.658  1.00  0.00     0.253 C 
HETATM   35  O5  UNL     1       9.933  26.678   5.382  1.00  0.00    -0.271 OA
HETATM   36  N5  UNL     1      11.023  25.466   7.004  1.00  0.00    -0.351 N 
ATOM     37  H5  UNL     1      11.755  24.806   7.265  1.00  0.00     0.163 HD
BRANCH  36  38
HETATM   38  C32 UNL     1      10.126  26.028   8.006  1.00  0.00     0.022 C 
HETATM   39  C33 UNL     1       8.816  25.269   7.982  1.00  0.00     0.037 C 
HETATM   40  C34 UNL     1       9.868  27.494   7.717  1.00  0.00     0.037 C 
HETATM   41  C35 UNL     1      10.801  25.924   9.353  1.00  0.00     0.037 C 
ENDBRANCH  36  38
ENDBRANCH   8  34
BRANCH   5  42
HETATM   42  C22 UNL     1       7.338  24.404   3.033  1.00  0.00     0.075 C 
HETATM   43  C23 UNL     1       6.155  24.988   2.893  1.00  0.00     0.018 C 
BRANCH  43  44
HETATM   44  C24 UNL     1       4.884  24.345   3.044  1.00  0.00    -0.021 A 
HETATM   45  C25 UNL     1       4.700  23.191   3.748  1.00  0.00     0.014 A 
HETATM   46  C26 UNL     1       3.453  22.629   3.857  1.00  0.00     0.018 A 
HETATM   47  C27 UNL     1       2.382  23.241   3.248  1.00  0.00     0.087 A 
HETATM   48  N4  UNL     1       2.538  24.382   2.544  1.00  0.00    -0.374 N 
HETATM   49  C28 UNL     1       3.765  24.906   2.456  1.00  0.00     0.099 A 
ATOM     50  H4  UNL     1       1.742  24.833   2.093  1.00  0.00     0.164 HD
ENDBRANCH  43  44
ENDBRANCH   5  42
TORSDOF 14
ENDMDL
