MODEL 4
REMARK VINA RESULT: -8.653548391      2.874      9.062
REMARK  6 active torsions:
REMARK  status: ('A' for Active; 'I' for Inactive)
REMARK    1  A    between atoms: O1_2  and  C2_3 
REMARK    2  A    between atoms: C6_7  and  C7_8 
REMARK    3  A    between atoms: C7_8  and  N1_9 
REMARK    4  A    between atoms: C8_10  and  C9_11 
REMARK       I    between atoms: C9_11  and  N2_13 
REMARK    5  A    between atoms: N2_13  and  C10_15 
REMARK    6  A    between atoms: N3_18  and  C13_19 
ROOT
HETATM    1  N1  UNL     1       6.305   3.490  18.539  1.00  0.00    -0.337 N 
HETATM    2  C8  UNL     1       6.917   4.514  19.159  1.00  0.00     0.104 A 
HETATM    3  C18 UNL     1       8.275   4.213  19.191  1.00  0.00     0.049 A 
HETATM    4  C19 UNL     1       8.501   2.998  18.592  1.00  0.00    -0.007 A 
HETATM    5  C20 UNL     1       9.635   2.254  18.370  1.00  0.00     0.014 A 
HETATM    6  C21 UNL     1       9.521   1.044  17.729  1.00  0.00     0.001 A 
HETATM    7  C22 UNL     1       8.275   0.613  17.332  1.00  0.00     0.002 A 
HETATM    8  C23 UNL     1       7.138   1.360  17.557  1.00  0.00     0.030 A 
HETATM    9  C24 UNL     1       7.227   2.575  18.193  1.00  0.00     0.045 A 
ENDROOT
BRANCH   2  10
HETATM   10  C9  UNL     1       6.367   5.722  19.770  1.00  0.00     0.268 C 
HETATM   11  O2  UNL     1       5.983   6.718  19.109  1.00  0.00    -0.266 OA
HETATM   12  N2  UNL     1       6.235   5.831  21.201  1.00  0.00    -0.351 N 
ATOM     13  H2  UNL     1       6.531   5.053  21.790  1.00  0.00     0.163 HD
BRANCH  12  14
HETATM   14  C10 UNL     1       5.688   7.031  21.827  1.00  0.00     0.088 C 
HETATM   15  C11 UNL     1       6.576   7.455  22.937  1.00  0.00     0.055 C 
HETATM   16  C12 UNL     1       5.951   8.224  24.032  1.00  0.00     0.275 C 
HETATM   17  N3  UNL     1       4.543   8.517  23.797  1.00  0.00     0.092 N 
HETATM   18  C16 UNL     1       3.918   7.221  23.601  1.00  0.00     0.275 C 
HETATM   19  C17 UNL     1       4.263   6.776  22.203  1.00  0.00     0.055 C 
BRANCH  17  20
HETATM   20  C13 UNL     1       3.955   9.238  24.891  1.00  0.00     0.215 C 
HETATM   21  C14 UNL     1       3.375   8.304  25.941  1.00  0.00     0.042 C 
HETATM   22  C15 UNL     1       2.885  10.189  24.489  1.00  0.00     0.042 C 
ENDBRANCH  17  20
ENDBRANCH  12  14
ENDBRANCH   2  10
BRANCH   1  23
HETATM   23  C7  UNL     1       4.892   3.394  18.242  1.00  0.00     0.168 C 
BRANCH  23  24
HETATM   24  C6  UNL     1       4.096   2.674  19.243  1.00  0.00    -0.037 A 
HETATM   25  C5  UNL     1       3.012   1.962  18.826  1.00  0.00     0.009 A 
HETATM   26  C4  UNL     1       2.235   1.288  19.722  1.00  0.00     0.003 A 
HETATM   27  C3  UNL     1       2.560   1.335  21.058  1.00  0.00     0.037 A 
HETATM   28  C2  UNL     1       3.639   2.035  21.535  1.00  0.00     0.068 A 
HETATM   29  C25 UNL     1       4.407   2.712  20.576  1.00  0.00     0.045 A 
BRANCH  28  30
HETATM   30  O1  UNL     1       3.946   2.067  22.886  1.00  0.00    -0.356 OA
HETATM   31  C1  UNL     1       2.885   1.964  23.815  1.00  0.00     0.210 C 
ENDBRANCH  28  30
ENDBRANCH  23  24
ENDBRANCH   1  23
TORSDOF 6
ENDMDL
