MODEL 3
REMARK VINA RESULT: -8.859384077      2.651      7.668
REMARK  6 active torsions:
REMARK  status: ('A' for Active; 'I' for Inactive)
REMARK    1  A    between atoms: O1_2  and  C2_3 
REMARK    2  A    between atoms: C6_7  and  C7_8 
REMARK    3  A    between atoms: C7_8  and  N1_9 
REMARK    4  A    between atoms: C8_10  and  C9_11 
REMARK       I    between atoms: C9_11  and  N2_13 
REMARK    5  A    between atoms: N2_13  and  C10_15 
REMARK    6  A    between atoms: N3_18  and  C13_19 
ROOT
HETATM    1  N1  UNL     1       5.988   4.761  20.476  1.00  0.00    -0.337 N 
HETATM    2  C8  UNL     1       5.479   3.909  21.383  1.00  0.00     0.104 A 
HETATM    3  C18 UNL     1       6.092   2.679  21.170  1.00  0.00     0.049 A 
HETATM    4  C19 UNL     1       6.980   2.771  20.127  1.00  0.00    -0.007 A 
HETATM    5  C20 UNL     1       7.819   1.867  19.521  1.00  0.00     0.014 A 
HETATM    6  C21 UNL     1       8.598   2.284  18.468  1.00  0.00     0.001 A 
HETATM    7  C22 UNL     1       8.512   3.594  18.052  1.00  0.00     0.002 A 
HETATM    8  C23 UNL     1       7.669   4.500  18.660  1.00  0.00     0.030 A 
HETATM    9  C24 UNL     1       6.882   4.106  19.716  1.00  0.00     0.045 A 
ENDROOT
BRANCH   2  10
HETATM   10  C9  UNL     1       4.445   4.105  22.396  1.00  0.00     0.268 C 
HETATM   11  O2  UNL     1       3.893   3.160  23.014  1.00  0.00    -0.266 OA
HETATM   12  N2  UNL     1       3.995   5.430  22.746  1.00  0.00    -0.351 N 
ATOM     13  H2  UNL     1       4.407   6.236  22.277  1.00  0.00     0.163 HD
BRANCH  12  14
HETATM   14  C10 UNL     1       2.962   5.642  23.756  1.00  0.00     0.088 C 
HETATM   15  C11 UNL     1       1.644   5.782  23.088  1.00  0.00     0.055 C 
HETATM   16  C12 UNL     1       0.617   6.565  23.803  1.00  0.00     0.275 C 
HETATM   17  N3  UNL     1       1.052   7.016  25.120  1.00  0.00     0.092 N 
HETATM   18  C16 UNL     1       2.262   7.780  24.873  1.00  0.00     0.275 C 
HETATM   19  C17 UNL     1       3.366   6.785  24.631  1.00  0.00     0.055 C 
BRANCH  17  20
HETATM   20  C13 UNL     1       0.044   7.800  25.778  1.00  0.00     0.215 C 
HETATM   21  C14 UNL     1      -1.285   7.067  25.857  1.00  0.00     0.042 C 
HETATM   22  C15 UNL     1      -0.205   9.124  25.147  1.00  0.00     0.042 C 
ENDBRANCH  17  20
ENDBRANCH  12  14
ENDBRANCH   2  10
BRANCH   1  23
HETATM   23  C7  UNL     1       5.670   6.168  20.354  1.00  0.00     0.168 C 
BRANCH  23  24
HETATM   24  C6  UNL     1       6.681   7.081  20.900  1.00  0.00    -0.037 A 
HETATM   25  C5  UNL     1       7.276   7.973  20.059  1.00  0.00     0.009 A 
HETATM   26  C4  UNL     1       8.231   8.832  20.519  1.00  0.00     0.003 A 
HETATM   27  C3  UNL     1       8.587   8.788  21.847  1.00  0.00     0.037 A 
HETATM   28  C2  UNL     1       8.022   7.912  22.738  1.00  0.00     0.068 A 
HETATM   29  C25 UNL     1       7.045   7.049  22.219  1.00  0.00     0.045 A 
BRANCH  28  30
HETATM   30  O1  UNL     1       8.397   7.888  24.072  1.00  0.00    -0.356 OA
HETATM   31  C1  UNL     1       9.126   8.988  24.581  1.00  0.00     0.210 C 
ENDBRANCH  28  30
ENDBRANCH  23  24
ENDBRANCH   1  23
TORSDOF 6
ENDMDL
