MODEL 8
REMARK VINA RESULT: -8.540005077      1.322      1.743
REMARK  6 active torsions:
REMARK  status: ('A' for Active; 'I' for Inactive)
REMARK    1  A    between atoms: O1_2  and  C2_3 
REMARK    2  A    between atoms: C6_7  and  C7_8 
REMARK    3  A    between atoms: C7_8  and  N1_9 
REMARK    4  A    between atoms: C8_10  and  C9_11 
REMARK       I    between atoms: C9_11  and  N2_13 
REMARK    5  A    between atoms: N2_13  and  C10_15 
REMARK    6  A    between atoms: N3_18  and  C13_19 
ROOT
HETATM    1  N1  UNL     1       4.905   7.612  22.640  1.00  0.00    -0.337 N 
HETATM    2  C8  UNL     1       4.545   7.616  21.345  1.00  0.00     0.104 A 
HETATM    3  C18 UNL     1       3.466   8.487  21.229  1.00  0.00     0.049 A 
HETATM    4  C19 UNL     1       3.159   9.020  22.456  1.00  0.00    -0.007 A 
HETATM    5  C20 UNL     1       2.201   9.908  22.885  1.00  0.00     0.014 A 
HETATM    6  C21 UNL     1       2.154  10.244  24.217  1.00  0.00     0.001 A 
HETATM    7  C22 UNL     1       3.067   9.679  25.081  1.00  0.00     0.002 A 
HETATM    8  C23 UNL     1       4.027   8.788  24.649  1.00  0.00     0.030 A 
HETATM    9  C24 UNL     1       4.095   8.439  23.322  1.00  0.00     0.045 A 
ENDROOT
BRANCH   2  10
HETATM   10  C9  UNL     1       5.065   6.857  20.210  1.00  0.00     0.268 C 
HETATM   11  O2  UNL     1       5.087   7.297  19.034  1.00  0.00    -0.266 OA
HETATM   12  N2  UNL     1       5.592   5.527  20.392  1.00  0.00    -0.351 N 
ATOM     13  H2  UNL     1       5.600   5.116  21.325  1.00  0.00     0.163 HD
BRANCH  12  14
HETATM   14  C10 UNL     1       6.115   4.755  19.268  1.00  0.00     0.088 C 
HETATM   15  C11 UNL     1       5.744   3.328  19.437  1.00  0.00     0.055 C 
HETATM   16  C12 UNL     1       6.625   2.331  18.797  1.00  0.00     0.275 C 
HETATM   17  N3  UNL     1       7.699   2.933  18.015  1.00  0.00     0.092 N 
HETATM   18  C16 UNL     1       8.411   3.786  18.950  1.00  0.00     0.275 C 
HETATM   19  C17 UNL     1       7.578   5.028  19.130  1.00  0.00     0.055 C 
BRANCH  17  20
HETATM   20  C13 UNL     1       8.557   1.941  17.430  1.00  0.00     0.215 C 
HETATM   21  C14 UNL     1       7.774   0.741  16.920  1.00  0.00     0.042 C 
HETATM   22  C15 UNL     1       9.615   1.435  18.346  1.00  0.00     0.042 C 
ENDBRANCH  17  20
ENDBRANCH  12  14
ENDBRANCH   2  10
BRANCH   1  23
HETATM   23  C7  UNL     1       6.013   6.878  23.215  1.00  0.00     0.168 C 
BRANCH  23  24
HETATM   24  C6  UNL     1       7.214   7.678  23.482  1.00  0.00    -0.037 A 
HETATM   25  C5  UNL     1       7.761   8.394  22.459  1.00  0.00     0.009 A 
HETATM   26  C4  UNL     1       8.885   9.142  22.657  1.00  0.00     0.003 A 
HETATM   27  C3  UNL     1       9.462   9.165  23.906  1.00  0.00     0.037 A 
HETATM   28  C2  UNL     1       8.955   8.465  24.971  1.00  0.00     0.068 A 
HETATM   29  C25 UNL     1       7.799   7.712  24.719  1.00  0.00     0.045 A 
BRANCH  28  30
HETATM   30  O1  UNL     1       9.555   8.506  26.220  1.00  0.00    -0.356 OA
HETATM   31  C1  UNL     1      10.968   8.500  26.283  1.00  0.00     0.210 C 
ENDBRANCH  28  30
ENDBRANCH  23  24
ENDBRANCH   1  23
TORSDOF 6
ENDMDL
