MODEL 2
REMARK VINA RESULT: -9.024931422      2.644      7.678
REMARK  6 active torsions:
REMARK  status: ('A' for Active; 'I' for Inactive)
REMARK    1  A    between atoms: O1_2  and  C2_3 
REMARK    2  A    between atoms: C6_7  and  C7_8 
REMARK    3  A    between atoms: C7_8  and  N1_9 
REMARK    4  A    between atoms: C8_10  and  C9_11 
REMARK       I    between atoms: C9_11  and  N2_13 
REMARK    5  A    between atoms: N2_13  and  C10_15 
REMARK    6  A    between atoms: N3_18  and  C13_19 
ROOT
HETATM    1  N1  UNL     1       6.196   5.026  19.638  1.00  0.00    -0.337 N 
HETATM    2  C8  UNL     1       5.216   4.411  20.323  1.00  0.00     0.104 A 
HETATM    3  C18 UNL     1       5.566   3.067  20.408  1.00  0.00     0.049 A 
HETATM    4  C19 UNL     1       6.764   2.852  19.773  1.00  0.00    -0.007 A 
HETATM    5  C20 UNL     1       7.533   1.732  19.566  1.00  0.00     0.014 A 
HETATM    6  C21 UNL     1       8.710   1.853  18.867  1.00  0.00     0.001 A 
HETATM    7  C22 UNL     1       9.081   3.093  18.394  1.00  0.00     0.002 A 
HETATM    8  C23 UNL     1       8.308   4.215  18.600  1.00  0.00     0.030 A 
HETATM    9  C24 UNL     1       7.128   4.119  19.299  1.00  0.00     0.045 A 
ENDROOT
BRANCH   2  10
HETATM   10  C9  UNL     1       3.963   4.931  20.864  1.00  0.00     0.268 C 
HETATM   11  O2  UNL     1       2.890   4.967  20.212  1.00  0.00    -0.266 OA
HETATM   12  N2  UNL     1       3.895   5.443  22.210  1.00  0.00    -0.351 N 
ATOM     13  H2  UNL     1       4.736   5.440  22.788  1.00  0.00     0.163 HD
BRANCH  12  14
HETATM   14  C10 UNL     1       2.650   5.967  22.764  1.00  0.00     0.088 C 
HETATM   15  C11 UNL     1       2.755   7.441  22.901  1.00  0.00     0.055 C 
HETATM   16  C12 UNL     1       1.918   8.074  23.939  1.00  0.00     0.275 C 
HETATM   17  N3  UNL     1       1.042   7.131  24.625  1.00  0.00     0.092 N 
HETATM   18  C16 UNL     1       1.933   6.120  25.168  1.00  0.00     0.275 C 
HETATM   19  C17 UNL     1       2.329   5.225  24.022  1.00  0.00     0.055 C 
BRANCH  17  20
HETATM   20  C13 UNL     1       0.264   7.769  25.649  1.00  0.00     0.215 C 
HETATM   21  C14 UNL     1      -1.051   7.048  25.896  1.00  0.00     0.042 C 
HETATM   22  C15 UNL     1      -0.046   9.198  25.375  1.00  0.00     0.042 C 
ENDBRANCH  17  20
ENDBRANCH  12  14
ENDBRANCH   2  10
BRANCH   1  23
HETATM   23  C7  UNL     1       6.273   6.442  19.346  1.00  0.00     0.168 C 
BRANCH  23  24
HETATM   24  C6  UNL     1       7.038   7.234  20.316  1.00  0.00    -0.037 A 
HETATM   25  C5  UNL     1       7.737   8.315  19.870  1.00  0.00     0.009 A 
HETATM   26  C4  UNL     1       8.472   9.073  20.734  1.00  0.00     0.003 A 
HETATM   27  C3  UNL     1       8.499   8.732  22.066  1.00  0.00     0.037 A 
HETATM   28  C2  UNL     1       7.816   7.656  22.572  1.00  0.00     0.068 A 
HETATM   29  C25 UNL     1       7.074   6.907  21.646  1.00  0.00     0.045 A 
BRANCH  28  30
HETATM   30  O1  UNL     1       7.859   7.334  23.919  1.00  0.00    -0.356 OA
HETATM   31  C1  UNL     1       8.446   8.262  24.809  1.00  0.00     0.210 C 
ENDBRANCH  28  30
ENDBRANCH  23  24
ENDBRANCH   1  23
TORSDOF 6
ENDMDL
