MODEL 1
REMARK VINA RESULT: -9.448289868      0.000      0.000
REMARK  6 active torsions:
REMARK  status: ('A' for Active; 'I' for Inactive)
REMARK    1  A    between atoms: O1_2  and  C2_3 
REMARK    2  A    between atoms: C6_7  and  C7_8 
REMARK    3  A    between atoms: C7_8  and  N1_9 
REMARK    4  A    between atoms: C8_10  and  C9_11 
REMARK       I    between atoms: C9_11  and  N2_13 
REMARK    5  A    between atoms: N2_13  and  C10_15 
REMARK    6  A    between atoms: N3_18  and  C13_19 
ROOT
HETATM    1  N1  UNL     1       5.682   7.802  23.953  1.00  0.00    -0.337 N 
HETATM    2  C8  UNL     1       5.729   7.500  22.644  1.00  0.00     0.104 A 
HETATM    3  C18 UNL     1       4.611   8.081  22.055  1.00  0.00     0.049 A 
HETATM    4  C19 UNL     1       3.870   8.742  23.004  1.00  0.00    -0.007 A 
HETATM    5  C20 UNL     1       2.700   9.460  22.953  1.00  0.00     0.014 A 
HETATM    6  C21 UNL     1       2.204  10.007  24.112  1.00  0.00     0.001 A 
HETATM    7  C22 UNL     1       2.894   9.816  25.289  1.00  0.00     0.002 A 
HETATM    8  C23 UNL     1       4.068   9.094  25.339  1.00  0.00     0.030 A 
HETATM    9  C24 UNL     1       4.584   8.540  24.191  1.00  0.00     0.045 A 
ENDROOT
BRANCH   2  10
HETATM   10  C9  UNL     1       6.678   6.684  21.890  1.00  0.00     0.268 C 
HETATM   11  O2  UNL     1       7.829   7.076  21.574  1.00  0.00    -0.266 OA
HETATM   12  N2  UNL     1       6.329   5.353  21.459  1.00  0.00    -0.351 N 
ATOM     13  H2  UNL     1       5.407   4.981  21.687  1.00  0.00     0.163 HD
BRANCH  12  14
HETATM   14  C10 UNL     1       7.266   4.527  20.704  1.00  0.00     0.088 C 
HETATM   15  C11 UNL     1       7.271   4.960  19.285  1.00  0.00     0.055 C 
HETATM   16  C12 UNL     1       7.647   3.945  18.281  1.00  0.00     0.275 C 
HETATM   17  N3  UNL     1       8.040   2.671  18.871  1.00  0.00     0.092 N 
HETATM   18  C16 UNL     1       6.901   2.264  19.675  1.00  0.00     0.275 C 
HETATM   19  C17 UNL     1       6.939   3.086  20.936  1.00  0.00     0.055 C 
BRANCH  17  20
HETATM   20  C13 UNL     1       8.369   1.696  17.870  1.00  0.00     0.215 C 
HETATM   21  C14 UNL     1       9.516   0.799  18.306  1.00  0.00     0.042 C 
HETATM   22  C15 UNL     1       8.725   2.278  16.548  1.00  0.00     0.042 C 
ENDBRANCH  17  20
ENDBRANCH  12  14
ENDBRANCH   2  10
BRANCH   1  23
HETATM   23  C7  UNL     1       6.669   7.441  24.948  1.00  0.00     0.168 C 
BRANCH  23  24
HETATM   24  C6  UNL     1       7.914   8.215  24.896  1.00  0.00    -0.037 A 
HETATM   25  C5  UNL     1       8.015   9.228  23.990  1.00  0.00     0.009 A 
HETATM   26  C4  UNL     1       9.158   9.966  23.897  1.00  0.00     0.003 A 
HETATM   27  C3  UNL     1      10.212   9.677  24.732  1.00  0.00     0.037 A 
HETATM   28  C2  UNL     1      10.167   8.670  25.662  1.00  0.00     0.068 A 
HETATM   29  C25 UNL     1       8.972   7.939  25.721  1.00  0.00     0.045 A 
BRANCH  28  30
HETATM   30  O1  UNL     1      11.243   8.398  26.493  1.00  0.00    -0.356 OA
HETATM   31  C1  UNL     1      11.169   7.262  27.331  1.00  0.00     0.210 C 
ENDBRANCH  28  30
ENDBRANCH  23  24
ENDBRANCH   1  23
TORSDOF 6
ENDMDL
