MODEL 3
REMARK VINA RESULT: -9.589417287      2.151      5.638
REMARK  17 active torsions:
REMARK  status: ('A' for Active; 'I' for Inactive)
REMARK    1  A    between atoms: O1_2  and  C2_3 
REMARK       I    between atoms: C2_3  and  N1_5 
REMARK    2  A    between atoms: N1_5  and  C3_7 
REMARK    3  A    between atoms: C3_7  and  C4_8 
REMARK    4  A    between atoms: C3_7  and  C31_47 
REMARK    5  A    between atoms: C4_8  and  O3_9 
REMARK    6  A    between atoms: C4_8  and  N2_11 
REMARK    7  A    between atoms: N2_11  and  N3_13 
REMARK    8  A    between atoms: N3_13  and  C5_14 
REMARK    9  A    between atoms: N3_13  and  C12_21 
REMARK   10  A    between atoms: C5_14  and  C6_15 
REMARK   11  A    between atoms: C12_21  and  C13_22 
REMARK   12  A    between atoms: C13_22  and  O4_23 
REMARK   13  A    between atoms: C13_22  and  C14_25 
REMARK   14  A    between atoms: C13_22  and  C21_32 
REMARK   15  A    between atoms: C14_25  and  C15_26 
REMARK       I    between atoms: C21_32  and  N4_34 
REMARK   16  A    between atoms: N4_34  and  C22_36 
REMARK   17  A    between atoms: C30_44  and  O6_45 
ROOT
HETATM    1  C13 UNL     1      10.109  25.374   6.578  1.00  0.00     0.155 C 
ENDROOT
BRANCH   1   2
HETATM    2  C12 UNL     1      11.598  25.357   6.343  1.00  0.00     0.162 C 
BRANCH   2   3
HETATM    3  N3  UNL     1      12.226  24.192   5.907  1.00  0.00    -0.222 NA
BRANCH   3   4
HETATM    4  N2  UNL     1      13.158  23.690   6.815  1.00  0.00    -0.297 N 
ATOM      5  H2  UNL     1      13.687  24.400   7.321  1.00  0.00     0.183 HD
BRANCH   4   6
HETATM    6  C4  UNL     1      13.483  22.378   7.144  1.00  0.00     0.174 C 
BRANCH   6   7
HETATM    7  C3  UNL     1      14.707  21.764   7.628  1.00  0.00     0.069 C 
BRANCH   7   8
HETATM    8  N1  UNL     1      15.702  21.661   6.563  1.00  0.00    -0.302 N 
HETATM    9  C2  UNL     1      15.669  20.752   5.498  1.00  0.00     0.364 C 
HETATM   10  O2  UNL     1      14.767  19.923   5.385  1.00  0.00    -0.238 OA
ATOM     11  H1  UNL     1      16.489  22.308   6.597  1.00  0.00     0.171 HD
BRANCH   9  12
HETATM   12  O1  UNL     1      16.660  20.736   4.506  1.00  0.00    -0.309 OA
HETATM   13  C1  UNL     1      17.397  19.550   4.301  1.00  0.00     0.215 C 
ENDBRANCH   9  12
ENDBRANCH   7   8
BRANCH   7  14
HETATM   14  C31 UNL     1      15.262  22.130   8.956  1.00  0.00     0.032 C 
HETATM   15  C32 UNL     1      16.743  22.517   8.704  1.00  0.00     0.016 C 
HETATM   16  C33 UNL     1      15.394  20.929   9.912  1.00  0.00     0.016 C 
ENDBRANCH   7  14
ENDBRANCH   6   7
BRANCH   6  17
HETATM   17  O3  UNL     1      12.522  21.510   6.994  1.00  0.00    -0.344 OA
ATOM     18  H3  UNL     1      11.717  21.789   7.412  1.00  0.00     0.219 HD
ENDBRANCH   6  17
ENDBRANCH   4   6
ENDBRANCH   3   4
BRANCH   3  19
HETATM   19  C5  UNL     1      12.793  24.131   4.602  1.00  0.00     0.152 C 
BRANCH  19  20
HETATM   20  C6  UNL     1      11.691  23.747   3.642  1.00  0.00    -0.043 A 
HETATM   21  C7  UNL     1      11.216  24.569   2.666  1.00  0.00     0.008 A 
HETATM   22  C8  UNL     1      10.194  24.170   1.817  1.00  0.00     0.001 A 
HETATM   23  C9  UNL     1       9.618  22.915   1.933  1.00  0.00     0.000 A 
HETATM   24  C10 UNL     1      10.099  22.084   2.921  1.00  0.00     0.001 A 
HETATM   25  C11 UNL     1      11.113  22.497   3.755  1.00  0.00     0.008 A 
ENDBRANCH  19  20
ENDBRANCH   3  19
ENDBRANCH   2   3
ENDBRANCH   1   2
BRANCH   1  26
HETATM   26  O4  UNL     1       9.734  24.100   6.007  1.00  0.00    -0.378 OA
ATOM     27  H4  UNL     1       8.930  23.926   6.481  1.00  0.00     0.211 HD
ENDBRANCH   1  26
BRANCH   1  28
HETATM   28  C14 UNL     1       9.731  25.150   8.033  1.00  0.00     0.087 C 
BRANCH  28  29
HETATM   29  C15 UNL     1       9.606  26.405   8.811  1.00  0.00    -0.055 A 
HETATM   30  C16 UNL     1      10.653  26.965   9.506  1.00  0.00     0.007 A 
HETATM   31  C17 UNL     1      10.484  28.144  10.230  1.00  0.00     0.001 A 
HETATM   32  C18 UNL     1       9.248  28.770  10.259  1.00  0.00     0.000 A 
HETATM   33  C19 UNL     1       8.205  28.219   9.571  1.00  0.00     0.001 A 
HETATM   34  C20 UNL     1       8.391  27.049   8.858  1.00  0.00     0.007 A 
ENDBRANCH  28  29
ENDBRANCH   1  28
BRANCH   1  35
HETATM   35  C21 UNL     1       9.372  26.376   5.863  1.00  0.00     0.254 C 
HETATM   36  O5  UNL     1       9.720  27.596   5.714  1.00  0.00    -0.270 OA
HETATM   37  N4  UNL     1       8.135  26.082   5.225  1.00  0.00    -0.347 N 
ATOM     38  H4  UNL     1       7.765  25.134   5.303  1.00  0.00     0.163 HD
BRANCH  37  39
HETATM   39  C22 UNL     1       7.373  27.055   4.473  1.00  0.00     0.147 C 
HETATM   40  C23 UNL     1       7.772  27.076   3.035  1.00  0.00    -0.027 A 
HETATM   41  C24 UNL     1       8.715  27.780   2.292  1.00  0.00     0.010 A 
HETATM   42  C28 UNL     1       7.006  26.176   2.320  1.00  0.00    -0.047 A 
HETATM   43  C25 UNL     1       8.850  27.567   0.927  1.00  0.00     0.001 A 
HETATM   44  C26 UNL     1       8.060  26.654   0.252  1.00  0.00     0.001 A 
HETATM   45  C27 UNL     1       7.124  25.951   0.968  1.00  0.00     0.008 A 
HETATM   46  C29 UNL     1       6.053  25.507   3.264  1.00  0.00     0.073 C 
HETATM   47  C30 UNL     1       5.934  26.558   4.335  1.00  0.00     0.149 C 
BRANCH  47  48
HETATM   48  O6  UNL     1       5.447  26.021   5.503  1.00  0.00    -0.393 OA
ATOM     49  H6  UNL     1       4.529  26.222   5.642  1.00  0.00     0.210 HD
ENDBRANCH  47  48
ENDBRANCH  37  39
ENDBRANCH   1  35
TORSDOF 17
ENDMDL
