MODEL 4
REMARK VINA RESULT: -9.551305974      1.616      9.523
REMARK  17 active torsions:
REMARK  status: ('A' for Active; 'I' for Inactive)
REMARK    1  A    between atoms: O1_2  and  C2_3 
REMARK       I    between atoms: C2_3  and  N1_5 
REMARK    2  A    between atoms: N1_5  and  C3_7 
REMARK    3  A    between atoms: C3_7  and  C4_8 
REMARK    4  A    between atoms: C3_7  and  C31_47 
REMARK    5  A    between atoms: C4_8  and  O3_9 
REMARK    6  A    between atoms: C4_8  and  N2_11 
REMARK    7  A    between atoms: N2_11  and  N3_13 
REMARK    8  A    between atoms: N3_13  and  C5_14 
REMARK    9  A    between atoms: N3_13  and  C12_21 
REMARK   10  A    between atoms: C5_14  and  C6_15 
REMARK   11  A    between atoms: C12_21  and  C13_22 
REMARK   12  A    between atoms: C13_22  and  O4_23 
REMARK   13  A    between atoms: C13_22  and  C14_25 
REMARK   14  A    between atoms: C13_22  and  C21_32 
REMARK   15  A    between atoms: C14_25  and  C15_26 
REMARK       I    between atoms: C21_32  and  N4_34 
REMARK   16  A    between atoms: N4_34  and  C22_36 
REMARK   17  A    between atoms: C30_44  and  O6_45 
ROOT
HETATM    1  C13 UNL     1      14.823  23.149   6.264  1.00  0.00     0.155 C 
ENDROOT
BRANCH   1   2
HETATM    2  C12 UNL     1      13.820  24.058   5.600  1.00  0.00     0.162 C 
BRANCH   2   3
HETATM    3  N3  UNL     1      12.651  24.418   6.268  1.00  0.00    -0.222 NA
BRANCH   3   4
HETATM    4  N2  UNL     1      11.586  23.549   6.033  1.00  0.00    -0.297 N 
ATOM      5  H2  UNL     1      11.120  23.208   6.874  1.00  0.00     0.183 HD
BRANCH   4   6
HETATM    6  C4  UNL     1      11.054  23.072   4.839  1.00  0.00     0.174 C 
BRANCH   6   7
HETATM    7  C3  UNL     1      10.187  23.677   3.843  1.00  0.00     0.069 C 
BRANCH   7   8
HETATM    8  N1  UNL     1      10.100  25.123   4.027  1.00  0.00    -0.302 N 
HETATM    9  C2  UNL     1       8.917  25.860   4.173  1.00  0.00     0.364 C 
HETATM   10  O2  UNL     1       7.812  25.320   4.138  1.00  0.00    -0.238 OA
ATOM     11  H1  UNL     1      10.977  25.643   4.052  1.00  0.00     0.171 HD
BRANCH   9  12
HETATM   12  O1  UNL     1       8.928  27.249   4.365  1.00  0.00    -0.309 OA
HETATM   13  C1  UNL     1       7.910  27.835   5.147  1.00  0.00     0.215 C 
ENDBRANCH   9  12
ENDBRANCH   7   8
BRANCH   7  14
HETATM   14  C31 UNL     1      10.244  23.238   2.426  1.00  0.00     0.032 C 
HETATM   15  C32 UNL     1      10.687  24.484   1.614  1.00  0.00     0.016 C 
HETATM   16  C33 UNL     1       8.858  22.932   1.826  1.00  0.00     0.016 C 
ENDBRANCH   7  14
ENDBRANCH   6   7
BRANCH   6  17
HETATM   17  O3  UNL     1      11.377  21.848   4.535  1.00  0.00    -0.344 OA
ATOM     18  H3  UNL     1      12.231  21.605   4.874  1.00  0.00     0.219 HD
ENDBRANCH   6  17
ENDBRANCH   4   6
ENDBRANCH   3   4
BRANCH   3  19
HETATM   19  C5  UNL     1      12.166  25.755   6.189  1.00  0.00     0.152 C 
BRANCH  19  20
HETATM   20  C6  UNL     1      11.457  26.061   7.488  1.00  0.00    -0.043 A 
HETATM   21  C7  UNL     1      10.123  26.314   7.583  1.00  0.00     0.008 A 
HETATM   22  C8  UNL     1       9.524  26.600   8.801  1.00  0.00     0.001 A 
HETATM   23  C9  UNL     1      10.268  26.637   9.971  1.00  0.00     0.000 A 
HETATM   24  C10 UNL     1      11.617  26.381   9.874  1.00  0.00     0.001 A 
HETATM   25  C11 UNL     1      12.194  26.100   8.657  1.00  0.00     0.008 A 
ENDBRANCH  19  20
ENDBRANCH   3  19
ENDBRANCH   2   3
ENDBRANCH   1   2
BRANCH   1  26
HETATM   26  O4  UNL     1      16.047  23.606   5.649  1.00  0.00    -0.378 OA
ATOM     27  H4  UNL     1      16.619  23.649   6.406  1.00  0.00     0.211 HD
ENDBRANCH   1  26
BRANCH   1  28
HETATM   28  C14 UNL     1      15.087  23.510   7.717  1.00  0.00     0.087 C 
BRANCH  28  29
HETATM   29  C15 UNL     1      15.814  22.458   8.465  1.00  0.00    -0.055 A 
HETATM   30  C16 UNL     1      15.177  21.466   9.175  1.00  0.00     0.007 A 
HETATM   31  C17 UNL     1      15.905  20.503   9.870  1.00  0.00     0.001 A 
HETATM   32  C18 UNL     1      17.290  20.533   9.855  1.00  0.00     0.000 A 
HETATM   33  C19 UNL     1      17.928  21.515   9.152  1.00  0.00     0.001 A 
HETATM   34  C20 UNL     1      17.190  22.463   8.468  1.00  0.00     0.007 A 
ENDBRANCH  28  29
ENDBRANCH   1  28
BRANCH   1  35
HETATM   35  C21 UNL     1      14.705  21.752   5.954  1.00  0.00     0.254 C 
HETATM   36  O5  UNL     1      13.651  21.043   6.091  1.00  0.00    -0.270 OA
HETATM   37  N4  UNL     1      15.801  21.005   5.440  1.00  0.00    -0.347 N 
ATOM     38  H4  UNL     1      16.693  21.483   5.312  1.00  0.00     0.163 HD
BRANCH  37  39
HETATM   39  C22 UNL     1      15.717  19.604   5.090  1.00  0.00     0.147 C 
HETATM   40  C23 UNL     1      15.742  19.402   3.612  1.00  0.00    -0.027 A 
HETATM   41  C24 UNL     1      14.770  19.333   2.618  1.00  0.00     0.010 A 
HETATM   42  C28 UNL     1      17.046  19.258   3.177  1.00  0.00    -0.047 A 
HETATM   43  C25 UNL     1      15.122  19.131   1.291  1.00  0.00     0.001 A 
HETATM   44  C26 UNL     1      16.442  18.993   0.901  1.00  0.00     0.001 A 
HETATM   45  C27 UNL     1      17.414  19.058   1.867  1.00  0.00     0.008 A 
HETATM   46  C29 UNL     1      17.956  19.361   4.363  1.00  0.00     0.073 C 
HETATM   47  C30 UNL     1      17.032  18.921   5.466  1.00  0.00     0.149 C 
BRANCH  47  48
HETATM   48  O6  UNL     1      17.502  19.322   6.694  1.00  0.00    -0.393 OA
ATOM     49  H6  UNL     1      18.446  19.434   6.705  1.00  0.00     0.210 HD
ENDBRANCH  47  48
ENDBRANCH  37  39
ENDBRANCH   1  35
TORSDOF 17
ENDMDL
