MODEL 8
REMARK VINA RESULT: -9.432775775      1.485      3.844
REMARK  17 active torsions:
REMARK  status: ('A' for Active; 'I' for Inactive)
REMARK    1  A    between atoms: O1_2  and  C2_3 
REMARK       I    between atoms: C2_3  and  N1_5 
REMARK    2  A    between atoms: N1_5  and  C3_7 
REMARK    3  A    between atoms: C3_7  and  C4_8 
REMARK    4  A    between atoms: C3_7  and  C31_47 
REMARK    5  A    between atoms: C4_8  and  O3_9 
REMARK    6  A    between atoms: C4_8  and  N2_11 
REMARK    7  A    between atoms: N2_11  and  N3_13 
REMARK    8  A    between atoms: N3_13  and  C5_14 
REMARK    9  A    between atoms: N3_13  and  C12_21 
REMARK   10  A    between atoms: C5_14  and  C6_15 
REMARK   11  A    between atoms: C12_21  and  C13_22 
REMARK   12  A    between atoms: C13_22  and  O4_23 
REMARK   13  A    between atoms: C13_22  and  C14_25 
REMARK   14  A    between atoms: C13_22  and  C21_32 
REMARK   15  A    between atoms: C14_25  and  C15_26 
REMARK       I    between atoms: C21_32  and  N4_34 
REMARK   16  A    between atoms: N4_34  and  C22_36 
REMARK   17  A    between atoms: C30_44  and  O6_45 
ROOT
HETATM    1  C13 UNL     1      13.627  23.833   5.302  1.00  0.00     0.155 C 
ENDROOT
BRANCH   1   2
HETATM    2  C12 UNL     1      14.960  23.669   5.986  1.00  0.00     0.162 C 
BRANCH   2   3
HETATM    3  N3  UNL     1      15.518  22.401   6.138  1.00  0.00    -0.222 NA
BRANCH   3   4
HETATM    4  N2  UNL     1      16.134  21.922   4.982  1.00  0.00    -0.297 N 
ATOM      5  H2  UNL     1      16.021  22.516   4.160  1.00  0.00     0.183 HD
BRANCH   4   6
HETATM    6  C4  UNL     1      16.877  20.766   4.766  1.00  0.00     0.174 C 
BRANCH   6   7
HETATM    7  C3  UNL     1      16.642  19.589   3.946  1.00  0.00     0.069 C 
BRANCH   7   8
HETATM    8  N1  UNL     1      17.478  18.471   4.376  1.00  0.00    -0.302 N 
HETATM    9  C2  UNL     1      18.547  17.924   3.656  1.00  0.00     0.364 C 
HETATM   10  O2  UNL     1      18.865  18.354   2.547  1.00  0.00    -0.238 OA
ATOM     11  H1  UNL     1      17.265  18.052   5.281  1.00  0.00     0.171 HD
BRANCH   9  12
HETATM   12  O1  UNL     1      19.310  16.860   4.155  1.00  0.00    -0.309 OA
HETATM   13  C1  UNL     1      18.899  16.230   5.349  1.00  0.00     0.215 C 
ENDBRANCH   9  12
ENDBRANCH   7   8
BRANCH   7  14
HETATM   14  C31 UNL     1      15.263  19.210   3.547  1.00  0.00     0.032 C 
HETATM   15  C32 UNL     1      15.020  17.801   4.149  1.00  0.00     0.016 C 
HETATM   16  C33 UNL     1      15.116  18.951   2.036  1.00  0.00     0.016 C 
ENDBRANCH   7  14
ENDBRANCH   6   7
BRANCH   6  17
HETATM   17  O3  UNL     1      18.003  20.697   5.416  1.00  0.00    -0.344 OA
ATOM     18  H3  UNL     1      18.223  21.517   5.842  1.00  0.00     0.219 HD
ENDBRANCH   6  17
ENDBRANCH   4   6
ENDBRANCH   3   4
BRANCH   3  19
HETATM   19  C5  UNL     1      14.750  21.345   6.708  1.00  0.00     0.152 C 
BRANCH  19  20
HETATM   20  C6  UNL     1      15.256  21.120   8.114  1.00  0.00    -0.043 A 
HETATM   21  C7  UNL     1      14.774  21.774   9.207  1.00  0.00     0.008 A 
HETATM   22  C8  UNL     1      15.281  21.537  10.475  1.00  0.00     0.001 A 
HETATM   23  C9  UNL     1      16.301  20.620  10.677  1.00  0.00     0.000 A 
HETATM   24  C10 UNL     1      16.787  19.958   9.572  1.00  0.00     0.001 A 
HETATM   25  C11 UNL     1      16.272  20.207   8.320  1.00  0.00     0.008 A 
ENDBRANCH  19  20
ENDBRANCH   3  19
ENDBRANCH   2   3
ENDBRANCH   1   2
BRANCH   1  26
HETATM   26  O4  UNL     1      13.730  25.199   4.841  1.00  0.00    -0.378 OA
ATOM     27  H4  UNL     1      13.217  25.154   4.043  1.00  0.00     0.211 HD
ENDBRANCH   1  26
BRANCH   1  28
HETATM   28  C14 UNL     1      13.541  23.096   3.976  1.00  0.00     0.087 C 
BRANCH  28  29
HETATM   29  C15 UNL     1      12.211  23.190   3.331  1.00  0.00    -0.055 A 
HETATM   30  C16 UNL     1      11.819  24.268   2.572  1.00  0.00     0.007 A 
HETATM   31  C17 UNL     1      10.553  24.314   1.992  1.00  0.00     0.001 A 
HETATM   32  C18 UNL     1       9.666  23.265   2.176  1.00  0.00     0.000 A 
HETATM   33  C19 UNL     1      10.050  22.192   2.928  1.00  0.00     0.001 A 
HETATM   34  C20 UNL     1      11.309  22.163   3.496  1.00  0.00     0.007 A 
ENDBRANCH  28  29
ENDBRANCH   1  28
BRANCH   1  35
HETATM   35  C21 UNL     1      12.474  23.774   6.154  1.00  0.00     0.254 C 
HETATM   36  O5  UNL     1      12.114  22.769   6.855  1.00  0.00    -0.270 OA
HETATM   37  N4  UNL     1      11.594  24.882   6.299  1.00  0.00    -0.347 N 
ATOM     38  H4  UNL     1      11.790  25.728   5.763  1.00  0.00     0.163 HD
BRANCH  37  39
HETATM   39  C22 UNL     1      10.436  24.873   7.166  1.00  0.00     0.147 C 
HETATM   40  C23 UNL     1      10.497  25.966   8.181  1.00  0.00    -0.027 A 
HETATM   41  C24 UNL     1      11.008  26.075   9.471  1.00  0.00     0.010 A 
HETATM   42  C28 UNL     1       9.902  27.108   7.681  1.00  0.00    -0.047 A 
HETATM   43  C25 UNL     1      10.909  27.265  10.178  1.00  0.00     0.001 A 
HETATM   44  C26 UNL     1      10.305  28.385   9.636  1.00  0.00     0.001 A 
HETATM   45  C27 UNL     1       9.795  28.296   8.365  1.00  0.00     0.008 A 
HETATM   46  C29 UNL     1       9.414  26.821   6.293  1.00  0.00     0.073 C 
HETATM   47  C30 UNL     1       9.216  25.331   6.367  1.00  0.00     0.149 C 
BRANCH  47  48
HETATM   48  O6  UNL     1       9.170  24.775   5.110  1.00  0.00    -0.393 OA
ATOM     49  H6  UNL     1       8.702  25.321   4.487  1.00  0.00     0.210 HD
ENDBRANCH  47  48
ENDBRANCH  37  39
ENDBRANCH   1  35
TORSDOF 17
ENDMDL
