MODEL 5
REMARK VINA RESULT: -9.537411613      1.853      8.869
REMARK  17 active torsions:
REMARK  status: ('A' for Active; 'I' for Inactive)
REMARK    1  A    between atoms: O1_2  and  C2_3 
REMARK       I    between atoms: C2_3  and  N1_5 
REMARK    2  A    between atoms: N1_5  and  C3_7 
REMARK    3  A    between atoms: C3_7  and  C4_8 
REMARK    4  A    between atoms: C3_7  and  C31_47 
REMARK    5  A    between atoms: C4_8  and  O3_9 
REMARK    6  A    between atoms: C4_8  and  N2_11 
REMARK    7  A    between atoms: N2_11  and  N3_13 
REMARK    8  A    between atoms: N3_13  and  C5_14 
REMARK    9  A    between atoms: N3_13  and  C12_21 
REMARK   10  A    between atoms: C5_14  and  C6_15 
REMARK   11  A    between atoms: C12_21  and  C13_22 
REMARK   12  A    between atoms: C13_22  and  O4_23 
REMARK   13  A    between atoms: C13_22  and  C14_25 
REMARK   14  A    between atoms: C13_22  and  C21_32 
REMARK   15  A    between atoms: C14_25  and  C15_26 
REMARK       I    between atoms: C21_32  and  N4_34 
REMARK   16  A    between atoms: N4_34  and  C22_36 
REMARK   17  A    between atoms: C30_44  and  O6_45 
ROOT
HETATM    1  C13 UNL     1      14.409  23.310   6.817  1.00  0.00     0.155 C 
ENDROOT
BRANCH   1   2
HETATM    2  C12 UNL     1      13.028  22.705   6.861  1.00  0.00     0.162 C 
BRANCH   2   3
HETATM    3  N3  UNL     1      12.037  23.158   5.993  1.00  0.00    -0.222 NA
BRANCH   3   4
HETATM    4  N2  UNL     1      11.065  23.939   6.617  1.00  0.00    -0.297 N 
ATOM      5  H2  UNL     1      10.358  23.412   7.130  1.00  0.00     0.183 HD
BRANCH   4   6
HETATM    6  C4  UNL     1      10.901  25.320   6.653  1.00  0.00     0.174 C 
BRANCH   6   7
HETATM    7  C3  UNL     1      10.113  26.191   7.508  1.00  0.00     0.069 C 
BRANCH   7   8
HETATM    8  N1  UNL     1       8.740  26.305   7.022  1.00  0.00    -0.302 N 
HETATM    9  C2  UNL     1       8.300  27.165   6.008  1.00  0.00     0.364 C 
HETATM   10  O2  UNL     1       9.070  27.936   5.436  1.00  0.00    -0.238 OA
ATOM     11  H1  UNL     1       8.041  25.706   7.459  1.00  0.00     0.171 HD
BRANCH   9  12
HETATM   12  O1  UNL     1       6.962  27.196   5.590  1.00  0.00    -0.309 OA
HETATM   13  C1  UNL     1       6.069  28.081   6.232  1.00  0.00     0.215 C 
ENDBRANCH   9  12
ENDBRANCH   7   8
BRANCH   7  14
HETATM   14  C31 UNL     1      10.239  26.114   8.986  1.00  0.00     0.032 C 
HETATM   15  C32 UNL     1       9.519  27.372   9.538  1.00  0.00     0.016 C 
HETATM   16  C33 UNL     1      11.682  26.316   9.485  1.00  0.00     0.016 C 
ENDBRANCH   7  14
ENDBRANCH   6   7
BRANCH   6  17
HETATM   17  O3  UNL     1      11.570  25.985   5.755  1.00  0.00    -0.344 OA
ATOM     18  H3  UNL     1      12.370  25.541   5.500  1.00  0.00     0.219 HD
ENDBRANCH   6  17
ENDBRANCH   4   6
ENDBRANCH   3   4
BRANCH   3  19
HETATM   19  C5  UNL     1      11.383  22.245   5.115  1.00  0.00     0.152 C 
BRANCH  19  20
HETATM   20  C6  UNL     1      11.037  22.996   3.850  1.00  0.00    -0.043 A 
HETATM   21  C7  UNL     1      11.871  23.886   3.245  1.00  0.00     0.008 A 
HETATM   22  C8  UNL     1      11.499  24.556   2.089  1.00  0.00     0.001 A 
HETATM   23  C9  UNL     1      10.259  24.342   1.507  1.00  0.00     0.000 A 
HETATM   24  C10 UNL     1       9.417  23.442   2.119  1.00  0.00     0.001 A 
HETATM   25  C11 UNL     1       9.803  22.786   3.266  1.00  0.00     0.008 A 
ENDBRANCH  19  20
ENDBRANCH   3  19
ENDBRANCH   2   3
ENDBRANCH   1   2
BRANCH   1  26
HETATM   26  O4  UNL     1      14.083  24.704   6.620  1.00  0.00    -0.378 OA
ATOM     27  H4  UNL     1      14.235  24.789   5.686  1.00  0.00     0.211 HD
ENDBRANCH   1  26
BRANCH   1  28
HETATM   28  C14 UNL     1      15.079  23.368   8.180  1.00  0.00     0.087 C 
BRANCH  28  29
HETATM   29  C15 UNL     1      16.014  22.247   8.428  1.00  0.00    -0.055 A 
HETATM   30  C16 UNL     1      15.599  20.990   8.802  1.00  0.00     0.007 A 
HETATM   31  C17 UNL     1      16.519  19.970   9.031  1.00  0.00     0.001 A 
HETATM   32  C18 UNL     1      17.876  20.211   8.885  1.00  0.00     0.000 A 
HETATM   33  C19 UNL     1      18.294  21.457   8.513  1.00  0.00     0.001 A 
HETATM   34  C20 UNL     1      17.368  22.458   8.290  1.00  0.00     0.007 A 
ENDBRANCH  28  29
ENDBRANCH   1  28
BRANCH   1  35
HETATM   35  C21 UNL     1      15.229  22.919   5.707  1.00  0.00     0.254 C 
HETATM   36  O5  UNL     1      15.858  23.712   4.927  1.00  0.00    -0.270 OA
HETATM   37  N4  UNL     1      15.425  21.552   5.367  1.00  0.00    -0.347 N 
ATOM     38  H4  UNL     1      14.948  20.843   5.924  1.00  0.00     0.163 HD
BRANCH  37  39
HETATM   39  C22 UNL     1      16.264  21.114   4.273  1.00  0.00     0.147 C 
HETATM   40  C23 UNL     1      17.124  19.958   4.664  1.00  0.00    -0.027 A 
HETATM   41  C24 UNL     1      18.396  19.828   5.212  1.00  0.00     0.010 A 
HETATM   42  C28 UNL     1      16.464  18.772   4.409  1.00  0.00    -0.047 A 
HETATM   43  C25 UNL     1      18.936  18.576   5.471  1.00  0.00     0.001 A 
HETATM   44  C26 UNL     1      18.237  17.413   5.200  1.00  0.00     0.001 A 
HETATM   45  C27 UNL     1      16.981  17.522   4.659  1.00  0.00     0.008 A 
HETATM   46  C29 UNL     1      15.118  19.090   3.830  1.00  0.00     0.073 C 
HETATM   47  C30 UNL     1      15.389  20.438   3.217  1.00  0.00     0.149 C 
BRANCH  47  48
HETATM   48  O6  UNL     1      14.217  21.120   2.988  1.00  0.00    -0.393 OA
ATOM     49  H6  UNL     1      13.585  20.605   2.501  1.00  0.00     0.210 HD
ENDBRANCH  47  48
ENDBRANCH  37  39
ENDBRANCH   1  35
TORSDOF 17
ENDMDL
