MODEL 8
REMARK VINA RESULT: -4.000325773      1.258      1.258
REMARK  1 active torsions:
REMARK  status: ('A' for Active; 'I' for Inactive)
REMARK    1  A    between atoms: N1_1  and  C1_5 
ROOT
HETATM    1  C1  UNL     1       8.497  22.126  13.004  1.00  0.00     0.284 C 
HETATM    2  C2  UNL     1       7.680  21.581  14.183  1.00  0.00     0.070 C 
HETATM    3  C3  UNL     1       7.452  22.896  14.912  1.00  0.00     0.181 C 
HETATM    4  O1  UNL     1       8.767  23.463  14.865  1.00  0.00    -0.320 OA
HETATM    5  C4  UNL     1       9.427  23.014  13.735  1.00  0.00     0.289 C 
HETATM    6  O2  UNL     1      10.593  23.304  13.394  1.00  0.00    -0.263 OA
ENDROOT
BRANCH   1   7
HETATM    7  N1  UNL     1       9.119  21.103  12.251  1.00  0.00    -0.066 N 
ATOM      8  H13 UNL     1      10.135  21.171  12.313  1.00  0.00     0.275 HD
ATOM      9  H12 UNL     1       8.988  20.192  12.692  1.00  0.00     0.275 HD
ATOM     10  H11 UNL     1       8.812  21.086  11.279  1.00  0.00     0.275 HD
ENDBRANCH   1   7
TORSDOF 1
ENDMDL
