MODEL 1
REMARK VINA RESULT: -4.488725344      0.000      0.000
REMARK  1 active torsions:
REMARK  status: ('A' for Active; 'I' for Inactive)
REMARK    1  A    between atoms: N1_1  and  C1_5 
ROOT
HETATM    1  C1  UNL     1       8.681  21.713  13.148  1.00  0.00     0.284 C 
HETATM    2  C2  UNL     1       9.186  21.589  14.592  1.00  0.00     0.070 C 
HETATM    3  C3  UNL     1       8.862  23.001  15.055  1.00  0.00     0.181 C 
HETATM    4  O1  UNL     1       9.359  23.768  13.951  1.00  0.00    -0.320 OA
HETATM    5  C4  UNL     1       9.273  23.020  12.789  1.00  0.00     0.289 C 
HETATM    6  O2  UNL     1       9.631  23.382  11.648  1.00  0.00    -0.263 OA
ENDROOT
BRANCH   1   7
HETATM    7  N1  UNL     1       9.088  20.632  12.332  1.00  0.00    -0.066 N 
ATOM      8  H13 UNL     1       9.944  20.859  11.825  1.00  0.00     0.275 HD
ATOM      9  H12 UNL     1       9.432  19.855  12.897  1.00  0.00     0.275 HD
ATOM     10  H11 UNL     1       8.355  20.323  11.693  1.00  0.00     0.275 HD
ENDBRANCH   1   7
TORSDOF 1
ENDMDL
