MODEL 6
REMARK VINA RESULT: -4.026967525      1.184      1.452
REMARK  1 active torsions:
REMARK  status: ('A' for Active; 'I' for Inactive)
REMARK    1  A    between atoms: N1_1  and  C1_5 
ROOT
HETATM    1  C1  UNL     1       8.465  21.901  13.852  1.00  0.00     0.284 C 
HETATM    2  C2  UNL     1       8.440  21.165  15.198  1.00  0.00     0.070 C 
HETATM    3  C3  UNL     1       7.849  22.283  16.044  1.00  0.00     0.181 C 
HETATM    4  O1  UNL     1       8.631  23.399  15.600  1.00  0.00    -0.320 OA
HETATM    5  C4  UNL     1       9.025  23.199  14.289  1.00  0.00     0.289 C 
HETATM    6  O2  UNL     1       9.726  23.971  13.601  1.00  0.00    -0.263 OA
ENDROOT
BRANCH   1   7
HETATM    7  N1  UNL     1       9.227  21.224  12.873  1.00  0.00    -0.066 N 
ATOM      8  H13 UNL     1      10.109  20.890  13.262  1.00  0.00     0.275 HD
ATOM      9  H12 UNL     1       8.803  20.328  12.633  1.00  0.00     0.275 HD
ATOM     10  H11 UNL     1       9.387  21.788  12.038  1.00  0.00     0.275 HD
ENDBRANCH   1   7
TORSDOF 1
ENDMDL
