MODEL 1
REMARK VINA RESULT: -8.041894388      0.000      0.000
REMARK  5 active torsions:
REMARK  status: ('A' for Active; 'I' for Inactive)
REMARK    1  A    between atoms: O1_1  and  C1_3 
REMARK    2  A    between atoms: C1_3  and  C2_4 
REMARK    3  A    between atoms: C2_4  and  N1_5 
REMARK    4  A    between atoms: N1_5  and  C3_7 
REMARK    5  A    between atoms: C6_15  and  C7_16 
ROOT
HETATM    1  C3  UNL     1      18.379  -2.518  10.080  1.00  0.00     0.117 A 
HETATM    2  N2  UNL     1      19.096  -1.890   9.106  1.00  0.00    -0.338 N 
ATOM      3  H2  UNL     1      20.085  -2.097   8.971  1.00  0.00     0.168 HD
HETATM    4  C4  UNL     1      18.473  -0.997   8.334  1.00  0.00     0.184 A 
HETATM    5  N3  UNL     1      17.176  -0.694   8.476  1.00  0.00    -0.332 N 
ATOM      6  H3  UNL     1      16.741  -0.005   7.863  1.00  0.00     0.168 HD
HETATM    7  C5  UNL     1      16.450  -1.303   9.432  1.00  0.00     0.164 A 
HETATM    8  O2  UNL     1      15.192  -1.189   9.772  1.00  0.00    -0.291 OA
HETATM    9  C6  UNL     1      14.873  -1.964  10.760  1.00  0.00     0.100 A 
HETATM   10  C13 UNL     1      16.050  -2.656  11.099  1.00  0.00     0.027 A 
HETATM   11  C14 UNL     1      16.148  -3.632  12.151  1.00  0.00    -0.022 A 
HETATM   12  C15 UNL     1      16.391  -3.295  13.473  1.00  0.00     0.012 A 
HETATM   13  C16 UNL     1      16.439  -4.296  14.421  1.00  0.00     0.001 A 
HETATM   14  C17 UNL     1      16.253  -5.609  14.079  1.00  0.00     0.000 A 
HETATM   15  C18 UNL     1      16.011  -5.966  12.769  1.00  0.00     0.001 A 
HETATM   16  C19 UNL     1      15.962  -4.974  11.826  1.00  0.00     0.012 A 
HETATM   17  C20 UNL     1      17.043  -2.231  10.254  1.00  0.00     0.073 A 
ENDROOT
BRANCH   1  18
HETATM   18  N1  UNL     1      18.999  -3.444  10.948  1.00  0.00    -0.373 N 
ATOM     19  H1  UNL     1      18.492  -4.263  11.281  1.00  0.00     0.161 HD
BRANCH  18  20
HETATM   20  C2  UNL     1      20.366  -3.207  11.356  1.00  0.00     0.147 C 
BRANCH  20  21
HETATM   21  C1  UNL     1      21.383  -4.053  10.683  1.00  0.00     0.183 C 
BRANCH  21  22
HETATM   22  O1  UNL     1      21.286  -4.193   9.332  1.00  0.00    -0.399 OA
ATOM     23  H1  UNL     1      21.862  -4.824   8.916  1.00  0.00     0.209 HD
ENDBRANCH  21  22
ENDBRANCH  20  21
ENDBRANCH  18  20
ENDBRANCH   1  18
BRANCH   9  24
HETATM   24  C7  UNL     1      13.614  -2.162  11.453  1.00  0.00    -0.001 A 
HETATM   25  C8  UNL     1      13.146  -1.206  12.339  1.00  0.00     0.014 A 
HETATM   26  C9  UNL     1      11.949  -1.379  13.012  1.00  0.00     0.001 A 
HETATM   27  C10 UNL     1      11.173  -2.505  12.830  1.00  0.00     0.000 A 
HETATM   28  C11 UNL     1      11.626  -3.468  11.949  1.00  0.00     0.001 A 
HETATM   29  C12 UNL     1      12.828  -3.283  11.282  1.00  0.00     0.014 A 
ENDBRANCH   9  24
TORSDOF 5
ENDMDL
