MODEL 4
REMARK VINA RESULT: -7.888852441      1.302      1.583
REMARK  5 active torsions:
REMARK  status: ('A' for Active; 'I' for Inactive)
REMARK    1  A    between atoms: O1_1  and  C1_3 
REMARK    2  A    between atoms: C1_3  and  C2_4 
REMARK    3  A    between atoms: C2_4  and  N1_5 
REMARK    4  A    between atoms: N1_5  and  C3_7 
REMARK    5  A    between atoms: C6_15  and  C7_16 
ROOT
HETATM    1  C3  UNL     1      19.047  -2.943   9.624  1.00  0.00     0.117 A 
HETATM    2  N2  UNL     1      19.742  -2.133   8.778  1.00  0.00    -0.338 N 
ATOM      3  H2  UNL     1      20.689  -2.373   8.487  1.00  0.00     0.168 HD
HETATM    4  C4  UNL     1      19.154  -1.018   8.339  1.00  0.00     0.184 A 
HETATM    5  N3  UNL     1      17.912  -0.664   8.695  1.00  0.00    -0.332 N 
ATOM      6  H3  UNL     1      17.502   0.198   8.334  1.00  0.00     0.168 HD
HETATM    7  C5  UNL     1      17.209  -1.450   9.529  1.00  0.00     0.164 A 
HETATM    8  O2  UNL     1      16.001  -1.334  10.022  1.00  0.00    -0.291 OA
HETATM    9  C6  UNL     1      15.686  -2.321  10.800  1.00  0.00     0.100 A 
HETATM   10  C13 UNL     1      16.808  -3.169  10.816  1.00  0.00     0.027 A 
HETATM   11  C14 UNL     1      16.891  -4.399  11.558  1.00  0.00    -0.022 A 
HETATM   12  C15 UNL     1      17.276  -4.454  12.888  1.00  0.00     0.012 A 
HETATM   13  C16 UNL     1      17.297  -5.674  13.529  1.00  0.00     0.001 A 
HETATM   14  C17 UNL     1      16.947  -6.827  12.877  1.00  0.00     0.000 A 
HETATM   15  C18 UNL     1      16.561  -6.795  11.553  1.00  0.00     0.001 A 
HETATM   16  C19 UNL     1      16.539  -5.583  10.915  1.00  0.00     0.012 A 
HETATM   17  C20 UNL     1      17.767  -2.610  10.010  1.00  0.00     0.073 A 
ENDROOT
BRANCH   1  18
HETATM   18  N1  UNL     1      19.635  -4.116  10.146  1.00  0.00    -0.373 N 
ATOM     19  H1  UNL     1      19.410  -5.029   9.754  1.00  0.00     0.161 HD
BRANCH  18  20
HETATM   20  C2  UNL     1      20.564  -3.995  11.249  1.00  0.00     0.147 C 
BRANCH  20  21
HETATM   21  C1  UNL     1      20.946  -5.274  11.898  1.00  0.00     0.183 C 
BRANCH  21  22
HETATM   22  O1  UNL     1      20.195  -6.372  11.607  1.00  0.00    -0.399 OA
ATOM     23  H1  UNL     1      19.605  -6.313  10.864  1.00  0.00     0.209 HD
ENDBRANCH  21  22
ENDBRANCH  20  21
ENDBRANCH  18  20
ENDBRANCH   1  18
BRANCH   9  24
HETATM   24  C7  UNL     1      14.475  -2.599  11.548  1.00  0.00    -0.001 A 
HETATM   25  C8  UNL     1      13.334  -3.035  10.894  1.00  0.00     0.014 A 
HETATM   26  C9  UNL     1      12.168  -3.301  11.592  1.00  0.00     0.001 A 
HETATM   27  C10 UNL     1      12.092  -3.145  12.960  1.00  0.00     0.000 A 
HETATM   28  C11 UNL     1      13.221  -2.711  13.627  1.00  0.00     0.001 A 
HETATM   29  C12 UNL     1      14.383  -2.447  12.916  1.00  0.00     0.014 A 
ENDBRANCH   9  24
TORSDOF 5
ENDMDL
