MODEL 2
REMARK VINA RESULT: -8.000610105      2.261      5.936
REMARK  5 active torsions:
REMARK  status: ('A' for Active; 'I' for Inactive)
REMARK    1  A    between atoms: O1_1  and  C1_3 
REMARK    2  A    between atoms: C1_3  and  C2_4 
REMARK    3  A    between atoms: C2_4  and  N1_5 
REMARK    4  A    between atoms: N1_5  and  C3_7 
REMARK    5  A    between atoms: C6_15  and  C7_16 
ROOT
HETATM    1  C3  UNL     1      13.827  -2.200  10.848  1.00  0.00     0.117 A 
HETATM    2  N2  UNL     1      12.855  -1.292  10.556  1.00  0.00    -0.338 N 
ATOM      3  H2  UNL     1      11.880  -1.478  10.791  1.00  0.00     0.168 HD
HETATM    4  C4  UNL     1      13.208  -0.155   9.954  1.00  0.00     0.184 A 
HETATM    5  N3  UNL     1      14.475   0.131   9.626  1.00  0.00    -0.332 N 
ATOM      6  H3  UNL     1      14.699   1.014   9.167  1.00  0.00     0.168 HD
HETATM    7  C5  UNL     1      15.450  -0.753   9.907  1.00  0.00     0.164 A 
HETATM    8  O2  UNL     1      16.741  -0.717   9.696  1.00  0.00    -0.291 OA
HETATM    9  C6  UNL     1      17.342  -1.783  10.122  1.00  0.00     0.100 A 
HETATM   10  C13 UNL     1      16.335  -2.599  10.668  1.00  0.00     0.027 A 
HETATM   11  C14 UNL     1      16.563  -3.889  11.263  1.00  0.00    -0.022 A 
HETATM   12  C15 UNL     1      16.617  -5.061  10.526  1.00  0.00     0.012 A 
HETATM   13  C16 UNL     1      16.871  -6.250  11.177  1.00  0.00     0.001 A 
HETATM   14  C17 UNL     1      17.068  -6.291  12.532  1.00  0.00     0.000 A 
HETATM   15  C18 UNL     1      17.017  -5.136  13.284  1.00  0.00     0.001 A 
HETATM   16  C19 UNL     1      16.766  -3.954  12.639  1.00  0.00     0.012 A 
HETATM   17  C20 UNL     1      15.141  -1.939  10.527  1.00  0.00     0.073 A 
ENDROOT
BRANCH   1  18
HETATM   18  N1  UNL     1      13.503  -3.435  11.451  1.00  0.00    -0.373 N 
ATOM     19  H1  UNL     1      14.119  -4.241  11.350  1.00  0.00     0.161 HD
BRANCH  18  20
HETATM   20  C2  UNL     1      12.278  -3.535  12.216  1.00  0.00     0.147 C 
BRANCH  20  21
HETATM   21  C1  UNL     1      12.297  -2.850  13.532  1.00  0.00     0.183 C 
BRANCH  21  22
HETATM   22  O1  UNL     1      11.675  -1.641  13.617  1.00  0.00    -0.399 OA
ATOM     23  H1  UNL     1      11.980  -1.039  14.285  1.00  0.00     0.209 HD
ENDBRANCH  21  22
ENDBRANCH  20  21
ENDBRANCH  18  20
ENDBRANCH   1  18
BRANCH   9  24
HETATM   24  C7  UNL     1      18.741  -2.166  10.097  1.00  0.00    -0.001 A 
HETATM   25  C8  UNL     1      19.390  -2.363   8.889  1.00  0.00     0.014 A 
HETATM   26  C9  UNL     1      20.724  -2.734   8.845  1.00  0.00     0.001 A 
HETATM   27  C10 UNL     1      21.460  -2.921   9.996  1.00  0.00     0.000 A 
HETATM   28  C11 UNL     1      20.828  -2.727  11.209  1.00  0.00     0.001 A 
HETATM   29  C12 UNL     1      19.491  -2.358  11.239  1.00  0.00     0.014 A 
ENDBRANCH   9  24
TORSDOF 5
ENDMDL
