MODEL 3
REMARK VINA RESULT: -7.956037248      3.212      6.108
REMARK  5 active torsions:
REMARK  status: ('A' for Active; 'I' for Inactive)
REMARK    1  A    between atoms: O1_1  and  C1_3 
REMARK    2  A    between atoms: C1_3  and  C2_4 
REMARK    3  A    between atoms: C2_4  and  N1_5 
REMARK    4  A    between atoms: N1_5  and  C3_7 
REMARK    5  A    between atoms: C6_15  and  C7_16 
ROOT
HETATM    1  C3  UNL     1      14.736  -6.635  13.276  1.00  0.00     0.117 A 
HETATM    2  N2  UNL     1      15.130  -7.904  13.574  1.00  0.00    -0.338 N 
ATOM      3  H2  UNL     1      14.556  -8.503  14.167  1.00  0.00     0.168 HD
HETATM    4  C4  UNL     1      16.285  -8.346  13.072  1.00  0.00     0.184 A 
HETATM    5  N3  UNL     1      17.071  -7.595  12.289  1.00  0.00    -0.332 N 
ATOM      6  H3  UNL     1      17.946  -7.974  11.927  1.00  0.00     0.168 HD
HETATM    7  C5  UNL     1      16.699  -6.339  11.982  1.00  0.00     0.164 A 
HETATM    8  O2  UNL     1      17.275  -5.417  11.253  1.00  0.00    -0.291 OA
HETATM    9  C6  UNL     1      16.583  -4.322  11.202  1.00  0.00     0.100 A 
HETATM   10  C13 UNL     1      15.436  -4.557  11.982  1.00  0.00     0.027 A 
HETATM   11  C14 UNL     1      14.386  -3.598  12.197  1.00  0.00    -0.022 A 
HETATM   12  C15 UNL     1      14.432  -2.638  13.196  1.00  0.00     0.012 A 
HETATM   13  C16 UNL     1      13.392  -1.740  13.309  1.00  0.00     0.001 A 
HETATM   14  C17 UNL     1      12.320  -1.780  12.457  1.00  0.00     0.000 A 
HETATM   15  C18 UNL     1      12.254  -2.728  11.457  1.00  0.00     0.001 A 
HETATM   16  C19 UNL     1      13.286  -3.621  11.342  1.00  0.00     0.012 A 
HETATM   17  C20 UNL     1      15.519  -5.835  12.472  1.00  0.00     0.073 A 
ENDROOT
BRANCH   1  18
HETATM   18  N1  UNL     1      13.541  -6.106  13.810  1.00  0.00    -0.373 N 
ATOM     19  H1  UNL     1      12.664  -6.179  13.295  1.00  0.00     0.161 HD
BRANCH  18  20
HETATM   20  C2  UNL     1      13.585  -5.459  15.104  1.00  0.00     0.147 C 
BRANCH  20  21
HETATM   21  C1  UNL     1      14.600  -5.994  16.045  1.00  0.00     0.183 C 
BRANCH  21  22
HETATM   22  O1  UNL     1      14.224  -6.162  17.342  1.00  0.00    -0.399 OA
ATOM     23  H1  UNL     1      14.774  -5.772  18.010  1.00  0.00     0.209 HD
ENDBRANCH  21  22
ENDBRANCH  20  21
ENDBRANCH  18  20
ENDBRANCH   1  18
BRANCH   9  24
HETATM   24  C7  UNL     1      16.833  -3.064  10.525  1.00  0.00    -0.001 A 
HETATM   25  C8  UNL     1      17.846  -2.225  10.961  1.00  0.00     0.014 A 
HETATM   26  C9  UNL     1      18.097  -1.018  10.330  1.00  0.00     0.001 A 
HETATM   27  C10 UNL     1      17.353  -0.601   9.245  1.00  0.00     0.000 A 
HETATM   28  C11 UNL     1      16.339  -1.427   8.798  1.00  0.00     0.001 A 
HETATM   29  C12 UNL     1      16.098  -2.632   9.440  1.00  0.00     0.014 A 
ENDBRANCH   9  24
TORSDOF 5
ENDMDL
