MODEL 2
REMARK VINA RESULT: -7.595341386      1.035      1.401
REMARK  6 active torsions:
REMARK  status: ('A' for Active; 'I' for Inactive)
REMARK    1  A    between atoms: O1_1  and  C1_3 
REMARK    2  A    between atoms: C1_3  and  C2_4 
REMARK    3  A    between atoms: C2_4  and  N1_5 
REMARK    4  A    between atoms: N1_5  and  C3_7 
REMARK    5  A    between atoms: C6_16  and  C7_17 
REMARK    6  A    between atoms: C13_23  and  C14_24 
ROOT
HETATM    1  C3  UNL     1       2.254  -5.144  19.196  1.00  0.00     0.117 A 
HETATM    2  N2  UNL     1       1.599  -4.516  20.222  1.00  0.00    -0.338 N 
ATOM      3  H2  UNL     1       0.611  -4.706  20.389  1.00  0.00     0.168 HD
HETATM    4  C4  UNL     1       2.254  -3.658  21.000  1.00  0.00     0.183 A 
HETATM    5  N3  UNL     1       3.551  -3.403  20.789  1.00  0.00    -0.338 N 
ATOM      6  H3  UNL     1       4.020  -2.740  21.406  1.00  0.00     0.168 HD
HETATM    7  C5  UNL     1       4.259  -3.968  19.819  1.00  0.00     0.121 A 
HETATM    8  N4  UNL     1       5.540  -3.865  19.431  1.00  0.00    -0.340 N 
ATOM      9  H4  UNL     1       6.250  -3.274  19.864  1.00  0.00     0.167 HD
HETATM   10  C6  UNL     1       5.727  -4.672  18.376  1.00  0.00     0.056 A 
HETATM   11  C13 UNL     1       4.525  -5.323  18.066  1.00  0.00     0.019 A 
HETATM   12  C20 UNL     1       3.605  -4.878  18.975  1.00  0.00     0.065 A 
ENDROOT
BRANCH   1  13
HETATM   13  N1  UNL     1       1.531  -6.031  18.379  1.00  0.00    -0.373 N 
ATOM     14  H1  UNL     1       2.017  -6.809  17.934  1.00  0.00     0.161 HD
BRANCH  13  15
HETATM   15  C2  UNL     1       0.122  -5.865  18.157  1.00  0.00     0.147 C 
BRANCH  15  16
HETATM   16  C1  UNL     1      -0.762  -6.827  18.869  1.00  0.00     0.183 C 
BRANCH  16  17
HETATM   17  O1  UNL     1      -0.570  -6.776  20.233  1.00  0.00    -0.399 OA
ATOM     18  H1  UNL     1      -1.364  -6.998  20.705  1.00  0.00     0.209 HD
ENDBRANCH  16  17
ENDBRANCH  15  16
ENDBRANCH  13  15
ENDBRANCH   1  13
BRANCH  11  19
HETATM   19  C14 UNL     1       4.332  -6.272  16.989  1.00  0.00    -0.023 A 
HETATM   20  C15 UNL     1       4.460  -7.631  17.194  1.00  0.00     0.012 A 
HETATM   21  C16 UNL     1       4.287  -8.462  16.109  1.00  0.00     0.001 A 
HETATM   22  C17 UNL     1       3.995  -7.997  14.845  1.00  0.00     0.000 A 
HETATM   23  C18 UNL     1       3.866  -6.632  14.640  1.00  0.00     0.001 A 
HETATM   24  C19 UNL     1       4.038  -5.796  15.716  1.00  0.00     0.012 A 
ENDBRANCH  11  19
BRANCH  10  25
HETATM   25  C7  UNL     1       6.954  -4.890  17.624  1.00  0.00    -0.009 A 
HETATM   26  C8  UNL     1       7.305  -4.008  16.632  1.00  0.00     0.014 A 
HETATM   27  C9  UNL     1       8.445  -4.161  15.898  1.00  0.00     0.001 A 
HETATM   28  C10 UNL     1       9.293  -5.237  16.142  1.00  0.00     0.000 A 
HETATM   29  C11 UNL     1       8.958  -6.132  17.133  1.00  0.00     0.001 A 
HETATM   30  C12 UNL     1       7.802  -5.951  17.858  1.00  0.00     0.014 A 
ENDBRANCH  10  25
TORSDOF 6
ENDMDL
