MODEL 1
REMARK VINA RESULT: -7.768012657      0.000      0.000
REMARK  6 active torsions:
REMARK  status: ('A' for Active; 'I' for Inactive)
REMARK    1  A    between atoms: O1_1  and  C1_3 
REMARK    2  A    between atoms: C1_3  and  C2_4 
REMARK    3  A    between atoms: C2_4  and  N1_5 
REMARK    4  A    between atoms: N1_5  and  C3_7 
REMARK    5  A    between atoms: C6_16  and  C7_17 
REMARK    6  A    between atoms: C13_23  and  C14_24 
ROOT
HETATM    1  C3  UNL     1       2.280  -5.117  19.212  1.00  0.00     0.117 A 
HETATM    2  N2  UNL     1       1.635  -4.490  20.245  1.00  0.00    -0.338 N 
ATOM      3  H2  UNL     1       0.650  -4.684  20.424  1.00  0.00     0.168 HD
HETATM    4  C4  UNL     1       2.295  -3.628  21.013  1.00  0.00     0.183 A 
HETATM    5  N3  UNL     1       3.588  -3.367  20.786  1.00  0.00    -0.338 N 
ATOM      6  H3  UNL     1       4.061  -2.700  21.396  1.00  0.00     0.168 HD
HETATM    7  C5  UNL     1       4.287  -3.930  19.809  1.00  0.00     0.121 A 
HETATM    8  N4  UNL     1       5.562  -3.822  19.405  1.00  0.00    -0.340 N 
ATOM      9  H4  UNL     1       6.275  -3.226  19.829  1.00  0.00     0.167 HD
HETATM   10  C6  UNL     1       5.741  -4.629  18.350  1.00  0.00     0.056 A 
HETATM   11  C13 UNL     1       4.539  -5.287  18.056  1.00  0.00     0.019 A 
HETATM   12  C20 UNL     1       3.627  -4.845  18.975  1.00  0.00     0.065 A 
ENDROOT
BRANCH   1  13
HETATM   13  N1  UNL     1       1.551  -6.008  18.406  1.00  0.00    -0.373 N 
ATOM     14  H1  UNL     1       1.267  -5.717  17.471  1.00  0.00     0.161 HD
BRANCH  13  15
HETATM   15  C2  UNL     1       1.199  -7.321  18.869  1.00  0.00     0.147 C 
BRANCH  15  16
HETATM   16  C1  UNL     1       0.923  -8.328  17.807  1.00  0.00     0.183 C 
BRANCH  16  17
HETATM   17  O1  UNL     1       0.906  -7.750  16.555  1.00  0.00    -0.399 OA
ATOM     18  H1  UNL     1       0.090  -7.292  16.396  1.00  0.00     0.209 HD
ENDBRANCH  16  17
ENDBRANCH  15  16
ENDBRANCH  13  15
ENDBRANCH   1  13
BRANCH  11  19
HETATM   19  C14 UNL     1       4.338  -6.239  16.982  1.00  0.00    -0.023 A 
HETATM   20  C15 UNL     1       4.517  -7.593  17.178  1.00  0.00     0.012 A 
HETATM   21  C16 UNL     1       4.331  -8.427  16.096  1.00  0.00     0.001 A 
HETATM   22  C17 UNL     1       3.978  -7.968  14.845  1.00  0.00     0.000 A 
HETATM   23  C18 UNL     1       3.798  -6.608  14.650  1.00  0.00     0.001 A 
HETATM   24  C19 UNL     1       3.981  -5.769  15.723  1.00  0.00     0.012 A 
ENDBRANCH  11  19
BRANCH  10  25
HETATM   25  C7  UNL     1       6.959  -4.843  17.584  1.00  0.00    -0.009 A 
HETATM   26  C8  UNL     1       7.780  -5.899  17.898  1.00  0.00     0.014 A 
HETATM   27  C9  UNL     1       8.932  -6.149  17.212  1.00  0.00     0.001 A 
HETATM   28  C10 UNL     1       9.309  -5.324  16.158  1.00  0.00     0.000 A 
HETATM   29  C11 UNL     1       8.500  -4.261  15.827  1.00  0.00     0.001 A 
HETATM   30  C12 UNL     1       7.343  -4.033  16.537  1.00  0.00     0.014 A 
ENDBRANCH  10  25
TORSDOF 6
ENDMDL
