MODEL 17
REMARK VINA RESULT: -7.243855012      2.392      5.697
REMARK  6 active torsions:
REMARK  status: ('A' for Active; 'I' for Inactive)
REMARK    1  A    between atoms: O1_1  and  C1_3 
REMARK    2  A    between atoms: C1_3  and  C2_4 
REMARK    3  A    between atoms: C2_4  and  N1_5 
REMARK    4  A    between atoms: N1_5  and  C3_7 
REMARK    5  A    between atoms: C6_16  and  C7_17 
REMARK    6  A    between atoms: C13_23  and  C14_24 
ROOT
HETATM    1  C3  UNL     1       6.616  -4.592  18.007  1.00  0.00     0.117 A 
HETATM    2  N2  UNL     1       7.720  -3.788  18.099  1.00  0.00    -0.338 N 
ATOM      3  H2  UNL     1       8.595  -4.070  17.658  1.00  0.00     0.168 HD
HETATM    4  C4  UNL     1       7.649  -2.637  18.763  1.00  0.00     0.183 A 
HETATM    5  N3  UNL     1       6.505  -2.258  19.345  1.00  0.00    -0.338 N 
ATOM      6  H3  UNL     1       6.489  -1.369  19.845  1.00  0.00     0.168 HD
HETATM    7  C5  UNL     1       5.391  -2.976  19.304  1.00  0.00     0.121 A 
HETATM    8  N4  UNL     1       4.157  -2.797  19.802  1.00  0.00    -0.340 N 
ATOM      9  H4  UNL     1       3.845  -1.994  20.350  1.00  0.00     0.167 HD
HETATM   10  C6  UNL     1       3.404  -3.852  19.457  1.00  0.00     0.056 A 
HETATM   11  C13 UNL     1       4.176  -4.751  18.708  1.00  0.00     0.019 A 
HETATM   12  C20 UNL     1       5.423  -4.198  18.614  1.00  0.00     0.065 A 
ENDROOT
BRANCH   1  13
HETATM   13  N1  UNL     1       6.726  -5.811  17.315  1.00  0.00    -0.373 N 
ATOM     14  H1  UNL     1       5.907  -6.413  17.231  1.00  0.00     0.161 HD
BRANCH  13  15
HETATM   15  C2  UNL     1       7.966  -6.227  16.724  1.00  0.00     0.147 C 
BRANCH  15  16
HETATM   16  C1  UNL     1       8.080  -6.027  15.253  1.00  0.00     0.183 C 
BRANCH  16  17
HETATM   17  O1  UNL     1       8.124  -4.688  14.928  1.00  0.00    -0.399 OA
ATOM     18  H1  UNL     1       8.230  -4.146  15.701  1.00  0.00     0.209 HD
ENDBRANCH  16  17
ENDBRANCH  15  16
ENDBRANCH  13  15
ENDBRANCH   1  13
BRANCH  11  19
HETATM   19  C14 UNL     1       3.711  -6.009  18.159  1.00  0.00    -0.023 A 
HETATM   20  C15 UNL     1       3.346  -6.124  16.833  1.00  0.00     0.012 A 
HETATM   21  C16 UNL     1       2.890  -7.350  16.399  1.00  0.00     0.001 A 
HETATM   22  C17 UNL     1       2.785  -8.449  17.225  1.00  0.00     0.000 A 
HETATM   23  C18 UNL     1       3.152  -8.331  18.556  1.00  0.00     0.001 A 
HETATM   24  C19 UNL     1       3.608  -7.113  18.998  1.00  0.00     0.012 A 
ENDBRANCH  11  19
BRANCH  10  25
HETATM   25  C7  UNL     1       2.004  -4.092  19.771  1.00  0.00    -0.009 A 
HETATM   26  C8  UNL     1       1.555  -3.895  21.054  1.00  0.00     0.014 A 
HETATM   27  C9  UNL     1       0.253  -4.102  21.404  1.00  0.00     0.001 A 
HETATM   28  C10 UNL     1      -0.667  -4.526  20.451  1.00  0.00     0.000 A 
HETATM   29  C11 UNL     1      -0.236  -4.729  19.160  1.00  0.00     0.001 A 
HETATM   30  C12 UNL     1       1.083  -4.512  18.835  1.00  0.00     0.014 A 
ENDBRANCH  10  25
TORSDOF 6
ENDMDL
