MODEL 18
REMARK VINA RESULT: -7.222790748      2.428      5.667
REMARK  6 active torsions:
REMARK  status: ('A' for Active; 'I' for Inactive)
REMARK    1  A    between atoms: O1_1  and  C1_3 
REMARK    2  A    between atoms: C1_3  and  C2_4 
REMARK    3  A    between atoms: C2_4  and  N1_5 
REMARK    4  A    between atoms: N1_5  and  C3_7 
REMARK    5  A    between atoms: C6_16  and  C7_17 
REMARK    6  A    between atoms: C13_23  and  C14_24 
ROOT
HETATM    1  C3  UNL     1       6.643  -4.631  18.095  1.00  0.00     0.117 A 
HETATM    2  N2  UNL     1       7.743  -3.818  18.169  1.00  0.00    -0.338 N 
ATOM      3  H2  UNL     1       8.624  -4.113  17.747  1.00  0.00     0.168 HD
HETATM    4  C4  UNL     1       7.661  -2.645  18.789  1.00  0.00     0.183 A 
HETATM    5  N3  UNL     1       6.508  -2.249  19.345  1.00  0.00    -0.338 N 
ATOM      6  H3  UNL     1       6.483  -1.343  19.812  1.00  0.00     0.168 HD
HETATM    7  C5  UNL     1       5.398  -2.974  19.319  1.00  0.00     0.121 A 
HETATM    8  N4  UNL     1       4.158  -2.782  19.797  1.00  0.00    -0.340 N 
ATOM      9  H4  UNL     1       3.837  -1.962  20.312  1.00  0.00     0.167 HD
HETATM   10  C6  UNL     1       3.414  -3.853  19.483  1.00  0.00     0.056 A 
HETATM   11  C13 UNL     1       4.197  -4.775  18.775  1.00  0.00     0.019 A 
HETATM   12  C20 UNL     1       5.443  -4.220  18.674  1.00  0.00     0.065 A 
ENDROOT
BRANCH   1  13
HETATM   13  N1  UNL     1       6.766  -5.873  17.449  1.00  0.00    -0.373 N 
ATOM     14  H1  UNL     1       5.965  -6.503  17.422  1.00  0.00     0.161 HD
BRANCH  13  15
HETATM   15  C2  UNL     1       7.995  -6.275  16.827  1.00  0.00     0.147 C 
BRANCH  15  16
HETATM   16  C1  UNL     1       8.115  -5.968  15.374  1.00  0.00     0.183 C 
BRANCH  16  17
HETATM   17  O1  UNL     1       8.530  -4.670  15.166  1.00  0.00    -0.399 OA
ATOM     18  H1  UNL     1       7.796  -4.068  15.159  1.00  0.00     0.209 HD
ENDBRANCH  16  17
ENDBRANCH  15  16
ENDBRANCH  13  15
ENDBRANCH   1  13
BRANCH  11  19
HETATM   19  C14 UNL     1       3.743  -6.054  18.269  1.00  0.00    -0.023 A 
HETATM   20  C15 UNL     1       3.602  -7.148  19.098  1.00  0.00     0.012 A 
HETATM   21  C16 UNL     1       3.190  -8.334  18.530  1.00  0.00     0.001 A 
HETATM   22  C17 UNL     1       2.919  -8.469  17.185  1.00  0.00     0.000 A 
HETATM   23  C18 UNL     1       3.061  -7.370  16.353  1.00  0.00     0.001 A 
HETATM   24  C19 UNL     1       3.471  -6.183  16.911  1.00  0.00     0.012 A 
ENDBRANCH  11  19
BRANCH  10  25
HETATM   25  C7  UNL     1       2.012  -4.088  19.791  1.00  0.00    -0.009 A 
HETATM   26  C8  UNL     1       1.157  -4.484  18.792  1.00  0.00     0.014 A 
HETATM   27  C9  UNL     1      -0.167  -4.722  19.025  1.00  0.00     0.001 A 
HETATM   28  C10 UNL     1      -0.689  -4.566  20.304  1.00  0.00     0.000 A 
HETATM   29  C11 UNL     1       0.152  -4.170  21.319  1.00  0.00     0.001 A 
HETATM   30  C12 UNL     1       1.482  -3.938  21.055  1.00  0.00     0.014 A 
ENDBRANCH  10  25
TORSDOF 6
ENDMDL
