MODEL 3
REMARK VINA RESULT: -7.502695454      2.578      5.676
REMARK  6 active torsions:
REMARK  status: ('A' for Active; 'I' for Inactive)
REMARK    1  A    between atoms: O1_1  and  C1_3 
REMARK    2  A    between atoms: C1_3  and  C2_4 
REMARK    3  A    between atoms: C2_4  and  N1_5 
REMARK    4  A    between atoms: N1_5  and  C3_7 
REMARK    5  A    between atoms: C6_16  and  C7_17 
REMARK    6  A    between atoms: C13_23  and  C14_24 
ROOT
HETATM    1  C3  UNL     1       4.870  -8.679  15.541  1.00  0.00     0.117 A 
HETATM    2  N2  UNL     1       4.242  -9.800  15.068  1.00  0.00    -0.338 N 
ATOM      3  H2  UNL     1       4.692 -10.376  14.356  1.00  0.00     0.168 HD
HETATM    4  C4  UNL     1       3.044 -10.137  15.538  1.00  0.00     0.183 A 
HETATM    5  N3  UNL     1       2.445  -9.389  16.473  1.00  0.00    -0.338 N 
ATOM      6  H3  UNL     1       1.528  -9.679  16.809  1.00  0.00     0.168 HD
HETATM    7  C5  UNL     1       2.984  -8.290  16.984  1.00  0.00     0.121 A 
HETATM    8  N4  UNL     1       2.577  -7.405  17.908  1.00  0.00    -0.340 N 
ATOM      9  H4  UNL     1       1.694  -7.439  18.419  1.00  0.00     0.167 HD
HETATM   10  C6  UNL     1       3.527  -6.469  18.045  1.00  0.00     0.056 A 
HETATM   11  C13 UNL     1       4.592  -6.754  17.179  1.00  0.00     0.019 A 
HETATM   12  C20 UNL     1       4.247  -7.898  16.514  1.00  0.00     0.065 A 
ENDROOT
BRANCH   1  13
HETATM   13  N1  UNL     1       6.127  -8.338  15.011  1.00  0.00    -0.373 N 
ATOM     14  H1  UNL     1       6.966  -8.519  15.561  1.00  0.00     0.161 HD
BRANCH  13  15
HETATM   15  C2  UNL     1       6.254  -7.740  13.712  1.00  0.00     0.147 C 
BRANCH  15  16
HETATM   16  C1  UNL     1       5.030  -7.079  13.182  1.00  0.00     0.183 C 
BRANCH  16  17
HETATM   17  O1  UNL     1       5.288  -5.785  12.781  1.00  0.00    -0.399 OA
ATOM     18  H1  UNL     1       4.557  -5.419  12.299  1.00  0.00     0.209 HD
ENDBRANCH  16  17
ENDBRANCH  15  16
ENDBRANCH  13  15
ENDBRANCH   1  13
BRANCH  11  19
HETATM   19  C14 UNL     1       5.801  -5.968  17.040  1.00  0.00    -0.023 A 
HETATM   20  C15 UNL     1       5.907  -4.971  16.092  1.00  0.00     0.012 A 
HETATM   21  C16 UNL     1       7.102  -4.290  16.010  1.00  0.00     0.001 A 
HETATM   22  C17 UNL     1       8.180  -4.560  16.826  1.00  0.00     0.000 A 
HETATM   23  C18 UNL     1       8.072  -5.562  17.778  1.00  0.00     0.001 A 
HETATM   24  C19 UNL     1       6.884  -6.247  17.867  1.00  0.00     0.012 A 
ENDBRANCH  11  19
BRANCH  10  25
HETATM   25  C7  UNL     1       3.525  -5.315  18.931  1.00  0.00    -0.009 A 
HETATM   26  C8  UNL     1       2.963  -4.136  18.506  1.00  0.00     0.014 A 
HETATM   27  C9  UNL     1       2.930  -3.024  19.296  1.00  0.00     0.001 A 
HETATM   28  C10 UNL     1       3.476  -3.061  20.575  1.00  0.00     0.000 A 
HETATM   29  C11 UNL     1       4.043  -4.233  21.019  1.00  0.00     0.001 A 
HETATM   30  C12 UNL     1       4.061  -5.339  20.201  1.00  0.00     0.014 A 
ENDBRANCH  10  25
TORSDOF 6
ENDMDL
