MODEL 1
REMARK VINA RESULT: -5.469376410      0.000      0.000
REMARK  16 active torsions:
REMARK  status: ('A' for Active; 'I' for Inactive)
REMARK    1  A    between atoms: C3_4  and  O2_5 
REMARK    2  A    between atoms: O2_5  and  C4_6 
REMARK    3  A    between atoms: C5_7  and  O3_8 
REMARK    4  A    between atoms: O3_8  and  C6_9 
REMARK    5  A    between atoms: C7_10  and  C8_11 
REMARK    6  A    between atoms: C8_11  and  O4_12 
REMARK    7  A    between atoms: C9_15  and  O6_16 
REMARK    8  A    between atoms: C10_18  and  O7_19 
REMARK    9  A    between atoms: C11_21  and  O8_22 
REMARK   10  A    between atoms: C12_25  and  C13_26 
REMARK   11  A    between atoms: C13_26  and  O10_27 
REMARK   12  A    between atoms: C14_29  and  O11_30 
REMARK   13  A    between atoms: C15_32  and  O12_33 
REMARK   14  A    between atoms: C16_35  and  O13_36 
REMARK   15  A    between atoms: C17_38  and  O14_39 
REMARK   16  A    between atoms: C18_41  and  O15_42 
ROOT
HETATM    1  C4  UNL     1      20.930  -2.403  39.196  1.00  0.00     0.211 C 
HETATM    2  C5  UNL     1      20.726  -3.183  40.471  1.00  0.00     0.292 C 
HETATM    3  O9  UNL     1      20.855  -4.572  40.186  1.00  0.00    -0.348 OA
HETATM    4  C12 UNL     1      19.819  -5.062  39.438  1.00  0.00     0.179 C 
HETATM    5  C14 UNL     1      19.224  -4.079  38.461  1.00  0.00     0.180 C 
HETATM    6  C15 UNL     1      20.299  -3.112  38.052  1.00  0.00     0.183 C 
ENDROOT
BRANCH   2   7
HETATM    7  O3  UNL     1      19.561  -3.041  41.109  1.00  0.00    -0.348 OA
BRANCH   7   8
HETATM    8  C6  UNL     1      19.461  -2.896  42.441  1.00  0.00     0.187 C 
HETATM    9  C7  UNL     1      18.457  -1.805  42.747  1.00  0.00     0.180 C 
HETATM   10  O5  UNL     1      17.357  -2.233  43.451  1.00  0.00    -0.349 OA
HETATM   11  C9  UNL     1      16.723  -3.331  42.940  1.00  0.00     0.288 C 
HETATM   12  C10 UNL     1      17.642  -4.529  42.994  1.00  0.00     0.204 C 
HETATM   13  C11 UNL     1      19.068  -4.101  43.240  1.00  0.00     0.183 C 
BRANCH   9  14
HETATM   14  C8  UNL     1      19.101  -0.701  43.598  1.00  0.00     0.198 C 
BRANCH  14  15
HETATM   15  O4  UNL     1      18.159   0.316  43.713  1.00  0.00    -0.398 OA
ATOM     16  H4  UNL     1      18.174   0.601  44.619  1.00  0.00     0.209 HD
ENDBRANCH  14  15
ENDBRANCH   9  14
BRANCH  11  17
HETATM   17  O6  UNL     1      16.258  -3.155  41.635  1.00  0.00    -0.369 OA
ATOM     18  H6  UNL     1      16.737  -3.658  40.987  1.00  0.00     0.212 HD
ENDBRANCH  11  17
BRANCH  12  19
HETATM   19  O7  UNL     1      17.458  -5.347  41.916  1.00  0.00    -0.388 OA
ATOM     20  H7  UNL     1      18.246  -5.838  41.716  1.00  0.00     0.210 HD
ENDBRANCH  12  19
BRANCH  13  21
HETATM   21  O8  UNL     1      19.109  -3.732  44.590  1.00  0.00    -0.390 OA
ATOM     22  H8  UNL     1      18.508  -3.004  44.700  1.00  0.00     0.210 HD
ENDBRANCH  13  21
ENDBRANCH   7   8
ENDBRANCH   2   7
BRANCH   1  23
HETATM   23  O2  UNL     1      20.521  -1.084  39.330  1.00  0.00    -0.346 OA
BRANCH  23  24
HETATM   24  C3  UNL     1      21.546  -0.178  39.268  1.00  0.00     0.292 C 
HETATM   25  O1  UNL     1      22.494  -0.692  38.368  1.00  0.00    -0.351 OA
HETATM   26  C2  UNL     1      23.697  -0.021  38.455  1.00  0.00     0.152 C 
HETATM   27  C1  UNL     1      24.233   0.111  39.853  1.00  0.00     0.042 C 
HETATM   28  C18 UNL     1      23.482   1.364  37.876  1.00  0.00     0.178 C 
HETATM   29  C17 UNL     1      22.351   2.071  38.523  1.00  0.00     0.183 C 
HETATM   30  C16 UNL     1      21.172   1.203  38.853  1.00  0.00     0.204 C 
BRANCH  28  31
HETATM   31  O15 UNL     1      24.654   2.101  38.131  1.00  0.00    -0.390 OA
ATOM     32  H15 UNL     1      24.497   2.986  37.822  1.00  0.00     0.210 HD
ENDBRANCH  28  31
BRANCH  29  33
HETATM   33  O14 UNL     1      21.884   3.104  37.694  1.00  0.00    -0.390 OA
ATOM     34  H14 UNL     1      22.614   3.380  37.151  1.00  0.00     0.210 HD
ENDBRANCH  29  33
BRANCH  30  35
HETATM   35  O13 UNL     1      20.375   1.155  37.687  1.00  0.00    -0.388 OA
ATOM     36  H13 UNL     1      20.719   0.504  37.087  1.00  0.00     0.210 HD
ENDBRANCH  30  35
ENDBRANCH  23  24
ENDBRANCH   1  23
BRANCH   6  37
HETATM   37  O12 UNL     1      19.848  -2.264  37.046  1.00  0.00    -0.390 OA
ATOM     38  H12 UNL     1      19.816  -2.670  36.187  1.00  0.00     0.210 HD
ENDBRANCH   6  37
BRANCH   4  39
HETATM   39  C13 UNL     1      20.408  -6.207  38.597  1.00  0.00     0.198 C 
BRANCH  39  40
HETATM   40  O10 UNL     1      19.613  -6.571  37.544  1.00  0.00    -0.398 OA
ATOM     41  H10 UNL     1      20.102  -6.778  36.757  1.00  0.00     0.209 HD
ENDBRANCH  39  40
ENDBRANCH   4  39
BRANCH   5  42
HETATM   42  O11 UNL     1      18.128  -3.388  38.961  1.00  0.00    -0.390 OA
ATOM     43  H11 UNL     1      17.357  -3.440  38.407  1.00  0.00     0.210 HD
ENDBRANCH   5  42
TORSDOF 16
ENDMDL
