MODEL 3
REMARK VINA RESULT: -5.291004946      8.084     10.597
REMARK  16 active torsions:
REMARK  status: ('A' for Active; 'I' for Inactive)
REMARK    1  A    between atoms: C3_4  and  O2_5 
REMARK    2  A    between atoms: O2_5  and  C4_6 
REMARK    3  A    between atoms: C5_7  and  O3_8 
REMARK    4  A    between atoms: O3_8  and  C6_9 
REMARK    5  A    between atoms: C7_10  and  C8_11 
REMARK    6  A    between atoms: C8_11  and  O4_12 
REMARK    7  A    between atoms: C9_15  and  O6_16 
REMARK    8  A    between atoms: C10_18  and  O7_19 
REMARK    9  A    between atoms: C11_21  and  O8_22 
REMARK   10  A    between atoms: C12_25  and  C13_26 
REMARK   11  A    between atoms: C13_26  and  O10_27 
REMARK   12  A    between atoms: C14_29  and  O11_30 
REMARK   13  A    between atoms: C15_32  and  O12_33 
REMARK   14  A    between atoms: C16_35  and  O13_36 
REMARK   15  A    between atoms: C17_38  and  O14_39 
REMARK   16  A    between atoms: C18_41  and  O15_42 
ROOT
HETATM    1  C4  UNL     1      13.565  -8.862  36.042  1.00  0.00     0.211 C 
HETATM    2  C5  UNL     1      12.337  -9.162  36.865  1.00  0.00     0.292 C 
HETATM    3  O9  UNL     1      11.838 -10.445  36.498  1.00  0.00    -0.348 OA
HETATM    4  C12 UNL     1      11.296 -10.467  35.242  1.00  0.00     0.179 C 
HETATM    5  C14 UNL     1      11.946  -9.529  34.255  1.00  0.00     0.180 C 
HETATM    6  C15 UNL     1      13.385  -9.353  34.650  1.00  0.00     0.183 C 
ENDROOT
BRANCH   2   7
HETATM    7  O3  UNL     1      11.304  -8.320  36.771  1.00  0.00    -0.348 OA
BRANCH   7   8
HETATM    8  C6  UNL     1      10.344  -8.223  37.706  1.00  0.00     0.187 C 
HETATM    9  C7  UNL     1      10.373  -6.831  38.303  1.00  0.00     0.180 C 
HETATM   10  O5  UNL     1       9.223  -6.107  38.100  1.00  0.00    -0.349 OA
HETATM   11  C9  UNL     1       8.778  -6.060  36.808  1.00  0.00     0.288 C 
HETATM   12  C10 UNL     1       8.388  -7.444  36.345  1.00  0.00     0.204 C 
HETATM   13  C11 UNL     1       8.934  -8.495  37.280  1.00  0.00     0.183 C 
BRANCH   9  14
HETATM   14  C8  UNL     1      10.567  -6.899  39.825  1.00  0.00     0.198 C 
BRANCH  14  15
HETATM   15  O4  UNL     1       9.412  -6.378  40.398  1.00  0.00    -0.398 OA
ATOM     16  H4  UNL     1       9.403  -6.669  41.302  1.00  0.00     0.209 HD
ENDBRANCH  14  15
ENDBRANCH   9  14
BRANCH  11  17
HETATM   17  O6  UNL     1       9.702  -5.510  35.915  1.00  0.00    -0.369 OA
ATOM     18  H6  UNL     1       9.342  -5.332  35.055  1.00  0.00     0.212 HD
ENDBRANCH  11  17
BRANCH  12  19
HETATM   19  O7  UNL     1       8.684  -7.630  35.025  1.00  0.00    -0.388 OA
ATOM     20  H7  UNL     1       8.756  -8.553  34.813  1.00  0.00     0.210 HD
ENDBRANCH  12  19
BRANCH  13  21
HETATM   21  O8  UNL     1       8.134  -8.414  38.427  1.00  0.00    -0.390 OA
ATOM     22  H8  UNL     1       7.378  -7.883  38.203  1.00  0.00     0.210 HD
ENDBRANCH  13  21
ENDBRANCH   7   8
ENDBRANCH   2   7
BRANCH   1  23
HETATM   23  O2  UNL     1      13.923  -7.524  36.121  1.00  0.00    -0.346 OA
BRANCH  23  24
HETATM   24  C3  UNL     1      15.100  -7.305  36.786  1.00  0.00     0.292 C 
HETATM   25  O1  UNL     1      15.724  -6.210  36.166  1.00  0.00    -0.351 OA
HETATM   26  C2  UNL     1      17.044  -6.090  36.551  1.00  0.00     0.152 C 
HETATM   27  C1  UNL     1      17.841  -7.359  36.435  1.00  0.00     0.042 C 
HETATM   28  C18 UNL     1      17.050  -5.634  37.997  1.00  0.00     0.178 C 
HETATM   29  C17 UNL     1      16.248  -6.526  38.868  1.00  0.00     0.183 C 
HETATM   30  C16 UNL     1      14.982  -7.040  38.248  1.00  0.00     0.204 C 
BRANCH  28  31
HETATM   31  O15 UNL     1      18.386  -5.687  38.438  1.00  0.00    -0.390 OA
ATOM     32  H15 UNL     1      18.395  -6.215  39.228  1.00  0.00     0.210 HD
ENDBRANCH  28  31
BRANCH  29  33
HETATM   33  O14 UNL     1      15.888  -5.857  40.050  1.00  0.00    -0.390 OA
ATOM     34  H14 UNL     1      15.731  -6.521  40.711  1.00  0.00     0.210 HD
ENDBRANCH  29  33
BRANCH  30  35
HETATM   35  O13 UNL     1      13.997  -6.054  38.480  1.00  0.00    -0.388 OA
ATOM     36  H13 UNL     1      14.405  -5.260  38.804  1.00  0.00     0.210 HD
ENDBRANCH  30  35
ENDBRANCH  23  24
ENDBRANCH   1  23
BRANCH   6  37
HETATM   37  O12 UNL     1      14.074  -8.608  33.699  1.00  0.00    -0.390 OA
ATOM     38  H12 UNL     1      14.122  -9.024  32.847  1.00  0.00     0.210 HD
ENDBRANCH   6  37
BRANCH   4  39
HETATM   39  C13 UNL     1      11.526 -11.889  34.706  1.00  0.00     0.198 C 
BRANCH  39  40
HETATM   40  O10 UNL     1      11.355 -11.993  33.351  1.00  0.00    -0.398 OA
ATOM     41  H10 UNL     1      10.516 -11.663  33.052  1.00  0.00     0.209 HD
ENDBRANCH  39  40
ENDBRANCH   4  39
BRANCH   5  42
HETATM   42  O11 UNL     1      11.322  -8.291  34.166  1.00  0.00    -0.390 OA
ATOM     43  H11 UNL     1      11.595  -7.778  33.414  1.00  0.00     0.210 HD
ENDBRANCH   5  42
TORSDOF 16
ENDMDL
