MODEL 5
REMARK VINA RESULT: -5.190815274      3.744      5.820
REMARK  16 active torsions:
REMARK  status: ('A' for Active; 'I' for Inactive)
REMARK    1  A    between atoms: C3_4  and  O2_5 
REMARK    2  A    between atoms: O2_5  and  C4_6 
REMARK    3  A    between atoms: C5_7  and  O3_8 
REMARK    4  A    between atoms: O3_8  and  C6_9 
REMARK    5  A    between atoms: C7_10  and  C8_11 
REMARK    6  A    between atoms: C8_11  and  O4_12 
REMARK    7  A    between atoms: C9_15  and  O6_16 
REMARK    8  A    between atoms: C10_18  and  O7_19 
REMARK    9  A    between atoms: C11_21  and  O8_22 
REMARK   10  A    between atoms: C12_25  and  C13_26 
REMARK   11  A    between atoms: C13_26  and  O10_27 
REMARK   12  A    between atoms: C14_29  and  O11_30 
REMARK   13  A    between atoms: C15_32  and  O12_33 
REMARK   14  A    between atoms: C16_35  and  O13_36 
REMARK   15  A    between atoms: C17_38  and  O14_39 
REMARK   16  A    between atoms: C18_41  and  O15_42 
ROOT
HETATM    1  C4  UNL     1      16.555  -6.877  38.807  1.00  0.00     0.211 C 
HETATM    2  C5  UNL     1      16.505  -7.373  40.231  1.00  0.00     0.292 C 
HETATM    3  O9  UNL     1      15.664  -8.521  40.288  1.00  0.00    -0.348 OA
HETATM    4  C12 UNL     1      14.342  -8.225  40.091  1.00  0.00     0.179 C 
HETATM    5  C14 UNL     1      14.086  -7.069  39.156  1.00  0.00     0.180 C 
HETATM    6  C15 UNL     1      15.218  -7.000  38.170  1.00  0.00     0.183 C 
ENDROOT
BRANCH   2   7
HETATM    7  O3  UNL     1      16.054  -6.534  41.167  1.00  0.00    -0.348 OA
BRANCH   7   8
HETATM    8  C6  UNL     1      16.707  -6.288  42.315  1.00  0.00     0.187 C 
HETATM    9  C7  UNL     1      18.094  -5.773  41.996  1.00  0.00     0.180 C 
HETATM   10  O5  UNL     1      18.338  -4.496  42.442  1.00  0.00    -0.349 OA
HETATM   11  C9  UNL     1      17.397  -3.565  42.102  1.00  0.00     0.288 C 
HETATM   12  C10 UNL     1      16.077  -3.902  42.757  1.00  0.00     0.204 C 
HETATM   13  C11 UNL     1      16.082  -5.320  43.273  1.00  0.00     0.183 C 
BRANCH   9  14
HETATM   14  C8  UNL     1      19.164  -6.661  42.647  1.00  0.00     0.198 C 
BRANCH  14  15
HETATM   15  O4  UNL     1      19.678  -5.943  43.722  1.00  0.00    -0.398 OA
ATOM     16  H4  UNL     1      19.925  -5.090  43.386  1.00  0.00     0.209 HD
ENDBRANCH  14  15
ENDBRANCH   9  14
BRANCH  11  17
HETATM   17  O6  UNL     1      17.215  -3.427  40.724  1.00  0.00    -0.369 OA
ATOM     18  H6  UNL     1      17.249  -4.249  40.250  1.00  0.00     0.212 HD
ENDBRANCH  11  17
BRANCH  12  19
HETATM   19  O7  UNL     1      15.024  -3.581  41.949  1.00  0.00    -0.388 OA
ATOM     20  H7  UNL     1      14.195  -3.706  42.395  1.00  0.00     0.210 HD
ENDBRANCH  12  19
BRANCH  13  21
HETATM   21  O8  UNL     1      16.892  -5.290  44.415  1.00  0.00    -0.390 OA
ATOM     22  H8  UNL     1      17.097  -6.191  44.636  1.00  0.00     0.210 HD
ENDBRANCH  13  21
ENDBRANCH   7   8
ENDBRANCH   2   7
BRANCH   1  23
HETATM   23  O2  UNL     1      17.097  -5.602  38.726  1.00  0.00    -0.346 OA
BRANCH  23  24
HETATM   24  C3  UNL     1      18.240  -5.533  37.974  1.00  0.00     0.292 C 
HETATM   25  O1  UNL     1      17.874  -5.806  36.646  1.00  0.00    -0.351 OA
HETATM   26  C2  UNL     1      18.977  -6.063  35.855  1.00  0.00     0.152 C 
HETATM   27  C1  UNL     1      19.920  -7.086  36.422  1.00  0.00     0.042 C 
HETATM   28  C18 UNL     1      19.717  -4.752  35.679  1.00  0.00     0.178 C 
HETATM   29  C17 UNL     1      20.044  -4.114  36.977  1.00  0.00     0.183 C 
HETATM   30  C16 UNL     1      18.977  -4.240  38.026  1.00  0.00     0.204 C 
BRANCH  28  31
HETATM   31  O15 UNL     1      20.930  -5.051  35.028  1.00  0.00    -0.390 OA
ATOM     32  H15 UNL     1      21.570  -5.232  35.707  1.00  0.00     0.210 HD
ENDBRANCH  28  31
BRANCH  29  33
HETATM   33  O14 UNL     1      20.289  -2.743  36.799  1.00  0.00    -0.390 OA
ATOM     34  H14 UNL     1      19.558  -2.389  36.307  1.00  0.00     0.210 HD
ENDBRANCH  29  33
BRANCH  30  35
HETATM   35  O13 UNL     1      18.083  -3.167  37.812  1.00  0.00    -0.388 OA
ATOM     36  H13 UNL     1      17.190  -3.455  37.967  1.00  0.00     0.210 HD
ENDBRANCH  30  35
ENDBRANCH  23  24
ENDBRANCH   1  23
BRANCH   6  37
HETATM   37  O12 UNL     1      14.970  -6.040  37.195  1.00  0.00    -0.390 OA
ATOM     38  H12 UNL     1      14.272  -5.436  37.420  1.00  0.00     0.210 HD
ENDBRANCH   6  37
BRANCH   4  39
HETATM   39  C13 UNL     1      13.725  -9.466  39.427  1.00  0.00     0.198 C 
BRANCH  39  40
HETATM   40  O10 UNL     1      14.654 -10.399  39.050  1.00  0.00    -0.398 OA
ATOM     41  H10 UNL     1      15.048 -10.855  39.784  1.00  0.00     0.209 HD
ENDBRANCH  39  40
ENDBRANCH   4  39
BRANCH   5  42
HETATM   42  O11 UNL     1      13.942  -5.849  39.803  1.00  0.00    -0.390 OA
ATOM     43  H11 UNL     1      14.184  -5.101  39.268  1.00  0.00     0.210 HD
ENDBRANCH   5  42
TORSDOF 16
ENDMDL
