MODEL 5
REMARK VINA RESULT: -5.054490526      1.530      2.847
REMARK  4 active torsions:
REMARK  status: ('A' for Active; 'I' for Inactive)
REMARK    1  A    between atoms: O1_2  and  C2_3 
REMARK    2  A    between atoms: C5_7  and  O3_8 
REMARK    3  A    between atoms: C6_10  and  O4_11 
REMARK    4  A    between atoms: C7_13  and  O5_14 
ROOT
HETATM    1  C2  UNL     1      -2.047  36.942  -3.034  1.00  0.00     0.290 C 
HETATM    2  O2  UNL     1      -3.094  36.241  -3.565  1.00  0.00    -0.351 OA
HETATM    3  C3  UNL     1      -4.348  36.682  -3.302  1.00  0.00     0.152 C 
HETATM    4  C4  UNL     1      -5.328  35.678  -3.891  1.00  0.00     0.042 C 
HETATM    5  C5  UNL     1      -4.662  36.785  -1.833  1.00  0.00     0.178 C 
HETATM    6  C6  UNL     1      -3.522  37.280  -1.015  1.00  0.00     0.183 C 
HETATM    7  C7  UNL     1      -2.311  37.686  -1.779  1.00  0.00     0.204 C 
ENDROOT
BRANCH   1   8
HETATM    8  O1  UNL     1      -1.446  37.671  -4.029  1.00  0.00    -0.363 OA
HETATM    9  C1  UNL     1      -0.916  36.963  -5.068  1.00  0.00     0.204 C 
ENDBRANCH   1   8
BRANCH   7  10
HETATM   10  O5  UNL     1      -2.378  39.086  -1.992  1.00  0.00    -0.388 OA
ATOM     11  H5  UNL     1      -1.594  39.531  -1.691  1.00  0.00     0.210 HD
ENDBRANCH   7  10
BRANCH   6  12
HETATM   12  O4  UNL     1      -3.231  36.311  -0.029  1.00  0.00    -0.390 OA
ATOM     13  H4  UNL     1      -2.408  36.545   0.385  1.00  0.00     0.210 HD
ENDBRANCH   6  12
BRANCH   5  14
HETATM   14  O3  UNL     1      -5.077  35.501  -1.411  1.00  0.00    -0.390 OA
ATOM     15  H3  UNL     1      -5.352  35.585  -0.506  1.00  0.00     0.210 HD
ENDBRANCH   5  14
TORSDOF 4
ENDMDL
