MODEL 10
REMARK VINA RESULT: -4.559680488      1.439      1.733
REMARK  4 active torsions:
REMARK  status: ('A' for Active; 'I' for Inactive)
REMARK    1  A    between atoms: O1_2  and  C2_3 
REMARK    2  A    between atoms: C5_7  and  O3_8 
REMARK    3  A    between atoms: C6_10  and  O4_11 
REMARK    4  A    between atoms: C7_13  and  O5_14 
ROOT
HETATM    1  C2  UNL     1      -1.225  36.954  -1.801  1.00  0.00     0.290 C 
HETATM    2  O2  UNL     1      -1.619  36.905  -3.110  1.00  0.00    -0.351 OA
HETATM    3  C3  UNL     1      -2.811  37.463  -3.432  1.00  0.00     0.152 C 
HETATM    4  C4  UNL     1      -3.078  37.173  -4.902  1.00  0.00     0.042 C 
HETATM    5  C5  UNL     1      -3.975  36.898  -2.660  1.00  0.00     0.178 C 
HETATM    6  C6  UNL     1      -3.659  36.610  -1.236  1.00  0.00     0.183 C 
HETATM    7  C7  UNL     1      -2.301  37.015  -0.784  1.00  0.00     0.204 C 
ENDROOT
BRANCH   1   8
HETATM    8  O1  UNL     1      -0.239  37.898  -1.666  1.00  0.00    -0.363 OA
HETATM    9  C1  UNL     1       0.730  37.909  -2.626  1.00  0.00     0.204 C 
ENDBRANCH   1   8
BRANCH   7  10
HETATM   10  O5  UNL     1      -2.403  38.299  -0.191  1.00  0.00    -0.388 OA
ATOM     11  H5  UNL     1      -3.144  38.790  -0.526  1.00  0.00     0.210 HD
ENDBRANCH   7  10
BRANCH   6  12
HETATM   12  O4  UNL     1      -3.917  35.242  -0.994  1.00  0.00    -0.390 OA
ATOM     13  H4  UNL     1      -3.348  34.953  -0.290  1.00  0.00     0.210 HD
ENDBRANCH   6  12
BRANCH   5  14
HETATM   14  O3  UNL     1      -4.391  35.731  -3.341  1.00  0.00    -0.390 OA
ATOM     15  H3  UNL     1      -3.640  35.152  -3.378  1.00  0.00     0.210 HD
ENDBRANCH   5  14
TORSDOF 4
ENDMDL
