MODEL 14
REMARK VINA RESULT: -4.207875739      2.481      4.605
REMARK  4 active torsions:
REMARK  status: ('A' for Active; 'I' for Inactive)
REMARK    1  A    between atoms: O1_2  and  C2_3 
REMARK    2  A    between atoms: C5_7  and  O3_8 
REMARK    3  A    between atoms: C6_10  and  O4_11 
REMARK    4  A    between atoms: C7_13  and  O5_14 
ROOT
HETATM    1  C2  UNL     1      -4.487  35.746  -4.631  1.00  0.00     0.290 C 
HETATM    2  O2  UNL     1      -3.520  36.048  -3.711  1.00  0.00    -0.351 OA
HETATM    3  C3  UNL     1      -2.731  37.122  -3.954  1.00  0.00     0.152 C 
HETATM    4  C4  UNL     1      -1.670  37.175  -2.864  1.00  0.00     0.042 C 
HETATM    5  C5  UNL     1      -2.000  37.055  -5.269  1.00  0.00     0.178 C 
HETATM    6  C6  UNL     1      -2.814  36.477  -6.372  1.00  0.00     0.183 C 
HETATM    7  C7  UNL     1      -4.226  36.159  -6.030  1.00  0.00     0.204 C 
ENDROOT
BRANCH   1   8
HETATM    8  O1  UNL     1      -5.710  36.115  -4.131  1.00  0.00    -0.363 OA
HETATM    9  C1  UNL     1      -5.892  35.959  -2.788  1.00  0.00     0.204 C 
ENDBRANCH   1   8
BRANCH   7  10
HETATM   10  O5  UNL     1      -5.028  37.262  -6.419  1.00  0.00    -0.388 OA
ATOM     11  H5  UNL     1      -5.752  37.000  -6.975  1.00  0.00     0.210 HD
ENDBRANCH   7  10
BRANCH   6  12
HETATM   12  O4  UNL     1      -2.125  35.356  -6.889  1.00  0.00    -0.390 OA
ATOM     13  H4  UNL     1      -2.214  35.363  -7.835  1.00  0.00     0.210 HD
ENDBRANCH   6  12
BRANCH   5  14
HETATM   14  O3  UNL     1      -0.825  36.301  -5.047  1.00  0.00    -0.390 OA
ATOM     15  H3  UNL     1      -1.009  35.711  -4.326  1.00  0.00     0.210 HD
ENDBRANCH   5  14
TORSDOF 4
ENDMDL
