MODEL 8
REMARK VINA RESULT: -4.758134791      1.633      2.205
REMARK  4 active torsions:
REMARK  status: ('A' for Active; 'I' for Inactive)
REMARK    1  A    between atoms: O1_2  and  C2_3 
REMARK    2  A    between atoms: C5_7  and  O3_8 
REMARK    3  A    between atoms: C6_10  and  O4_11 
REMARK    4  A    between atoms: C7_13  and  O5_14 
ROOT
HETATM    1  C2  UNL     1      -1.934  36.917  -2.941  1.00  0.00     0.290 C 
HETATM    2  O2  UNL     1      -2.620  36.501  -4.049  1.00  0.00    -0.351 OA
HETATM    3  C3  UNL     1      -3.924  36.857  -4.155  1.00  0.00     0.152 C 
HETATM    4  C4  UNL     1      -4.491  36.179  -5.394  1.00  0.00     0.042 C 
HETATM    5  C5  UNL     1      -4.772  36.416  -2.991  1.00  0.00     0.178 C 
HETATM    6  C6  UNL     1      -4.084  36.530  -1.678  1.00  0.00     0.183 C 
HETATM    7  C7  UNL     1      -2.731  37.148  -1.712  1.00  0.00     0.204 C 
ENDROOT
BRANCH   1   8
HETATM    8  O1  UNL     1      -1.094  37.942  -3.294  1.00  0.00    -0.363 OA
HETATM    9  C1  UNL     1      -0.301  37.732  -4.384  1.00  0.00     0.204 C 
ENDBRANCH   1   8
BRANCH   7  10
HETATM   10  O5  UNL     1      -2.874  38.528  -1.421  1.00  0.00    -0.388 OA
ATOM     11  H5  UNL     1      -3.780  38.771  -1.274  1.00  0.00     0.210 HD
ENDBRANCH   7  10
BRANCH   6  12
HETATM   12  O4  UNL     1      -4.072  35.254  -1.072  1.00  0.00    -0.390 OA
ATOM     13  H4  UNL     1      -3.906  34.606  -1.747  1.00  0.00     0.210 HD
ENDBRANCH   6  12
BRANCH   5  14
HETATM   14  O3  UNL     1      -5.164  35.083  -3.252  1.00  0.00    -0.390 OA
ATOM     15  H3  UNL     1      -4.627  34.774  -3.972  1.00  0.00     0.210 HD
ENDBRANCH   5  14
TORSDOF 4
ENDMDL
