MODEL 11
REMARK VINA RESULT: -4.461016488      2.740      5.447
REMARK  4 active torsions:
REMARK  status: ('A' for Active; 'I' for Inactive)
REMARK    1  A    between atoms: O1_2  and  C2_3 
REMARK    2  A    between atoms: C5_7  and  O3_8 
REMARK    3  A    between atoms: C6_10  and  O4_11 
REMARK    4  A    between atoms: C7_13  and  O5_14 
ROOT
HETATM    1  C2  UNL     1      -3.280  35.995  -6.683  1.00  0.00     0.290 C 
HETATM    2  O2  UNL     1      -4.200  35.552  -5.773  1.00  0.00    -0.351 OA
HETATM    3  C3  UNL     1      -4.586  36.409  -4.797  1.00  0.00     0.152 C 
HETATM    4  C4  UNL     1      -5.507  35.653  -3.851  1.00  0.00     0.042 C 
HETATM    5  C5  UNL     1      -3.446  36.937  -3.965  1.00  0.00     0.178 C 
HETATM    6  C6  UNL     1      -2.219  37.225  -4.754  1.00  0.00     0.183 C 
HETATM    7  C7  UNL     1      -2.344  37.049  -6.225  1.00  0.00     0.204 C 
ENDROOT
BRANCH   1   8
HETATM    8  O1  UNL     1      -3.916  36.254  -7.871  1.00  0.00    -0.363 OA
HETATM    9  C1  UNL     1      -3.861  35.273  -8.819  1.00  0.00     0.204 C 
ENDBRANCH   1   8
BRANCH   7  10
HETATM   10  O5  UNL     1      -2.645  38.313  -6.792  1.00  0.00    -0.388 OA
ATOM     11  H5  UNL     1      -3.413  38.281  -7.351  1.00  0.00     0.210 HD
ENDBRANCH   7  10
BRANCH   6  12
HETATM   12  O4  UNL     1      -1.157  36.465  -4.214  1.00  0.00    -0.390 OA
ATOM     13  H4  UNL     1      -0.393  37.026  -4.149  1.00  0.00     0.210 HD
ENDBRANCH   6  12
BRANCH   5  14
HETATM   14  O3  UNL     1      -3.196  35.977  -2.957  1.00  0.00    -0.390 OA
ATOM     15  H3  UNL     1      -2.319  36.141  -2.633  1.00  0.00     0.210 HD
ENDBRANCH   5  14
TORSDOF 4
ENDMDL
