MODEL 7
REMARK VINA RESULT: -7.952464517      4.027      5.073
REMARK  6 active torsions:
REMARK  status: ('A' for Active; 'I' for Inactive)
REMARK    1  A    between atoms: C1_2  and  C2_4 
REMARK       I    between atoms: N2_13  and  C11_14 
REMARK    2  A    between atoms: C11_14  and  C12_16 
REMARK    3  A    between atoms: C12_16  and  C13_17 
REMARK    4  A    between atoms: C13_17  and  N3_18 
REMARK    5  A    between atoms: C13_17  and  C14_22 
REMARK    6  A    between atoms: C14_22  and  C15_23 
ROOT
HETATM    1  C2  UNL     1      -5.413  24.301   4.979  1.00  0.00     0.181 C 
HETATM    2  C3  UNL     1      -6.061  25.437   5.777  1.00  0.00     0.073 C 
HETATM    3  C4  UNL     1      -6.440  24.845   7.111  1.00  0.00    -0.048 A 
HETATM    4  C5  UNL     1      -6.141  25.429   8.297  1.00  0.00     0.008 A 
HETATM    5  C6  UNL     1      -6.514  24.797   9.486  1.00  0.00     0.001 A 
HETATM    6  C7  UNL     1      -7.179  23.589   9.478  1.00  0.00     0.001 A 
HETATM    7  C8  UNL     1      -7.477  23.005   8.261  1.00  0.00     0.009 A 
HETATM    8  C9  UNL     1      -7.108  23.634   7.069  1.00  0.00    -0.034 A 
HETATM    9  C10 UNL     1      -7.421  23.067   5.742  1.00  0.00     0.165 C 
HETATM   10  N2  UNL     1      -6.282  23.159   4.879  1.00  0.00    -0.335 N 
HETATM   11  C11 UNL     1      -6.057  22.110   3.941  1.00  0.00     0.222 C 
HETATM   12  O2  UNL     1      -6.857  21.148   3.918  1.00  0.00    -0.273 OA
ENDROOT
BRANCH  11  13
HETATM   13  C12 UNL     1      -4.931  22.100   2.996  1.00  0.00     0.136 C 
BRANCH  13  14
HETATM   14  C13 UNL     1      -5.383  21.804   1.583  1.00  0.00     0.196 C 
BRANCH  14  15
HETATM   15  N3  UNL     1      -5.356  20.389   1.289  1.00  0.00    -0.074 N 
ATOM     16  H33 UNL     1      -5.219  19.838   2.136  1.00  0.00     0.274 HD
ATOM     17  H32 UNL     1      -6.281  20.050   1.023  1.00  0.00     0.274 HD
ATOM     18  H31 UNL     1      -4.660  20.158   0.580  1.00  0.00     0.274 HD
ENDBRANCH  14  15
BRANCH  14  19
HETATM   19  C14 UNL     1      -4.469  22.482   0.591  1.00  0.00     0.075 C 
BRANCH  19  20
HETATM   20  C15 UNL     1      -5.346  23.395  -0.224  1.00  0.00    -0.018 A 
HETATM   21  C16 UNL     1      -6.195  24.309   0.355  1.00  0.00     0.010 A 
HETATM   22  C17 UNL     1      -7.002  25.147  -0.420  1.00  0.00     0.001 A 
HETATM   23  C18 UNL     1      -6.958  25.070  -1.796  1.00  0.00     0.003 A 
HETATM   24  C19 UNL     1      -6.098  24.143  -2.397  1.00  0.00     0.043 A 
HETATM   25  C20 UNL     1      -5.319  23.334  -1.603  1.00  0.00     0.122 A 
HETATM   26  F1  UNL     1      -4.495  22.447  -2.209  1.00  0.00    -0.206 F 
ENDBRANCH  19  20
ENDBRANCH  14  19
ENDBRANCH  13  14
ENDBRANCH  11  13
BRANCH   1  27
HETATM   27  C1  UNL     1      -4.137  23.999   5.651  1.00  0.00     0.254 C 
HETATM   28  N1  UNL     1      -3.168  25.010   5.749  1.00  0.00    -0.060 NA
HETATM   29  O1  UNL     1      -3.947  22.857   6.117  1.00  0.00    -0.275 OA
ENDBRANCH   1  27
TORSDOF 6
ENDMDL
