MODEL 10
REMARK VINA RESULT: -7.806983314      4.285      5.922
REMARK  6 active torsions:
REMARK  status: ('A' for Active; 'I' for Inactive)
REMARK    1  A    between atoms: C1_2  and  C2_4 
REMARK       I    between atoms: N2_13  and  C11_14 
REMARK    2  A    between atoms: C11_14  and  C12_16 
REMARK    3  A    between atoms: C12_16  and  C13_17 
REMARK    4  A    between atoms: C13_17  and  N3_18 
REMARK    5  A    between atoms: C13_17  and  C14_22 
REMARK    6  A    between atoms: C14_22  and  C15_23 
ROOT
HETATM    1  C2  UNL     1      -6.499  22.208   4.936  1.00  0.00     0.181 C 
HETATM    2  C3  UNL     1      -6.856  21.522   6.260  1.00  0.00     0.073 C 
HETATM    3  C4  UNL     1      -6.629  22.553   7.336  1.00  0.00    -0.048 A 
HETATM    4  C5  UNL     1      -7.535  22.829   8.306  1.00  0.00     0.008 A 
HETATM    5  C6  UNL     1      -7.249  23.816   9.252  1.00  0.00     0.001 A 
HETATM    6  C7  UNL     1      -6.061  24.518   9.219  1.00  0.00     0.001 A 
HETATM    7  C8  UNL     1      -5.146  24.225   8.226  1.00  0.00     0.009 A 
HETATM    8  C9  UNL     1      -5.428  23.238   7.278  1.00  0.00    -0.034 A 
HETATM    9  C10 UNL     1      -4.478  22.868   6.209  1.00  0.00     0.165 C 
HETATM   10  N2  UNL     1      -5.162  22.738   4.958  1.00  0.00    -0.335 N 
HETATM   11  C11 UNL     1      -4.482  23.135   3.770  1.00  0.00     0.222 C 
HETATM   12  O2  UNL     1      -3.320  23.591   3.872  1.00  0.00    -0.273 OA
ENDROOT
BRANCH  11  13
HETATM   13  C12 UNL     1      -5.073  23.036   2.428  1.00  0.00     0.136 C 
BRANCH  13  14
HETATM   14  C13 UNL     1      -5.357  24.398   1.835  1.00  0.00     0.196 C 
BRANCH  14  15
HETATM   15  N3  UNL     1      -5.101  25.465   2.776  1.00  0.00    -0.074 N 
ATOM     16  H33 UNL     1      -5.798  25.476   3.521  1.00  0.00     0.274 HD
ATOM     17  H32 UNL     1      -4.270  25.272   3.335  1.00  0.00     0.274 HD
ATOM     18  H31 UNL     1      -5.035  26.373   2.316  1.00  0.00     0.274 HD
ENDBRANCH  14  15
BRANCH  14  19
HETATM   19  C14 UNL     1      -6.810  24.499   1.434  1.00  0.00     0.075 C 
BRANCH  19  20
HETATM   20  C15 UNL     1      -6.813  24.793  -0.042  1.00  0.00    -0.018 A 
HETATM   21  C16 UNL     1      -6.070  24.062  -0.940  1.00  0.00     0.010 A 
HETATM   22  C17 UNL     1      -6.087  24.353  -2.306  1.00  0.00     0.001 A 
HETATM   23  C18 UNL     1      -6.859  25.390  -2.784  1.00  0.00     0.003 A 
HETATM   24  C19 UNL     1      -7.619  26.143  -1.880  1.00  0.00     0.043 A 
HETATM   25  C20 UNL     1      -7.578  25.829  -0.541  1.00  0.00     0.122 A 
HETATM   26  F1  UNL     1      -8.323  26.571   0.311  1.00  0.00    -0.206 F 
ENDBRANCH  19  20
ENDBRANCH  14  19
ENDBRANCH  13  14
ENDBRANCH  11  13
BRANCH   1  27
HETATM   27  C1  UNL     1      -7.526  23.239   4.715  1.00  0.00     0.254 C 
HETATM   28  N1  UNL     1      -8.816  22.839   4.332  1.00  0.00    -0.060 NA
HETATM   29  O1  UNL     1      -7.230  24.442   4.874  1.00  0.00    -0.275 OA
ENDBRANCH   1  27
TORSDOF 6
ENDMDL
