MODEL 11
REMARK VINA RESULT: -7.792481186      2.116      7.548
REMARK  6 active torsions:
REMARK  status: ('A' for Active; 'I' for Inactive)
REMARK    1  A    between atoms: C1_2  and  C2_4 
REMARK       I    between atoms: N2_13  and  C11_14 
REMARK    2  A    between atoms: C11_14  and  C12_16 
REMARK    3  A    between atoms: C12_16  and  C13_17 
REMARK    4  A    between atoms: C13_17  and  N3_18 
REMARK    5  A    between atoms: C13_17  and  C14_22 
REMARK    6  A    between atoms: C14_22  and  C15_23 
ROOT
HETATM    1  C2  UNL     1      -5.802  19.683   3.933  1.00  0.00     0.181 C 
HETATM    2  C3  UNL     1      -6.041  18.257   4.440  1.00  0.00     0.073 C 
HETATM    3  C4  UNL     1      -7.411  17.865   3.946  1.00  0.00    -0.048 A 
HETATM    4  C5  UNL     1      -7.669  16.691   3.318  1.00  0.00     0.008 A 
HETATM    5  C6  UNL     1      -8.965  16.420   2.876  1.00  0.00     0.001 A 
HETATM    6  C7  UNL     1      -9.991  17.323   3.063  1.00  0.00     0.001 A 
HETATM    7  C8  UNL     1      -9.714  18.515   3.706  1.00  0.00     0.009 A 
HETATM    8  C9  UNL     1      -8.419  18.791   4.152  1.00  0.00    -0.034 A 
HETATM    9  C10 UNL     1      -8.071  20.037   4.863  1.00  0.00     0.165 C 
HETATM   10  N2  UNL     1      -6.847  20.578   4.354  1.00  0.00    -0.335 N 
HETATM   11  C11 UNL     1      -6.708  21.994   4.289  1.00  0.00     0.222 C 
HETATM   12  O2  UNL     1      -7.665  22.706   4.671  1.00  0.00    -0.273 OA
ENDROOT
BRANCH  11  13
HETATM   13  C12 UNL     1      -5.496  22.666   3.798  1.00  0.00     0.136 C 
BRANCH  13  14
HETATM   14  C13 UNL     1      -5.091  23.820   4.687  1.00  0.00     0.196 C 
BRANCH  14  15
HETATM   15  N3  UNL     1      -4.175  24.721   4.025  1.00  0.00    -0.074 N 
ATOM     16  H33 UNL     1      -3.287  24.261   3.821  1.00  0.00     0.274 HD
ATOM     17  H32 UNL     1      -4.477  24.920   3.071  1.00  0.00     0.274 HD
ATOM     18  H31 UNL     1      -4.033  25.581   4.555  1.00  0.00     0.274 HD
ENDBRANCH  14  15
BRANCH  14  19
HETATM   19  C14 UNL     1      -4.392  23.305   5.923  1.00  0.00     0.075 C 
BRANCH  19  20
HETATM   20  C15 UNL     1      -5.164  23.852   7.094  1.00  0.00    -0.018 A 
HETATM   21  C16 UNL     1      -5.067  25.165   7.491  1.00  0.00     0.010 A 
HETATM   22  C17 UNL     1      -5.793  25.651   8.582  1.00  0.00     0.001 A 
HETATM   23  C18 UNL     1      -6.631  24.813   9.285  1.00  0.00     0.003 A 
HETATM   24  C19 UNL     1      -6.739  23.473   8.890  1.00  0.00     0.043 A 
HETATM   25  C20 UNL     1      -6.008  23.028   7.813  1.00  0.00     0.122 A 
HETATM   26  F1  UNL     1      -6.132  21.730   7.451  1.00  0.00    -0.206 F 
ENDBRANCH  19  20
ENDBRANCH  14  19
ENDBRANCH  13  14
ENDBRANCH  11  13
BRANCH   1  27
HETATM   27  C1  UNL     1      -5.679  19.586   2.469  1.00  0.00     0.254 C 
HETATM   28  N1  UNL     1      -4.398  19.482   1.902  1.00  0.00    -0.060 NA
HETATM   29  O1  UNL     1      -6.710  19.597   1.765  1.00  0.00    -0.275 OA
ENDBRANCH   1  27
TORSDOF 6
ENDMDL
