MODEL 10
REMARK VINA RESULT: -5.236945258      1.646      4.532
REMARK  3 active torsions:
REMARK  status: ('A' for Active; 'I' for Inactive)
REMARK    1  A    between atoms: C1_2  and  C2_4 
REMARK    2  A    between atoms: C5_7  and  O3_8 
REMARK    3  A    between atoms: C6_10  and  O4_11 
ROOT
HETATM    1  C2  UNL     1      10.570 -13.944  39.609  1.00  0.00     0.043 A 
HETATM    2  C3  UNL     1      11.504 -13.108  40.181  1.00  0.00     0.021 A 
HETATM    3  C4  UNL     1      12.732 -13.570  40.637  1.00  0.00     0.040 A 
HETATM    4  C5  UNL     1      13.040 -14.908  40.520  1.00  0.00     0.098 A 
HETATM    5  C6  UNL     1      12.116 -15.756  39.951  1.00  0.00     0.099 A 
HETATM    6  C7  UNL     1      10.893 -15.279  39.499  1.00  0.00     0.057 A 
ENDROOT
BRANCH   1   7
HETATM    7  C1  UNL     1       9.281 -13.443  39.133  1.00  0.00     0.209 C 
HETATM    8  O1  UNL     1       8.222 -13.807  39.703  1.00  0.00    -0.644 OA
HETATM    9  O2  UNL     1       9.173 -12.569  38.064  1.00  0.00    -0.644 OA
ENDBRANCH   1   7
BRANCH   5  10
HETATM   10  O4  UNL     1      12.455 -17.096  39.846  1.00  0.00    -0.358 OA
ATOM     11  H4  UNL     1      11.775 -17.737  40.021  1.00  0.00     0.217 HD
ENDBRANCH   5  10
BRANCH   4  12
HETATM   12  O3  UNL     1      14.277 -15.353  40.984  1.00  0.00    -0.358 OA
ATOM     13  H3  UNL     1      14.617 -14.992  41.794  1.00  0.00     0.217 HD
ENDBRANCH   4  12
TORSDOF 3
ENDMDL
