MODEL 11
REMARK VINA RESULT: -5.209949805      1.782      4.956
REMARK  3 active torsions:
REMARK  status: ('A' for Active; 'I' for Inactive)
REMARK    1  A    between atoms: C1_2  and  C2_4 
REMARK    2  A    between atoms: C5_7  and  O3_8 
REMARK    3  A    between atoms: C6_10  and  O4_11 
ROOT
HETATM    1  C2  UNL     1      12.297 -14.610  40.556  1.00  0.00     0.043 A 
HETATM    2  C3  UNL     1      12.738 -13.899  41.651  1.00  0.00     0.021 A 
HETATM    3  C4  UNL     1      14.044 -13.985  42.114  1.00  0.00     0.040 A 
HETATM    4  C5  UNL     1      14.942 -14.806  41.465  1.00  0.00     0.098 A 
HETATM    5  C6  UNL     1      14.517 -15.523  40.369  1.00  0.00     0.099 A 
HETATM    6  C7  UNL     1      13.207 -15.427  39.919  1.00  0.00     0.057 A 
ENDROOT
BRANCH   1   7
HETATM    7  C1  UNL     1      10.919 -14.509  40.080  1.00  0.00     0.209 C 
HETATM    8  O1  UNL     1      10.181 -15.527  40.084  1.00  0.00    -0.644 OA
HETATM    9  O2  UNL     1      10.378 -13.322  39.615  1.00  0.00    -0.644 OA
ENDBRANCH   1   7
BRANCH   5  10
HETATM   10  O4  UNL     1      15.442 -16.339  39.738  1.00  0.00    -0.358 OA
ATOM     11  H4  UNL     1      15.339 -17.278  39.835  1.00  0.00     0.217 HD
ENDBRANCH   5  10
BRANCH   4  12
HETATM   12  O3  UNL     1      16.249 -14.879  41.945  1.00  0.00    -0.358 OA
ATOM     13  H3  UNL     1      16.628 -15.736  42.109  1.00  0.00     0.217 HD
ENDBRANCH   4  12
TORSDOF 3
ENDMDL
