MODEL 1
REMARK VINA RESULT: -6.532291238      0.000      0.000
REMARK  3 active torsions:
REMARK  status: ('A' for Active; 'I' for Inactive)
REMARK    1  A    between atoms: C1_2  and  C2_4 
REMARK    2  A    between atoms: C5_7  and  O3_8 
REMARK    3  A    between atoms: C6_10  and  O4_11 
ROOT
HETATM    1  C2  UNL     1      12.359 -13.899  41.267  1.00  0.00     0.043 A 
HETATM    2  C3  UNL     1      12.109 -13.485  39.977  1.00  0.00     0.021 A 
HETATM    3  C4  UNL     1      10.820 -13.337  39.482  1.00  0.00     0.040 A 
HETATM    4  C5  UNL     1       9.743 -13.612  40.298  1.00  0.00     0.098 A 
HETATM    5  C6  UNL     1       9.977 -14.027  41.590  1.00  0.00     0.099 A 
HETATM    6  C7  UNL     1      11.272 -14.169  42.071  1.00  0.00     0.057 A 
ENDROOT
BRANCH   1   7
HETATM    7  C1  UNL     1      13.721 -14.048  41.775  1.00  0.00     0.209 C 
HETATM    8  O1  UNL     1      14.176 -13.213  42.597  1.00  0.00    -0.644 OA
HETATM    9  O2  UNL     1      14.550 -15.087  41.384  1.00  0.00    -0.644 OA
ENDBRANCH   1   7
BRANCH   5  10
HETATM   10  O4  UNL     1       8.874 -14.294  42.387  1.00  0.00    -0.358 OA
ATOM     11  H4  UNL     1       8.939 -14.086  43.311  1.00  0.00     0.217 HD
ENDBRANCH   5  10
BRANCH   4  12
HETATM   12  O3  UNL     1       8.457 -13.459  39.783  1.00  0.00    -0.358 OA
ATOM     13  H3  UNL     1       7.847 -14.184  39.855  1.00  0.00     0.217 HD
ENDBRANCH   4  12
TORSDOF 3
ENDMDL
