MODEL 3
REMARK VINA RESULT: -6.152421480      1.642      1.963
REMARK  3 active torsions:
REMARK  status: ('A' for Active; 'I' for Inactive)
REMARK    1  A    between atoms: C1_2  and  C2_4 
REMARK    2  A    between atoms: C5_7  and  O3_8 
REMARK    3  A    between atoms: C6_10  and  O4_11 
ROOT
HETATM    1  C2  UNL     1      11.883 -14.186  40.366  1.00  0.00     0.043 A 
HETATM    2  C3  UNL     1      11.408 -12.957  39.965  1.00  0.00     0.021 A 
HETATM    3  C4  UNL     1      10.167 -12.803  39.361  1.00  0.00     0.040 A 
HETATM    4  C5  UNL     1       9.372 -13.909  39.149  1.00  0.00     0.098 A 
HETATM    5  C6  UNL     1       9.834 -15.145  39.544  1.00  0.00     0.099 A 
HETATM    6  C7  UNL     1      11.077 -15.283  40.147  1.00  0.00     0.057 A 
ENDROOT
BRANCH   1   7
HETATM    7  C1  UNL     1      13.192 -14.333  41.000  1.00  0.00     0.209 C 
HETATM    8  O1  UNL     1      13.970 -15.245  40.622  1.00  0.00    -0.644 OA
HETATM    9  O2  UNL     1      13.622 -13.498  42.018  1.00  0.00    -0.644 OA
ENDBRANCH   1   7
BRANCH   5  10
HETATM   10  O4  UNL     1       9.012 -16.239  39.319  1.00  0.00    -0.358 OA
ATOM     11  H4  UNL     1       9.342 -17.095  39.565  1.00  0.00     0.217 HD
ENDBRANCH   5  10
BRANCH   4  12
HETATM   12  O3  UNL     1       8.130 -13.735  38.541  1.00  0.00    -0.358 OA
ATOM     13  H3  UNL     1       7.858 -14.353  37.872  1.00  0.00     0.217 HD
ENDBRANCH   4  12
TORSDOF 3
ENDMDL
