MODEL 8
REMARK VINA RESULT: -5.439792139      1.602      4.754
REMARK  3 active torsions:
REMARK  status: ('A' for Active; 'I' for Inactive)
REMARK    1  A    between atoms: C1_2  and  C2_4 
REMARK    2  A    between atoms: C5_7  and  O3_8 
REMARK    3  A    between atoms: C6_10  and  O4_11 
ROOT
HETATM    1  C2  UNL     1      11.368 -14.813  40.404  1.00  0.00     0.043 A 
HETATM    2  C3  UNL     1      11.706 -13.946  41.421  1.00  0.00     0.021 A 
HETATM    3  C4  UNL     1      13.007 -13.831  41.895  1.00  0.00     0.040 A 
HETATM    4  C5  UNL     1      14.004 -14.604  41.339  1.00  0.00     0.098 A 
HETATM    5  C6  UNL     1      13.681 -15.476  40.322  1.00  0.00     0.099 A 
HETATM    6  C7  UNL     1      12.376 -15.579  39.859  1.00  0.00     0.057 A 
ENDROOT
BRANCH   1   7
HETATM    7  C1  UNL     1       9.995 -14.922  39.915  1.00  0.00     0.209 C 
HETATM    8  O1  UNL     1       9.661 -15.908  39.211  1.00  0.00    -0.644 OA
HETATM    9  O2  UNL     1       9.027 -13.973  40.198  1.00  0.00    -0.644 OA
ENDBRANCH   1   7
BRANCH   5  10
HETATM   10  O4  UNL     1      14.704 -16.240  39.783  1.00  0.00    -0.358 OA
ATOM     11  H4  UNL     1      14.464 -16.928  39.174  1.00  0.00     0.217 HD
ENDBRANCH   5  10
BRANCH   4  12
HETATM   12  O3  UNL     1      15.303 -14.476  41.828  1.00  0.00    -0.358 OA
ATOM     13  H3  UNL     1      15.777 -15.261  42.076  1.00  0.00     0.217 HD
ENDBRANCH   4  12
TORSDOF 3
ENDMDL
