MODEL 2
REMARK VINA RESULT: -6.330300457      1.011      1.040
REMARK  10 active torsions:
REMARK  status: ('A' for Active; 'I' for Inactive)
REMARK    1  A    between atoms: O1_1  and  C1_3 
REMARK    2  A    between atoms: C1_3  and  C2_4 
REMARK    3  A    between atoms: C3_6  and  O3_7 
REMARK    4  A    between atoms: O3_7  and  C4_8 
REMARK    5  A    between atoms: C7_14  and  C8_15 
REMARK    6  A    between atoms: C8_15  and  O4_16 
REMARK    7  A    between atoms: C9_18  and  O5_19 
REMARK    8  A    between atoms: C10_21  and  O6_22 
REMARK    9  A    between atoms: C11_24  and  O7_25 
REMARK   10  A    between atoms: C12_27  and  O8_28 
ROOT
HETATM    1  C2  UNL     1      15.905  33.560  15.949  1.00  0.00     0.179 C 
HETATM    2  O2  UNL     1      15.733  34.941  15.975  1.00  0.00    -0.348 OA
HETATM    3  C3  UNL     1      16.543  35.588  15.048  1.00  0.00     0.292 C 
HETATM    4  C10 UNL     1      17.986  35.235  15.214  1.00  0.00     0.204 C 
HETATM    5  C11 UNL     1      18.193  34.328  16.415  1.00  0.00     0.183 C 
HETATM    6  C12 UNL     1      17.273  33.141  16.402  1.00  0.00     0.180 C 
ENDROOT
BRANCH   3   7
HETATM    7  O3  UNL     1      16.305  36.958  15.188  1.00  0.00    -0.349 OA
BRANCH   7   8
HETATM    8  C4  UNL     1      15.608  37.264  16.333  1.00  0.00     0.179 C 
HETATM    9  C5  UNL     1      14.186  37.710  16.069  1.00  0.00     0.266 C 
HETATM   10  N1  UNL     1      14.002  39.118  16.344  1.00  0.00    -0.072 N 
HETATM   11  C6  UNL     1      14.188  39.467  17.718  1.00  0.00     0.241 C 
ATOM     12  H12 UNL     1      14.605  39.682  15.745  1.00  0.00     0.277 HD
ATOM     13  H11 UNL     1      13.090  39.432  16.013  1.00  0.00     0.277 HD
HETATM   14  C7  UNL     1      15.323  38.660  18.305  1.00  0.00     0.066 C 
HETATM   15  C9  UNL     1      16.266  38.326  17.169  1.00  0.00     0.156 C 
BRANCH  14  16
HETATM   16  C8  UNL     1      16.028  39.407  19.415  1.00  0.00     0.173 C 
BRANCH  16  17
HETATM   17  O4  UNL     1      16.674  40.502  18.835  1.00  0.00    -0.400 OA
ATOM     18  H4  UNL     1      17.132  40.961  19.529  1.00  0.00     0.209 HD
ENDBRANCH  16  17
ENDBRANCH  14  16
BRANCH  15  19
HETATM   19  O5  UNL     1      17.469  37.916  17.722  1.00  0.00    -0.392 OA
ATOM     20  H5  UNL     1      17.918  38.608  18.193  1.00  0.00     0.210 HD
ENDBRANCH  15  19
ENDBRANCH   7   8
ENDBRANCH   3   7
BRANCH   4  21
HETATM   21  O6  UNL     1      18.540  34.629  14.094  1.00  0.00    -0.388 OA
ATOM     22  H6  UNL     1      19.379  34.217  14.263  1.00  0.00     0.210 HD
ENDBRANCH   4  21
BRANCH   1  23
HETATM   23  C1  UNL     1      14.892  32.967  16.907  1.00  0.00     0.198 C 
BRANCH  23  24
HETATM   24  O1  UNL     1      15.515  31.899  17.553  1.00  0.00    -0.398 OA
ATOM     25  H1  UNL     1      14.831  31.379  17.956  1.00  0.00     0.209 HD
ENDBRANCH  23  24
ENDBRANCH   1  23
BRANCH   5  26
HETATM   26  O7  UNL     1      17.911  35.075  17.559  1.00  0.00    -0.390 OA
ATOM     27  H7  UNL     1      17.232  34.616  18.041  1.00  0.00     0.210 HD
ENDBRANCH   5  26
BRANCH   6  28
HETATM   28  O8  UNL     1      17.773  32.100  15.594  1.00  0.00    -0.390 OA
ATOM     29  H8  UNL     1      18.716  32.024  15.684  1.00  0.00     0.210 HD
ENDBRANCH   6  28
TORSDOF 10
ENDMDL
