MODEL 9
REMARK VINA RESULT: -5.934812481      4.289      6.234
REMARK  10 active torsions:
REMARK  status: ('A' for Active; 'I' for Inactive)
REMARK    1  A    between atoms: O1_1  and  C1_3 
REMARK    2  A    between atoms: C1_3  and  C2_4 
REMARK    3  A    between atoms: C3_6  and  O3_7 
REMARK    4  A    between atoms: O3_7  and  C4_8 
REMARK    5  A    between atoms: C7_14  and  C8_15 
REMARK    6  A    between atoms: C8_15  and  O4_16 
REMARK    7  A    between atoms: C9_18  and  O5_19 
REMARK    8  A    between atoms: C10_21  and  O6_22 
REMARK    9  A    between atoms: C11_24  and  O7_25 
REMARK   10  A    between atoms: C12_27  and  O8_28 
ROOT
HETATM    1  C2  UNL     1      23.088  32.692  17.110  1.00  0.00     0.179 C 
HETATM    2  O2  UNL     1      21.775  33.121  17.282  1.00  0.00    -0.348 OA
HETATM    3  C3  UNL     1      21.563  34.387  16.745  1.00  0.00     0.292 C 
HETATM    4  C10 UNL     1      22.523  35.399  17.285  1.00  0.00     0.204 C 
HETATM    5  C11 UNL     1      23.419  34.789  18.349  1.00  0.00     0.183 C 
HETATM    6  C12 UNL     1      24.071  33.516  17.888  1.00  0.00     0.180 C 
ENDROOT
BRANCH   3   7
HETATM    7  O3  UNL     1      20.230  34.719  17.002  1.00  0.00    -0.349 OA
BRANCH   7   8
HETATM    8  C4  UNL     1      19.342  33.941  16.298  1.00  0.00     0.179 C 
HETATM    9  C5  UNL     1      19.028  34.487  14.921  1.00  0.00     0.266 C 
HETATM   10  N1  UNL     1      17.674  34.988  14.835  1.00  0.00    -0.072 N 
HETATM   11  C6  UNL     1      16.673  33.982  15.007  1.00  0.00     0.241 C 
ATOM     12  H12 UNL     1      17.532  35.752  15.495  1.00  0.00     0.277 HD
ATOM     13  H11 UNL     1      17.532  35.490  13.959  1.00  0.00     0.277 HD
HETATM   14  C7  UNL     1      17.114  32.993  16.062  1.00  0.00     0.066 C 
HETATM   15  C9  UNL     1      18.033  33.733  17.009  1.00  0.00     0.156 C 
BRANCH  14  16
HETATM   16  C8  UNL     1      15.935  32.385  16.789  1.00  0.00     0.173 C 
BRANCH  16  17
HETATM   17  O4  UNL     1      14.840  33.229  16.588  1.00  0.00    -0.400 OA
ATOM     18  H4  UNL     1      14.821  33.845  17.310  1.00  0.00     0.209 HD
ENDBRANCH  16  17
ENDBRANCH  14  16
BRANCH  15  19
HETATM   19  O5  UNL     1      18.157  32.973  18.162  1.00  0.00    -0.392 OA
ATOM     20  H5  UNL     1      18.713  32.212  18.049  1.00  0.00     0.210 HD
ENDBRANCH  15  19
ENDBRANCH   7   8
ENDBRANCH   3   7
BRANCH   4  21
HETATM   21  O6  UNL     1      23.319  35.982  16.309  1.00  0.00    -0.388 OA
ATOM     22  H6  UNL     1      24.118  36.364  16.651  1.00  0.00     0.210 HD
ENDBRANCH   4  21
BRANCH   1  23
HETATM   23  C1  UNL     1      23.161  31.268  17.623  1.00  0.00     0.198 C 
BRANCH  23  24
HETATM   24  O1  UNL     1      22.675  31.278  18.930  1.00  0.00    -0.398 OA
ATOM     25  H1  UNL     1      21.810  30.886  18.909  1.00  0.00     0.209 HD
ENDBRANCH  23  24
ENDBRANCH   1  23
BRANCH   5  26
HETATM   26  O7  UNL     1      22.618  34.485  19.450  1.00  0.00    -0.390 OA
ATOM     27  H7  UNL     1      23.191  34.183  20.146  1.00  0.00     0.210 HD
ENDBRANCH   5  26
BRANCH   6  28
HETATM   28  O8  UNL     1      25.230  33.767  17.127  1.00  0.00    -0.390 OA
ATOM     29  H8  UNL     1      25.035  33.748  16.197  1.00  0.00     0.210 HD
ENDBRANCH   6  28
TORSDOF 10
ENDMDL
