MODEL 1
REMARK VINA RESULT: -6.483904542      0.000      0.000
REMARK  10 active torsions:
REMARK  status: ('A' for Active; 'I' for Inactive)
REMARK    1  A    between atoms: O1_1  and  C1_3 
REMARK    2  A    between atoms: C1_3  and  C2_4 
REMARK    3  A    between atoms: C3_6  and  O3_7 
REMARK    4  A    between atoms: O3_7  and  C4_8 
REMARK    5  A    between atoms: C7_14  and  C8_15 
REMARK    6  A    between atoms: C8_15  and  O4_16 
REMARK    7  A    between atoms: C9_18  and  O5_19 
REMARK    8  A    between atoms: C10_21  and  O6_22 
REMARK    9  A    between atoms: C11_24  and  O7_25 
REMARK   10  A    between atoms: C12_27  and  O8_28 
ROOT
HETATM    1  C2  UNL     1      15.943  33.640  16.017  1.00  0.00     0.179 C 
HETATM    2  O2  UNL     1      15.705  34.998  16.208  1.00  0.00    -0.348 OA
HETATM    3  C3  UNL     1      16.458  35.788  15.345  1.00  0.00     0.292 C 
HETATM    4  C10 UNL     1      17.921  35.491  15.438  1.00  0.00     0.204 C 
HETATM    5  C11 UNL     1      18.203  34.464  16.520  1.00  0.00     0.183 C 
HETATM    6  C12 UNL     1      17.341  33.241  16.388  1.00  0.00     0.180 C 
ENDROOT
BRANCH   3   7
HETATM    7  O3  UNL     1      16.159  37.119  15.649  1.00  0.00    -0.349 OA
BRANCH   7   8
HETATM    8  C4  UNL     1      15.029  37.248  16.422  1.00  0.00     0.179 C 
HETATM    9  C5  UNL     1      13.987  38.161  15.813  1.00  0.00     0.266 C 
HETATM   10  N1  UNL     1      13.859  39.400  16.549  1.00  0.00    -0.072 N 
HETATM   11  C6  UNL     1      13.381  39.230  17.886  1.00  0.00     0.241 C 
ATOM     12  H12 UNL     1      14.740  39.913  16.545  1.00  0.00     0.277 HD
ATOM     13  H11 UNL     1      13.273  40.062  16.040  1.00  0.00     0.277 HD
HETATM   14  C7  UNL     1      13.974  37.978  18.489  1.00  0.00     0.066 C 
HETATM   15  C9  UNL     1      15.308  37.746  17.813  1.00  0.00     0.156 C 
BRANCH  14  16
HETATM   16  C8  UNL     1      14.122  38.092  19.990  1.00  0.00     0.173 C 
BRANCH  16  17
HETATM   17  O4  UNL     1      15.111  39.047  20.240  1.00  0.00    -0.400 OA
ATOM     18  H4  UNL     1      14.999  39.344  21.135  1.00  0.00     0.209 HD
ENDBRANCH  16  17
ENDBRANCH  14  16
BRANCH  15  19
HETATM   19  O5  UNL     1      16.024  36.841  18.581  1.00  0.00    -0.392 OA
ATOM     20  H5  UNL     1      15.581  36.007  18.684  1.00  0.00     0.210 HD
ENDBRANCH  15  19
ENDBRANCH   7   8
ENDBRANCH   3   7
BRANCH   4  21
HETATM   21  O6  UNL     1      18.472  35.048  14.244  1.00  0.00    -0.388 OA
ATOM     22  H6  UNL     1      18.313  34.127  14.073  1.00  0.00     0.210 HD
ENDBRANCH   4  21
BRANCH   1  23
HETATM   23  C1  UNL     1      14.986  32.889  16.920  1.00  0.00     0.198 C 
BRANCH  23  24
HETATM   24  O1  UNL     1      15.712  31.865  17.527  1.00  0.00    -0.398 OA
ATOM     25  H1  UNL     1      15.282  31.048  17.304  1.00  0.00     0.209 HD
ENDBRANCH  23  24
ENDBRANCH   1  23
BRANCH   5  26
HETATM   26  O7  UNL     1      17.916  35.058  17.750  1.00  0.00    -0.390 OA
ATOM     27  H7  UNL     1      18.414  34.596  18.414  1.00  0.00     0.210 HD
ENDBRANCH   5  26
BRANCH   6  28
HETATM   28  O8  UNL     1      17.867  32.327  15.453  1.00  0.00    -0.390 OA
ATOM     29  H8  UNL     1      18.234  31.568  15.892  1.00  0.00     0.210 HD
ENDBRANCH   6  28
TORSDOF 10
ENDMDL
