MODEL 3
REMARK VINA RESULT: -6.280117994      2.575      4.449
REMARK  10 active torsions:
REMARK  status: ('A' for Active; 'I' for Inactive)
REMARK    1  A    between atoms: O1_1  and  C1_3 
REMARK    2  A    between atoms: C1_3  and  C2_4 
REMARK    3  A    between atoms: C3_6  and  O3_7 
REMARK    4  A    between atoms: O3_7  and  C4_8 
REMARK    5  A    between atoms: C7_14  and  C8_15 
REMARK    6  A    between atoms: C8_15  and  O4_16 
REMARK    7  A    between atoms: C9_18  and  O5_19 
REMARK    8  A    between atoms: C10_21  and  O6_22 
REMARK    9  A    between atoms: C11_24  and  O7_25 
REMARK   10  A    between atoms: C12_27  and  O8_28 
ROOT
HETATM    1  C2  UNL     1      18.487  34.499  15.428  1.00  0.00     0.179 C 
HETATM    2  O2  UNL     1      17.408  34.380  14.556  1.00  0.00    -0.348 OA
HETATM    3  C3  UNL     1      16.251  34.954  15.073  1.00  0.00     0.292 C 
HETATM    4  C10 UNL     1      15.902  34.407  16.420  1.00  0.00     0.204 C 
HETATM    5  C11 UNL     1      16.859  33.300  16.827  1.00  0.00     0.183 C 
HETATM    6  C12 UNL     1      18.298  33.709  16.689  1.00  0.00     0.180 C 
ENDROOT
BRANCH   3   7
HETATM    7  O3  UNL     1      15.240  34.747  14.130  1.00  0.00    -0.349 OA
BRANCH   7   8
HETATM    8  C4  UNL     1      14.506  35.883  13.879  1.00  0.00     0.179 C 
HETATM    9  C5  UNL     1      14.799  37.013  14.843  1.00  0.00     0.266 C 
HETATM   10  N1  UNL     1      13.689  37.262  15.735  1.00  0.00    -0.072 N 
HETATM   11  C6  UNL     1      12.506  37.717  15.072  1.00  0.00     0.241 C 
ATOM     12  H12 UNL     1      13.489  36.437  16.299  1.00  0.00     0.277 HD
ATOM     13  H11 UNL     1      13.960  37.912  16.473  1.00  0.00     0.277 HD
HETATM   14  C7  UNL     1      12.349  37.001  13.750  1.00  0.00     0.066 C 
HETATM   15  C9  UNL     1      13.021  35.652  13.893  1.00  0.00     0.156 C 
BRANCH  14  16
HETATM   16  C8  UNL     1      10.896  36.862  13.356  1.00  0.00     0.173 C 
BRANCH  16  17
HETATM   17  O4  UNL     1      10.830  36.966  11.964  1.00  0.00    -0.400 OA
ATOM     18  H4  UNL     1      10.129  37.574  11.759  1.00  0.00     0.209 HD
ENDBRANCH  16  17
ENDBRANCH  14  16
BRANCH  15  19
HETATM   19  O5  UNL     1      12.586  34.848  12.851  1.00  0.00    -0.392 OA
ATOM     20  H5  UNL     1      12.110  34.080  13.146  1.00  0.00     0.210 HD
ENDBRANCH  15  19
ENDBRANCH   7   8
ENDBRANCH   3   7
BRANCH   4  21
HETATM   21  O6  UNL     1      15.880  35.371  17.419  1.00  0.00    -0.388 OA
ATOM     22  H6  UNL     1      15.016  35.734  17.576  1.00  0.00     0.210 HD
ENDBRANCH   4  21
BRANCH   1  23
HETATM   23  C1  UNL     1      19.702  33.950  14.708  1.00  0.00     0.198 C 
BRANCH  23  24
HETATM   24  O1  UNL     1      19.597  34.336  13.373  1.00  0.00    -0.398 OA
ATOM     25  H1  UNL     1      19.672  35.283  13.349  1.00  0.00     0.209 HD
ENDBRANCH  23  24
ENDBRANCH   1  23
BRANCH   5  26
HETATM   26  O7  UNL     1      16.639  32.219  15.973  1.00  0.00    -0.390 OA
ATOM     27  H7  UNL     1      15.962  32.474  15.357  1.00  0.00     0.210 HD
ENDBRANCH   5  26
BRANCH   6  28
HETATM   28  O8  UNL     1      18.745  34.438  17.810  1.00  0.00    -0.390 OA
ATOM     29  H8  UNL     1      18.016  34.681  18.369  1.00  0.00     0.210 HD
ENDBRANCH   6  28
TORSDOF 10
ENDMDL
