MODEL 2
REMARK VINA RESULT: -8.465076766      1.281      1.403
REMARK  8 active torsions:
REMARK  status: ('A' for Active; 'I' for Inactive)
REMARK    1  A    between atoms: C1_2  and  C2_4 
REMARK    2  A    between atoms: C2_4  and  C3_5 
REMARK    3  A    between atoms: C2_4  and  N5_17 
REMARK    4  A    between atoms: C3_5  and  C4_6 
REMARK    5  A    between atoms: C7_9  and  N2_10 
REMARK       I    between atoms: N5_17  and  C11_19 
REMARK    6  A    between atoms: C11_19  and  C12_21 
REMARK    7  A    between atoms: C12_21  and  S1_22 
REMARK    8  A    between atoms: S1_22  and  C13_23 
ROOT
HETATM    1  C2  UNL     1      12.399 -12.609  16.758  1.00  0.00     0.178 C 
ENDROOT
BRANCH   1   2
HETATM    2  C1  UNL     1      12.800 -11.772  17.913  1.00  0.00     0.254 C 
HETATM    3  N1  UNL     1      14.122 -11.719  18.390  1.00  0.00    -0.060 NA
HETATM    4  O1  UNL     1      11.933 -11.063  18.519  1.00  0.00    -0.275 OA
ENDBRANCH   1   2
BRANCH   1   5
HETATM    5  C3  UNL     1      11.336 -13.571  17.159  1.00  0.00     0.073 C 
BRANCH   5   6
HETATM    6  C4  UNL     1      10.257 -13.634  16.164  1.00  0.00    -0.056 A 
HETATM    7  C5  UNL     1       9.264 -12.666  16.076  1.00  0.00     0.009 A 
HETATM    8  C6  UNL     1       8.262 -12.743  15.131  1.00  0.00     0.030 A 
HETATM    9  C7  UNL     1       8.190 -13.784  14.222  1.00  0.00     0.034 A 
HETATM   10  C9  UNL     1       9.169 -14.744  14.305  1.00  0.00     0.030 A 
HETATM   11  C10 UNL     1      10.171 -14.677  15.241  1.00  0.00     0.009 A 
BRANCH   9  12
HETATM   12  N2  UNL     1       7.139 -13.820  13.269  1.00  0.00    -0.333 N 
HETATM   13  C8  UNL     1       7.293 -13.538  12.024  1.00  0.00     0.201 C 
HETATM   14  N3  UNL     1       8.576 -13.166  11.546  1.00  0.00    -0.066 NA
HETATM   15  N4  UNL     1       6.223 -13.587  11.113  1.00  0.00    -0.066 NA
ATOM     16  H2  UNL     1       6.208 -14.085  13.591  1.00  0.00     0.168 HD
ENDBRANCH   9  12
ENDBRANCH   5   6
ENDBRANCH   1   5
BRANCH   1  17
HETATM   17  N5  UNL     1      13.566 -13.319  16.238  1.00  0.00    -0.347 N 
HETATM   18  C11 UNL     1      13.829 -13.311  14.863  1.00  0.00     0.228 C 
HETATM   19  O2  UNL     1      13.056 -12.692  14.095  1.00  0.00    -0.273 OA
ATOM     20  H5  UNL     1      14.187 -13.818  16.874  1.00  0.00     0.163 HD
BRANCH  18  21
HETATM   21  C12 UNL     1      14.992 -14.006  14.237  1.00  0.00     0.182 C 
BRANCH  21  22
HETATM   22  S1  UNL     1      16.527 -13.106  14.458  1.00  0.00    -0.121 SA
BRANCH  22  23
HETATM   23  C13 UNL     1      16.578 -11.631  13.453  1.00  0.00     0.001 A 
HETATM   24  C14 UNL     1      15.769 -10.556  13.748  1.00  0.00     0.020 A 
HETATM   25  C15 UNL     1      15.799  -9.414  12.987  1.00  0.00     0.025 A 
HETATM   26  C16 UNL     1      16.634  -9.287  11.899  1.00  0.00     0.034 A 
HETATM   27 CL1  UNL     1      16.673  -7.817  10.919  1.00  0.00    -0.084 Cl
HETATM   28  C17 UNL     1      17.453 -10.349  11.585  1.00  0.00     0.025 A 
HETATM   29  C18 UNL     1      17.410 -11.494  12.363  1.00  0.00     0.020 A 
ENDBRANCH  22  23
ENDBRANCH  21  22
ENDBRANCH  18  21
ENDBRANCH   1  17
TORSDOF 8
ENDMDL
