MODEL 3
REMARK VINA RESULT: -8.268648804      1.280      2.013
REMARK  8 active torsions:
REMARK  status: ('A' for Active; 'I' for Inactive)
REMARK    1  A    between atoms: C1_2  and  C2_4 
REMARK    2  A    between atoms: C2_4  and  C3_5 
REMARK    3  A    between atoms: C2_4  and  N5_17 
REMARK    4  A    between atoms: C3_5  and  C4_6 
REMARK    5  A    between atoms: C7_9  and  N2_10 
REMARK       I    between atoms: N5_17  and  C11_19 
REMARK    6  A    between atoms: C11_19  and  C12_21 
REMARK    7  A    between atoms: C12_21  and  S1_22 
REMARK    8  A    between atoms: S1_22  and  C13_23 
ROOT
HETATM    1  C2  UNL     1       9.982 -12.619  17.270  1.00  0.00     0.178 C 
ENDROOT
BRANCH   1   2
HETATM    2  C1  UNL     1      10.156 -12.205  18.682  1.00  0.00     0.254 C 
HETATM    3  N1  UNL     1      11.396 -11.798  19.207  1.00  0.00    -0.060 NA
HETATM    4  O1  UNL     1       9.162 -12.211  19.477  1.00  0.00    -0.275 OA
ENDBRANCH   1   2
BRANCH   1   5
HETATM    5  C3  UNL     1       8.768 -13.470  17.125  1.00  0.00     0.073 C 
BRANCH   5   6
HETATM    6  C4  UNL     1       8.580 -13.915  15.737  1.00  0.00    -0.056 A 
HETATM    7  C5  UNL     1       8.630 -15.253  15.368  1.00  0.00     0.009 A 
HETATM    8  C6  UNL     1       8.446 -15.648  14.059  1.00  0.00     0.030 A 
HETATM    9  C7  UNL     1       8.203 -14.738  13.046  1.00  0.00     0.034 A 
HETATM   10  C9  UNL     1       8.153 -13.412  13.406  1.00  0.00     0.030 A 
HETATM   11  C10 UNL     1       8.334 -13.008  14.706  1.00  0.00     0.009 A 
BRANCH   9  12
HETATM   12  N2  UNL     1       8.022 -15.193  11.714  1.00  0.00    -0.333 N 
HETATM   13  C8  UNL     1       6.872 -15.435  11.191  1.00  0.00     0.201 C 
HETATM   14  N3  UNL     1       5.699 -15.247  11.967  1.00  0.00    -0.066 NA
HETATM   15  N4  UNL     1       6.738 -15.886   9.866  1.00  0.00    -0.066 NA
ATOM     16  H2  UNL     1       8.852 -15.336  11.138  1.00  0.00     0.168 HD
ENDBRANCH   9  12
ENDBRANCH   5   6
ENDBRANCH   1   5
BRANCH   1  17
HETATM   17  N5  UNL     1      11.171 -13.338  16.819  1.00  0.00    -0.347 N 
HETATM   18  C11 UNL     1      12.144 -12.670  16.066  1.00  0.00     0.228 C 
HETATM   19  O2  UNL     1      11.979 -11.459  15.790  1.00  0.00    -0.273 OA
ATOM     20  H5  UNL     1      11.293 -14.324  17.052  1.00  0.00     0.163 HD
BRANCH  18  21
HETATM   21  C12 UNL     1      13.390 -13.317  15.560  1.00  0.00     0.182 C 
BRANCH  21  22
HETATM   22  S1  UNL     1      14.871 -12.442  16.066  1.00  0.00    -0.121 SA
BRANCH  22  23
HETATM   23  C13 UNL     1      15.561 -11.481  14.727  1.00  0.00     0.001 A 
HETATM   24  C14 UNL     1      16.706 -11.900  14.086  1.00  0.00     0.020 A 
HETATM   25  C15 UNL     1      17.247 -11.174  13.054  1.00  0.00     0.025 A 
HETATM   26  C16 UNL     1      16.675 -10.002  12.610  1.00  0.00     0.034 A 
HETATM   27 CL1  UNL     1      17.371  -9.069  11.281  1.00  0.00    -0.084 Cl
HETATM   28  C17 UNL     1      15.529  -9.566  13.236  1.00  0.00     0.025 A 
HETATM   29  C18 UNL     1      14.996 -10.309  14.277  1.00  0.00     0.020 A 
ENDBRANCH  22  23
ENDBRANCH  21  22
ENDBRANCH  18  21
ENDBRANCH   1  17
TORSDOF 8
ENDMDL
