MODEL 1
REMARK VINA RESULT: -8.602119605      0.000      0.000
REMARK  8 active torsions:
REMARK  status: ('A' for Active; 'I' for Inactive)
REMARK    1  A    between atoms: C1_2  and  C2_4 
REMARK    2  A    between atoms: C2_4  and  C3_5 
REMARK    3  A    between atoms: C2_4  and  N5_17 
REMARK    4  A    between atoms: C3_5  and  C4_6 
REMARK    5  A    between atoms: C7_9  and  N2_10 
REMARK       I    between atoms: N5_17  and  C11_19 
REMARK    6  A    between atoms: C11_19  and  C12_21 
REMARK    7  A    between atoms: C12_21  and  S1_22 
REMARK    8  A    between atoms: S1_22  and  C13_23 
ROOT
HETATM    1  C2  UNL     1      11.060 -12.080  17.765  1.00  0.00     0.178 C 
ENDROOT
BRANCH   1   2
HETATM    2  C1  UNL     1      11.692 -11.736  19.060  1.00  0.00     0.254 C 
HETATM    3  N1  UNL     1      11.243 -12.258  20.287  1.00  0.00    -0.060 NA
HETATM    4  O1  UNL     1      12.681 -10.935  19.095  1.00  0.00    -0.275 OA
ENDBRANCH   1   2
BRANCH   1   5
HETATM    5  C3  UNL     1       9.810 -12.858  17.988  1.00  0.00     0.073 C 
BRANCH   5   6
HETATM    6  C4  UNL     1       9.138 -13.180  16.722  1.00  0.00    -0.056 A 
HETATM    7  C5  UNL     1       8.378 -12.252  16.021  1.00  0.00     0.009 A 
HETATM    8  C6  UNL     1       7.758 -12.576  14.832  1.00  0.00     0.030 A 
HETATM    9  C7  UNL     1       7.858 -13.837  14.273  1.00  0.00     0.034 A 
HETATM   10  C9  UNL     1       8.608 -14.760  14.962  1.00  0.00     0.030 A 
HETATM   11  C10 UNL     1       9.229 -14.448  16.146  1.00  0.00     0.009 A 
BRANCH   9  12
HETATM   12  N2  UNL     1       7.201 -14.123  13.048  1.00  0.00    -0.333 N 
HETATM   13  C8  UNL     1       7.783 -14.095  11.901  1.00  0.00     0.201 C 
HETATM   14  N3  UNL     1       9.160 -13.762  11.826  1.00  0.00    -0.066 NA
HETATM   15  N4  UNL     1       7.094 -14.384  10.711  1.00  0.00    -0.066 NA
ATOM     16  H2  UNL     1       6.211 -14.364  13.079  1.00  0.00     0.168 HD
ENDBRANCH   9  12
ENDBRANCH   5   6
ENDBRANCH   1   5
BRANCH   1  17
HETATM   17  N5  UNL     1      12.001 -12.842  16.946  1.00  0.00    -0.347 N 
HETATM   18  C11 UNL     1      12.585 -12.246  15.822  1.00  0.00     0.228 C 
HETATM   19  O2  UNL     1      12.291 -11.062  15.534  1.00  0.00    -0.273 OA
ATOM     20  H5  UNL     1      12.232 -13.804  17.193  1.00  0.00     0.163 HD
BRANCH  18  21
HETATM   21  C12 UNL     1      13.554 -12.941  14.925  1.00  0.00     0.182 C 
BRANCH  21  22
HETATM   22  S1  UNL     1      15.248 -12.434  15.224  1.00  0.00    -0.121 SA
BRANCH  22  23
HETATM   23  C13 UNL     1      15.807 -11.249  14.010  1.00  0.00     0.001 A 
HETATM   24  C14 UNL     1      15.197 -10.018  13.903  1.00  0.00     0.020 A 
HETATM   25  C15 UNL     1      15.617  -9.096  12.977  1.00  0.00     0.025 A 
HETATM   26  C16 UNL     1      16.661  -9.352  12.116  1.00  0.00     0.034 A 
HETATM   27 CL1  UNL     1      17.202  -8.165  10.925  1.00  0.00    -0.084 Cl
HETATM   28  C17 UNL     1      17.286 -10.576  12.205  1.00  0.00     0.025 A 
HETATM   29  C18 UNL     1      16.850 -11.496  13.145  1.00  0.00     0.020 A 
ENDBRANCH  22  23
ENDBRANCH  21  22
ENDBRANCH  18  21
ENDBRANCH   1  17
TORSDOF 8
ENDMDL
