MODEL 2
REMARK VINA RESULT: -7.709453525      2.709      4.036
REMARK  16 active torsions:
REMARK  status: ('A' for Active; 'I' for Inactive)
REMARK    1  A    between atoms: C1_2  and  C2_4 
REMARK    2  A    between atoms: C2_4  and  O2_5 
REMARK    3  A    between atoms: O2_5  and  C3_6 
REMARK    4  A    between atoms: C3_6  and  C4_7 
REMARK    5  A    between atoms: C4_7  and  O3_8 
REMARK    6  A    between atoms: O3_8  and  C5_9 
REMARK    7  A    between atoms: C5_9  and  C6_10 
REMARK    8  A    between atoms: C6_10  and  N2_11 
REMARK       I    between atoms: N2_11  and  C7_13 
REMARK    9  A    between atoms: C7_13  and  C8_15 
REMARK   10  A    between atoms: C8_15  and  C9_16 
REMARK   11  A    between atoms: C8_15  and  N6_28 
REMARK   12  A    between atoms: C9_16  and  C10_17 
REMARK   13  A    between atoms: C13_20  and  N3_21 
REMARK       I    between atoms: N6_28  and  C17_30 
REMARK   14  A    between atoms: C17_30  and  C18_32 
REMARK   15  A    between atoms: C18_32  and  S1_33 
REMARK   16  A    between atoms: S1_33  and  C19_34 
ROOT
HETATM    1  C8  UNL     1      12.513 -12.853  16.466  1.00  0.00     0.180 C 
ENDROOT
BRANCH   1   2
HETATM    2  C7  UNL     1      12.917 -11.983  17.635  1.00  0.00     0.240 C 
HETATM    3  N2  UNL     1      11.985 -11.667  18.643  1.00  0.00    -0.357 N 
ATOM      4  H2  UNL     1      11.036 -12.032  18.568  1.00  0.00     0.162 HD
HETATM    5  O4  UNL     1      14.086 -11.531  17.721  1.00  0.00    -0.271 OA
BRANCH   3   6
HETATM    6  C6  UNL     1      12.331 -10.837  19.788  1.00  0.00     0.148 C 
BRANCH   6   7
HETATM    7  C5  UNL     1      12.882 -11.624  20.928  1.00  0.00     0.187 C 
BRANCH   7   8
HETATM    8  O3  UNL     1      14.132 -11.457  21.282  1.00  0.00    -0.387 OA
BRANCH   8   9
HETATM    9  C4  UNL     1      14.807 -11.584  22.385  1.00  0.00     0.193 C 
BRANCH   9  10
HETATM   10  C3  UNL     1      14.304 -12.477  23.483  1.00  0.00     0.194 C 
BRANCH  10  11
HETATM   11  O2  UNL     1      13.844 -11.671  24.567  1.00  0.00    -0.380 OA
BRANCH  11  12
HETATM   12  C2  UNL     1      12.738 -12.285  25.135  1.00  0.00     0.267 C 
BRANCH  12  13
HETATM   13  C1  UNL     1      11.515 -12.063  24.329  1.00  0.00     0.254 C 
HETATM   14  N1  UNL     1      11.266 -10.737  23.853  1.00  0.00    -0.060 NA
HETATM   15  O1  UNL     1      10.700 -12.956  24.045  1.00  0.00    -0.275 OA
ENDBRANCH  12  13
ENDBRANCH  11  12
ENDBRANCH  10  11
ENDBRANCH   9  10
ENDBRANCH   8   9
ENDBRANCH   7   8
ENDBRANCH   6   7
ENDBRANCH   3   6
ENDBRANCH   1   2
BRANCH   1  16
HETATM   16  C9  UNL     1      11.459 -13.811  16.971  1.00  0.00     0.073 C 
BRANCH  16  17
HETATM   17  C10 UNL     1      10.309 -13.909  16.035  1.00  0.00    -0.056 A 
HETATM   18  C11 UNL     1       9.010 -13.708  16.458  1.00  0.00     0.009 A 
HETATM   19  C12 UNL     1       7.954 -13.805  15.568  1.00  0.00     0.030 A 
HETATM   20  C13 UNL     1       8.143 -14.104  14.235  1.00  0.00     0.034 A 
HETATM   21  C15 UNL     1       9.440 -14.304  13.814  1.00  0.00     0.030 A 
HETATM   22  C16 UNL     1      10.497 -14.208  14.702  1.00  0.00     0.009 A 
BRANCH  20  23
HETATM   23  N3  UNL     1       7.037 -14.198  13.335  1.00  0.00    -0.333 N 
HETATM   24  C14 UNL     1       6.611 -15.331  12.938  1.00  0.00     0.201 C 
HETATM   25  N4  UNL     1       5.521 -15.419  12.051  1.00  0.00    -0.066 NA
HETATM   26  N5  UNL     1       7.234 -16.515  13.388  1.00  0.00    -0.066 NA
ATOM     27  H3  UNL     1       6.582 -13.347  13.007  1.00  0.00     0.168 HD
ENDBRANCH  20  23
ENDBRANCH  16  17
ENDBRANCH   1  16
BRANCH   1  28
HETATM   28  N6  UNL     1      13.700 -13.553  16.023  1.00  0.00    -0.347 N 
HETATM   29  C17 UNL     1      14.174 -13.523  14.683  1.00  0.00     0.228 C 
HETATM   30  O5  UNL     1      13.492 -12.836  13.864  1.00  0.00    -0.273 OA
ATOM     31  H6  UNL     1      14.224 -14.097  16.708  1.00  0.00     0.163 HD
BRANCH  29  32
HETATM   32  C18 UNL     1      15.385 -14.259  14.308  1.00  0.00     0.182 C 
BRANCH  32  33
HETATM   33  S1  UNL     1      16.845 -13.245  14.660  1.00  0.00    -0.121 SA
BRANCH  33  34
HETATM   34  C19 UNL     1      16.862 -11.791  13.599  1.00  0.00     0.001 A 
HETATM   35  C20 UNL     1      16.113 -10.674  13.891  1.00  0.00     0.020 A 
HETATM   36  C21 UNL     1      16.112  -9.557  13.096  1.00  0.00     0.025 A 
HETATM   37  C22 UNL     1      16.889  -9.522  11.944  1.00  0.00     0.034 A 
HETATM   38 CL1  UNL     1      16.898  -8.097  10.916  1.00  0.00    -0.084 Cl
HETATM   39  C23 UNL     1      17.637 -10.637  11.653  1.00  0.00     0.025 A 
HETATM   40  C24 UNL     1      17.636 -11.755  12.451  1.00  0.00     0.020 A 
ENDBRANCH  33  34
ENDBRANCH  32  33
ENDBRANCH  29  32
ENDBRANCH   1  28
TORSDOF 16
ENDMDL
