MODEL 1
REMARK VINA RESULT: -7.869575310      0.000      0.000
REMARK  16 active torsions:
REMARK  status: ('A' for Active; 'I' for Inactive)
REMARK    1  A    between atoms: C1_2  and  C2_4 
REMARK    2  A    between atoms: C2_4  and  O2_5 
REMARK    3  A    between atoms: O2_5  and  C3_6 
REMARK    4  A    between atoms: C3_6  and  C4_7 
REMARK    5  A    between atoms: C4_7  and  O3_8 
REMARK    6  A    between atoms: O3_8  and  C5_9 
REMARK    7  A    between atoms: C5_9  and  C6_10 
REMARK    8  A    between atoms: C6_10  and  N2_11 
REMARK       I    between atoms: N2_11  and  C7_13 
REMARK    9  A    between atoms: C7_13  and  C8_15 
REMARK   10  A    between atoms: C8_15  and  C9_16 
REMARK   11  A    between atoms: C8_15  and  N6_28 
REMARK   12  A    between atoms: C9_16  and  C10_17 
REMARK   13  A    between atoms: C13_20  and  N3_21 
REMARK       I    between atoms: N6_28  and  C17_30 
REMARK   14  A    between atoms: C17_30  and  C18_32 
REMARK   15  A    between atoms: C18_32  and  S1_33 
REMARK   16  A    between atoms: S1_33  and  C19_34 
ROOT
HETATM    1  C8  UNL     1      10.221 -13.749  14.526  1.00  0.00     0.180 C 
ENDROOT
BRANCH   1   2
HETATM    2  C7  UNL     1       9.559 -12.775  15.475  1.00  0.00     0.240 C 
HETATM    3  N2  UNL     1       8.563 -13.217  16.368  1.00  0.00    -0.357 N 
ATOM      4  H2  UNL     1       8.295 -14.201  16.360  1.00  0.00     0.162 HD
HETATM    5  O4  UNL     1       9.887 -11.563  15.478  1.00  0.00    -0.271 OA
BRANCH   3   6
HETATM    6  C6  UNL     1       7.901 -12.317  17.301  1.00  0.00     0.148 C 
BRANCH   6   7
HETATM    7  C5  UNL     1       8.321 -12.537  18.714  1.00  0.00     0.187 C 
BRANCH   7   8
HETATM    8  O3  UNL     1       9.404 -11.951  19.164  1.00  0.00    -0.387 OA
BRANCH   8   9
HETATM    9  C4  UNL     1      10.610 -12.335  19.459  1.00  0.00     0.193 C 
BRANCH   9  10
HETATM   10  C3  UNL     1      11.668 -12.397  18.394  1.00  0.00     0.194 C 
BRANCH  10  11
HETATM   11  O2  UNL     1      12.255 -11.105  18.243  1.00  0.00    -0.380 OA
BRANCH  11  12
HETATM   12  C2  UNL     1      12.637 -10.645  19.493  1.00  0.00     0.267 C 
BRANCH  12  13
HETATM   13  C1  UNL     1      14.074 -10.891  19.751  1.00  0.00     0.254 C 
HETATM   14  N1  UNL     1      14.453 -11.294  21.071  1.00  0.00    -0.060 NA
HETATM   15  O1  UNL     1      14.964 -10.766  18.894  1.00  0.00    -0.275 OA
ENDBRANCH  12  13
ENDBRANCH  11  12
ENDBRANCH  10  11
ENDBRANCH   9  10
ENDBRANCH   8   9
ENDBRANCH   7   8
ENDBRANCH   6   7
ENDBRANCH   3   6
ENDBRANCH   1   2
BRANCH   1  16
HETATM   16  C9  UNL     1       9.289 -14.930  14.383  1.00  0.00     0.073 C 
BRANCH  16  17
HETATM   17  C10 UNL     1       8.573 -14.912  13.082  1.00  0.00    -0.056 A 
HETATM   18  C11 UNL     1       7.199 -14.791  13.011  1.00  0.00     0.009 A 
HETATM   19  C12 UNL     1       6.553 -14.777  11.787  1.00  0.00     0.030 A 
HETATM   20  C13 UNL     1       7.237 -14.884  10.594  1.00  0.00     0.034 A 
HETATM   21  C15 UNL     1       8.608 -15.006  10.665  1.00  0.00     0.030 A 
HETATM   22  C16 UNL     1       9.257 -15.020  11.888  1.00  0.00     0.009 A 
BRANCH  20  23
HETATM   23  N3  UNL     1       6.548 -14.868   9.342  1.00  0.00    -0.333 N 
HETATM   24  C14 UNL     1       6.257 -15.952   8.741  1.00  0.00     0.201 C 
HETATM   25  N4  UNL     1       5.578 -15.931   7.508  1.00  0.00    -0.066 NA
HETATM   26  N5  UNL     1       6.616 -17.192   9.311  1.00  0.00    -0.066 NA
ATOM     27  H3  UNL     1       6.285 -13.975   8.925  1.00  0.00     0.168 HD
ENDBRANCH  20  23
ENDBRANCH  16  17
ENDBRANCH   1  16
BRANCH   1  28
HETATM   28  N6  UNL     1      11.483 -14.135  15.121  1.00  0.00    -0.347 N 
HETATM   29  C17 UNL     1      12.744 -13.900  14.508  1.00  0.00     0.228 C 
HETATM   30  O5  UNL     1      12.718 -13.318  13.382  1.00  0.00    -0.273 OA
ATOM     31  H6  UNL     1      11.466 -14.602  16.028  1.00  0.00     0.163 HD
BRANCH  29  32
HETATM   32  C18 UNL     1      13.981 -14.320  15.172  1.00  0.00     0.182 C 
BRANCH  32  33
HETATM   33  S1  UNL     1      14.814 -12.874  15.877  1.00  0.00    -0.121 SA
BRANCH  33  34
HETATM   34  C19 UNL     1      15.662 -11.953  14.584  1.00  0.00     0.001 A 
HETATM   35  C20 UNL     1      16.737 -12.482  13.906  1.00  0.00     0.020 A 
HETATM   36  C21 UNL     1      17.397 -11.797  12.919  1.00  0.00     0.025 A 
HETATM   37  C22 UNL     1      16.986 -10.517  12.566  1.00  0.00     0.034 A 
HETATM   38 CL1  UNL     1      17.821  -9.626  11.303  1.00  0.00    -0.084 Cl
HETATM   39  C23 UNL     1      15.914  -9.989  13.244  1.00  0.00     0.025 A 
HETATM   40  C24 UNL     1      15.254 -10.677  14.233  1.00  0.00     0.020 A 
ENDBRANCH  33  34
ENDBRANCH  32  33
ENDBRANCH  29  32
ENDBRANCH   1  28
TORSDOF 16
ENDMDL
