MODEL 3
REMARK VINA RESULT: -7.699173912      2.833      4.847
REMARK  16 active torsions:
REMARK  status: ('A' for Active; 'I' for Inactive)
REMARK    1  A    between atoms: C1_2  and  C2_4 
REMARK    2  A    between atoms: C2_4  and  O2_5 
REMARK    3  A    between atoms: O2_5  and  C3_6 
REMARK    4  A    between atoms: C3_6  and  C4_7 
REMARK    5  A    between atoms: C4_7  and  O3_8 
REMARK    6  A    between atoms: O3_8  and  C5_9 
REMARK    7  A    between atoms: C5_9  and  C6_10 
REMARK    8  A    between atoms: C6_10  and  N2_11 
REMARK       I    between atoms: N2_11  and  C7_13 
REMARK    9  A    between atoms: C7_13  and  C8_15 
REMARK   10  A    between atoms: C8_15  and  C9_16 
REMARK   11  A    between atoms: C8_15  and  N6_28 
REMARK   12  A    between atoms: C9_16  and  C10_17 
REMARK   13  A    between atoms: C13_20  and  N3_21 
REMARK       I    between atoms: N6_28  and  C17_30 
REMARK   14  A    between atoms: C17_30  and  C18_32 
REMARK   15  A    between atoms: C18_32  and  S1_33 
REMARK   16  A    between atoms: S1_33  and  C19_34 
ROOT
HETATM    1  C8  UNL     1       9.038 -12.826  16.595  1.00  0.00     0.180 C 
ENDROOT
BRANCH   1   2
HETATM    2  C7  UNL     1       9.416 -12.496  18.021  1.00  0.00     0.240 C 
HETATM    3  N2  UNL     1      10.770 -12.456  18.409  1.00  0.00    -0.357 N 
ATOM      4  H2  UNL     1      11.487 -12.657  17.713  1.00  0.00     0.162 HD
HETATM    5  O4  UNL     1       8.529 -12.255  18.877  1.00  0.00    -0.271 OA
BRANCH   3   6
HETATM    6  C6  UNL     1      11.180 -12.139  19.769  1.00  0.00     0.148 C 
BRANCH   6   7
HETATM    7  C5  UNL     1      12.223 -11.076  19.826  1.00  0.00     0.187 C 
BRANCH   7   8
HETATM    8  O3  UNL     1      13.185 -11.069  18.936  1.00  0.00    -0.387 OA
BRANCH   8   9
HETATM    9  C4  UNL     1      14.319 -11.687  18.793  1.00  0.00     0.193 C 
BRANCH   9  10
HETATM   10  C3  UNL     1      14.637 -12.403  17.511  1.00  0.00     0.194 C 
BRANCH  10  11
HETATM   11  O2  UNL     1      15.351 -11.519  16.648  1.00  0.00    -0.380 OA
BRANCH  11  12
HETATM   12  C2  UNL     1      15.941 -12.267  15.641  1.00  0.00     0.267 C 
BRANCH  12  13
HETATM   13  C1  UNL     1      15.680 -11.685  14.304  1.00  0.00     0.254 C 
HETATM   14  N1  UNL     1      15.026 -10.413  14.249  1.00  0.00    -0.060 NA
HETATM   15  O1  UNL     1      15.993 -12.234  13.235  1.00  0.00    -0.275 OA
ENDBRANCH  12  13
ENDBRANCH  11  12
ENDBRANCH  10  11
ENDBRANCH   9  10
ENDBRANCH   8   9
ENDBRANCH   7   8
ENDBRANCH   6   7
ENDBRANCH   3   6
ENDBRANCH   1   2
BRANCH   1  16
HETATM   16  C9  UNL     1       8.068 -13.983  16.651  1.00  0.00     0.073 C 
BRANCH  16  17
HETATM   17  C10 UNL     1       7.833 -14.571  15.306  1.00  0.00    -0.056 A 
HETATM   18  C11 UNL     1       8.066 -15.906  15.047  1.00  0.00     0.009 A 
HETATM   19  C12 UNL     1       7.839 -16.432  13.786  1.00  0.00     0.030 A 
HETATM   20  C13 UNL     1       7.378 -15.659  12.741  1.00  0.00     0.034 A 
HETATM   21  C15 UNL     1       7.145 -14.325  13.001  1.00  0.00     0.030 A 
HETATM   22  C16 UNL     1       7.371 -13.798  14.260  1.00  0.00     0.009 A 
BRANCH  20  23
HETATM   23  N3  UNL     1       7.151 -16.224  11.448  1.00  0.00    -0.333 N 
HETATM   24  C14 UNL     1       6.001 -16.657  11.115  1.00  0.00     0.201 C 
HETATM   25  N4  UNL     1       5.783 -17.213   9.840  1.00  0.00    -0.066 NA
HETATM   26  N5  UNL     1       4.928 -16.580  12.028  1.00  0.00    -0.066 NA
ATOM     27  H3  UNL     1       7.922 -16.281  10.783  1.00  0.00     0.168 HD
ENDBRANCH  20  23
ENDBRANCH  16  17
ENDBRANCH   1  16
BRANCH   1  28
HETATM   28  N6  UNL     1      10.257 -13.186  15.902  1.00  0.00    -0.347 N 
HETATM   29  C17 UNL     1      10.937 -12.316  15.008  1.00  0.00     0.228 C 
HETATM   30  O5  UNL     1      10.417 -11.173  14.835  1.00  0.00    -0.273 OA
ATOM     31  H6  UNL     1      10.648 -14.114  16.064  1.00  0.00     0.163 HD
BRANCH  29  32
HETATM   32  C18 UNL     1      12.168 -12.751  14.341  1.00  0.00     0.182 C 
BRANCH  32  33
HETATM   33  S1  UNL     1      12.396 -14.532  14.589  1.00  0.00    -0.121 SA
BRANCH  33  34
HETATM   34  C19 UNL     1      11.682 -15.447  13.213  1.00  0.00     0.001 A 
HETATM   35  C20 UNL     1      11.170 -14.807  12.107  1.00  0.00     0.020 A 
HETATM   36  C21 UNL     1      10.621 -15.485  11.049  1.00  0.00     0.025 A 
HETATM   37  C22 UNL     1      10.568 -16.874  11.066  1.00  0.00     0.034 A 
HETATM   38 CL1  UNL     1       9.869 -17.757   9.717  1.00  0.00    -0.084 Cl
HETATM   39  C23 UNL     1      11.079 -17.513  12.169  1.00  0.00     0.025 A 
HETATM   40  C24 UNL     1      11.628 -16.831  13.228  1.00  0.00     0.020 A 
ENDBRANCH  33  34
ENDBRANCH  32  33
ENDBRANCH  29  32
ENDBRANCH   1  28
TORSDOF 16
ENDMDL
