MODEL 3
REMARK VINA RESULT: -8.648406042      1.698      2.564
REMARK  10 active torsions:
REMARK  status: ('A' for Active; 'I' for Inactive)
REMARK    1  A    between atoms: N5_13  and  C6_14 
REMARK    2  A    between atoms: C7_16  and  C8_17 
REMARK    3  A    between atoms: C8_17  and  O2_18 
REMARK    4  A    between atoms: O2_18  and  P1_19 
REMARK    5  A    between atoms: P1_19  and  C9_22 
REMARK    6  A    between atoms: C9_22  and  P2_23 
REMARK    7  A    between atoms: P2_23  and  O7_26 
REMARK    8  A    between atoms: O7_26  and  P3_27 
REMARK    9  A    between atoms: C10_31  and  O11_32 
REMARK   10  A    between atoms: C11_34  and  O12_35 
ROOT
HETATM    1  C6  UNL     1       1.664  -6.645  12.534  1.00  0.00     0.262 C 
HETATM    2  O1  UNL     1       0.840  -7.340  11.687  1.00  0.00    -0.353 OA
HETATM    3  C7  UNL     1       0.414  -6.354  10.799  1.00  0.00     0.180 C 
HETATM    4  C10 UNL     1       1.577  -5.445  10.539  1.00  0.00     0.182 C 
HETATM    5  C11 UNL     1       2.601  -5.951  11.551  1.00  0.00     0.198 C 
ENDROOT
BRANCH   3   6
HETATM    6  C8  UNL     1      -0.044  -6.941   9.484  1.00  0.00     0.213 C 
BRANCH   6   7
HETATM    7  O2  UNL     1       0.559  -8.194   9.359  1.00  0.00    -0.309 OA
BRANCH   7   8
HETATM    8  P1  UNL     1       1.179  -8.429   7.804  1.00  0.00     0.261 P 
HETATM    9  O3  UNL     1       2.249  -7.409   7.494  1.00  0.00    -0.646 OA
HETATM   10  O4  UNL     1      -0.091  -8.218   6.700  1.00  0.00    -0.646 OA
BRANCH   8  11
HETATM   11  C9  UNL     1       1.847 -10.081   7.569  1.00  0.00     0.270 C 
BRANCH  11  12
HETATM   12  P2  UNL     1       2.934 -10.571   8.943  1.00  0.00     0.272 P 
HETATM   13  O5  UNL     1       2.122 -10.791  10.216  1.00  0.00    -0.646 OA
HETATM   14  O6  UNL     1       4.045  -9.357   9.258  1.00  0.00    -0.646 OA
BRANCH  12  15
HETATM   15  O7  UNL     1       3.713 -11.996   8.475  1.00  0.00    -0.196 OA
BRANCH  15  16
HETATM   16  P3  UNL     1       5.268 -11.706   7.906  1.00  0.00     0.430 P 
HETATM   17  O8  UNL     1       5.828 -12.956   7.245  1.00  0.00    -0.616 OA
HETATM   18  O9  UNL     1       5.298 -10.453   6.779  1.00  0.00    -0.616 OA
HETATM   19  O10 UNL     1       6.248 -11.336   9.243  1.00  0.00    -0.616 OA
ENDBRANCH  15  16
ENDBRANCH  12  15
ENDBRANCH  11  12
ENDBRANCH   8  11
ENDBRANCH   7   8
ENDBRANCH   6   7
ENDBRANCH   3   6
BRANCH   4  20
HETATM   20  O11 UNL     1       1.222  -4.165  10.928  1.00  0.00    -0.390 OA
ATOM     21  H11 UNL     1       0.352  -3.982  10.593  1.00  0.00     0.210 HD
ENDBRANCH   4  20
BRANCH   1  22
HETATM   22  N5  UNL     1       2.378  -7.457  13.478  1.00  0.00    -0.297 N 
HETATM   23  C3  UNL     1       3.322  -8.391  13.279  1.00  0.00     0.142 A 
HETATM   24  N3  UNL     1       3.873  -8.837  12.160  1.00  0.00    -0.336 N 
HETATM   25  C4  UNL     1       3.718  -8.909  14.513  1.00  0.00     0.119 A 
HETATM   26  C2  UNL     1       4.815  -9.794  12.218  1.00  0.00     0.183 A 
ATOM     27  H3  UNL     1       3.583  -8.457  11.259  1.00  0.00     0.168 HD
HETATM   28  N2  UNL     1       5.204 -10.302  13.402  1.00  0.00    -0.339 N 
HETATM   29  C1  UNL     1       4.690  -9.896  14.574  1.00  0.00     0.148 A 
ATOM     30  H2  UNL     1       5.922 -11.026  13.410  1.00  0.00     0.167 HD
HETATM   31  N1  UNL     1       5.095 -10.424  15.829  1.00  0.00    -0.080 NA
HETATM   32  N4  UNL     1       3.008  -8.282  15.437  1.00  0.00    -0.346 N 
HETATM   33  C5  UNL     1       2.200  -7.405  14.811  1.00  0.00     0.188 A 
ATOM     34  H4  UNL     1       3.063  -8.435  16.444  1.00  0.00     0.167 HD
ENDBRANCH   1  22
BRANCH   5  35
HETATM   35  O12 UNL     1       3.246  -4.892  12.182  1.00  0.00    -0.388 OA
ATOM     36  H12 UNL     1       3.372  -4.178  11.567  1.00  0.00     0.210 HD
ENDBRANCH   5  35
TORSDOF 10
ENDMDL
