MODEL 4
REMARK VINA RESULT: -8.599446272      2.355      3.121
REMARK  10 active torsions:
REMARK  status: ('A' for Active; 'I' for Inactive)
REMARK    1  A    between atoms: N5_13  and  C6_14 
REMARK    2  A    between atoms: C7_16  and  C8_17 
REMARK    3  A    between atoms: C8_17  and  O2_18 
REMARK    4  A    between atoms: O2_18  and  P1_19 
REMARK    5  A    between atoms: P1_19  and  C9_22 
REMARK    6  A    between atoms: C9_22  and  P2_23 
REMARK    7  A    between atoms: P2_23  and  O7_26 
REMARK    8  A    between atoms: O7_26  and  P3_27 
REMARK    9  A    between atoms: C10_31  and  O11_32 
REMARK   10  A    between atoms: C11_34  and  O12_35 
ROOT
HETATM    1  C6  UNL     1       1.599  -6.790  12.498  1.00  0.00     0.262 C 
HETATM    2  O1  UNL     1       0.907  -7.434  11.506  1.00  0.00    -0.353 OA
HETATM    3  C7  UNL     1       0.389  -6.377  10.760  1.00  0.00     0.180 C 
HETATM    4  C10 UNL     1       1.430  -5.300  10.714  1.00  0.00     0.182 C 
HETATM    5  C11 UNL     1       2.473  -5.834  11.693  1.00  0.00     0.198 C 
ENDROOT
BRANCH   3   6
HETATM    6  C8  UNL     1       0.062  -6.793   9.344  1.00  0.00     0.213 C 
BRANCH   6   7
HETATM    7  O2  UNL     1       0.294  -8.167   9.256  1.00  0.00    -0.309 OA
BRANCH   7   8
HETATM    8  P1  UNL     1       1.312  -8.539   7.959  1.00  0.00     0.261 P 
HETATM    9  O3  UNL     1       2.178  -7.355   7.600  1.00  0.00    -0.646 OA
HETATM   10  O4  UNL     1       0.337  -8.908   6.620  1.00  0.00    -0.646 OA
BRANCH   8  11
HETATM   11  C9  UNL     1       2.359  -9.962   8.289  1.00  0.00     0.270 C 
BRANCH  11  12
HETATM   12  P2  UNL     1       1.510 -11.201   9.314  1.00  0.00     0.272 P 
HETATM   13  O5  UNL     1       0.008 -11.176   9.049  1.00  0.00    -0.646 OA
HETATM   14  O6  UNL     1       1.740 -10.859  10.938  1.00  0.00    -0.646 OA
BRANCH  12  15
HETATM   15  O7  UNL     1       2.164 -12.708   8.916  1.00  0.00    -0.196 OA
BRANCH  15  16
HETATM   16  P3  UNL     1       2.842 -13.472  10.251  1.00  0.00     0.430 P 
HETATM   17  O8  UNL     1       3.214 -14.906   9.903  1.00  0.00    -0.616 OA
HETATM   18  O9  UNL     1       4.231 -12.682  10.786  1.00  0.00    -0.616 OA
HETATM   19  O10 UNL     1       1.666 -13.517  11.475  1.00  0.00    -0.616 OA
ENDBRANCH  15  16
ENDBRANCH  12  15
ENDBRANCH  11  12
ENDBRANCH   8  11
ENDBRANCH   7   8
ENDBRANCH   6   7
ENDBRANCH   3   6
BRANCH   4  20
HETATM   20  O11 UNL     1       0.895  -4.154  11.277  1.00  0.00    -0.390 OA
ATOM     21  H11 UNL     1       1.413  -3.412  10.991  1.00  0.00     0.210 HD
ENDBRANCH   4  20
BRANCH   1  22
HETATM   22  N5  UNL     1       2.378  -7.649  13.343  1.00  0.00    -0.297 N 
HETATM   23  C3  UNL     1       3.348  -8.524  13.032  1.00  0.00     0.142 A 
HETATM   24  N3  UNL     1       3.872  -8.851  11.860  1.00  0.00    -0.336 N 
HETATM   25  C4  UNL     1       3.809  -9.130  14.202  1.00  0.00     0.119 A 
HETATM   26  C2  UNL     1       4.851  -9.771  11.803  1.00  0.00     0.183 A 
ATOM     27  H3  UNL     1       3.536  -8.407  11.006  1.00  0.00     0.168 HD
HETATM   28  N2  UNL     1       5.303 -10.361  12.925  1.00  0.00    -0.339 N 
HETATM   29  C1  UNL     1       4.818 -10.078  14.144  1.00  0.00     0.148 A 
ATOM     30  H2  UNL     1       6.047 -11.054  12.846  1.00  0.00     0.167 HD
HETATM   31  N1  UNL     1       5.289 -10.695  15.334  1.00  0.00    -0.080 NA
HETATM   32  N4  UNL     1       3.111  -8.613  15.201  1.00  0.00    -0.346 N 
HETATM   33  C5  UNL     1       2.247  -7.719  14.680  1.00  0.00     0.188 A 
ATOM     34  H4  UNL     1       3.209  -8.849  16.189  1.00  0.00     0.167 HD
ENDBRANCH   1  22
BRANCH   5  35
HETATM   35  O12 UNL     1       2.949  -4.820  12.519  1.00  0.00    -0.388 OA
ATOM     36  H12 UNL     1       3.702  -4.403  12.116  1.00  0.00     0.210 HD
ENDBRANCH   5  35
TORSDOF 10
ENDMDL
