MODEL 1
REMARK VINA RESULT: -8.788635494      0.000      0.000
REMARK  10 active torsions:
REMARK  status: ('A' for Active; 'I' for Inactive)
REMARK    1  A    between atoms: N5_13  and  C6_14 
REMARK    2  A    between atoms: C7_16  and  C8_17 
REMARK    3  A    between atoms: C8_17  and  O2_18 
REMARK    4  A    between atoms: O2_18  and  P1_19 
REMARK    5  A    between atoms: P1_19  and  C9_22 
REMARK    6  A    between atoms: C9_22  and  P2_23 
REMARK    7  A    between atoms: P2_23  and  O7_26 
REMARK    8  A    between atoms: O7_26  and  P3_27 
REMARK    9  A    between atoms: C10_31  and  O11_32 
REMARK   10  A    between atoms: C11_34  and  O12_35 
ROOT
HETATM    1  C6  UNL     1       2.970  -7.343  11.148  1.00  0.00     0.262 C 
HETATM    2  O1  UNL     1       2.172  -7.833  10.147  1.00  0.00    -0.353 OA
HETATM    3  C7  UNL     1       2.010  -6.725   9.316  1.00  0.00     0.180 C 
HETATM    4  C10 UNL     1       3.315  -5.988   9.283  1.00  0.00     0.182 C 
HETATM    5  C11 UNL     1       4.116  -6.726  10.353  1.00  0.00     0.198 C 
ENDROOT
BRANCH   3   6
HETATM    6  C8  UNL     1       1.646  -7.127   7.906  1.00  0.00     0.213 C 
BRANCH   6   7
HETATM    7  O2  UNL     1       2.274  -8.348   7.651  1.00  0.00    -0.309 OA
BRANCH   7   8
HETATM    8  P1  UNL     1       1.223  -9.438   6.898  1.00  0.00     0.261 P 
HETATM    9  O3  UNL     1       0.030  -8.716   6.316  1.00  0.00    -0.646 OA
HETATM   10  O4  UNL     1       0.664 -10.521   8.077  1.00  0.00    -0.646 OA
BRANCH   8  11
HETATM   11  C9  UNL     1       2.028 -10.393   5.606  1.00  0.00     0.270 C 
BRANCH  11  12
HETATM   12  P2  UNL     1       3.681 -10.955   6.113  1.00  0.00     0.272 P 
HETATM   13  O5  UNL     1       4.700  -9.829   5.960  1.00  0.00    -0.646 OA
HETATM   14  O6  UNL     1       4.182 -12.223   5.140  1.00  0.00    -0.646 OA
BRANCH  12  15
HETATM   15  O7  UNL     1       3.566 -11.442   7.728  1.00  0.00    -0.196 OA
BRANCH  15  16
HETATM   16  P3  UNL     1       5.038 -11.316   8.530  1.00  0.00     0.430 P 
HETATM   17  O8  UNL     1       5.028 -12.175   9.786  1.00  0.00    -0.616 OA
HETATM   18  O9  UNL     1       6.323 -11.813   7.560  1.00  0.00    -0.616 OA
HETATM   19  O10 UNL     1       5.233  -9.697   9.003  1.00  0.00    -0.616 OA
ENDBRANCH  15  16
ENDBRANCH  12  15
ENDBRANCH  11  12
ENDBRANCH   8  11
ENDBRANCH   7   8
ENDBRANCH   6   7
ENDBRANCH   3   6
BRANCH   4  20
HETATM   20  O11 UNL     1       3.100  -4.704   9.752  1.00  0.00    -0.390 OA
ATOM     21  H11 UNL     1       2.721  -4.764  10.621  1.00  0.00     0.210 HD
ENDBRANCH   4  20
BRANCH   1  22
HETATM   22  N5  UNL     1       3.433  -8.328  12.084  1.00  0.00    -0.297 N 
HETATM   23  C3  UNL     1       4.034  -8.177  13.275  1.00  0.00     0.142 A 
HETATM   24  N3  UNL     1       4.375  -7.082  13.937  1.00  0.00    -0.336 N 
HETATM   25  C4  UNL     1       4.296  -9.437  13.817  1.00  0.00     0.119 A 
HETATM   26  C2  UNL     1       4.976  -7.189  15.135  1.00  0.00     0.183 A 
ATOM     27  H3  UNL     1       4.182  -6.163  13.541  1.00  0.00     0.168 HD
HETATM   28  N2  UNL     1       5.234  -8.399  15.667  1.00  0.00    -0.339 N 
HETATM   29  C1  UNL     1       4.915  -9.548  15.051  1.00  0.00     0.148 A 
ATOM     30  H2  UNL     1       5.691  -8.444  16.577  1.00  0.00     0.167 HD
HETATM   31  N1  UNL     1       5.182 -10.829  15.605  1.00  0.00    -0.080 NA
HETATM   32  N4  UNL     1       3.850 -10.328  12.945  1.00  0.00    -0.346 N 
HETATM   33  C5  UNL     1       3.330  -9.657  11.899  1.00  0.00     0.188 A 
ATOM     34  H4  UNL     1       3.893 -11.342  13.047  1.00  0.00     0.167 HD
ENDBRANCH   1  22
BRANCH   5  35
HETATM   35  O12 UNL     1       4.820  -5.832  11.155  1.00  0.00    -0.388 OA
ATOM     36  H12 UNL     1       4.773  -4.959  10.783  1.00  0.00     0.210 HD
ENDBRANCH   5  35
TORSDOF 10
ENDMDL
