MODEL 1
REMARK VINA RESULT: -8.867037497      0.000      0.000
REMARK  12 active torsions:
REMARK  status: ('A' for Active; 'I' for Inactive)
REMARK    1  A    between atoms: C2_2  and  N1_3 
REMARK    2  A    between atoms: C4_5  and  C5_6 
REMARK    3  A    between atoms: C5_6  and  O1_7 
REMARK    4  A    between atoms: O1_7  and  C6_8 
REMARK    5  A    between atoms: C6_8  and  C7_10 
REMARK    6  A    between atoms: C12_15  and  N2_16 
REMARK    7  A    between atoms: C20_26  and  O5_27 
REMARK    8  A    between atoms: C24_31  and  O6_32 
REMARK    9  A    between atoms: C25_34  and  O7_35 
REMARK   10  A    between atoms: C28_38  and  O8_39 
REMARK   11  A    between atoms: C30_42  and  O9_43 
REMARK   12  A    between atoms: C36_49  and  O10_50 
ROOT
HETATM    1  N1  UNL     1       6.460   4.116 -12.566  1.00  0.00     0.097 N 
HETATM    2  C3  UNL     1       5.362   3.200 -12.334  1.00  0.00     0.285 C 
HETATM    3  C4  UNL     1       5.593   1.940 -13.114  1.00  0.00     0.015 C 
HETATM    4  C18 UNL     1       6.674   1.182 -12.329  1.00  0.00     0.016 C 
HETATM    5  C19 UNL     1       7.837   0.845 -13.193  1.00  0.00     0.034 C 
HETATM    6  C20 UNL     1       8.439   2.130 -13.816  1.00  0.00     0.132 C 
HETATM    7  C22 UNL     1       7.399   2.912 -14.517  1.00  0.00     0.031 C 
HETATM    8  C23 UNL     1       6.924   4.183 -13.916  1.00  0.00     0.274 C 
HETATM    9  C24 UNL     1       5.786   4.504 -14.889  1.00  0.00     0.147 C 
HETATM   10  C25 UNL     1       5.057   3.198 -15.103  1.00  0.00     0.166 C 
HETATM   11  C27 UNL     1       6.028   2.190 -14.534  1.00  0.00     0.044 C 
HETATM   12  C28 UNL     1       6.318   5.006 -16.224  1.00  0.00     0.102 C 
HETATM   13  C29 UNL     1       6.978   6.325 -16.081  1.00  0.00     0.074 C 
HETATM   14  C30 UNL     1       8.450   6.388 -16.258  1.00  0.00     0.130 C 
HETATM   15  C32 UNL     1       9.076   5.127 -16.774  1.00  0.00     0.044 C 
HETATM   16  C33 UNL     1       9.166   4.017 -15.780  1.00  0.00     0.015 C 
HETATM   17  C34 UNL     1       7.926   3.170 -15.898  1.00  0.00     0.009 C 
HETATM   18  C35 UNL     1       7.103   3.915 -16.850  1.00  0.00     0.058 C 
HETATM   19  C36 UNL     1       8.150   4.555 -17.791  1.00  0.00     0.135 C 
ENDROOT
BRANCH   3  20
HETATM   20  C5  UNL     1       4.386   1.039 -13.044  1.00  0.00     0.190 C 
BRANCH  20  21
HETATM   21  O1  UNL     1       4.388  -0.043 -13.928  1.00  0.00    -0.317 OA
BRANCH  21  22
HETATM   22  C6  UNL     1       3.271  -0.779 -14.188  1.00  0.00     0.295 C 
HETATM   23  O2  UNL     1       2.170  -0.175 -14.261  1.00  0.00    -0.259 OA
BRANCH  22  24
HETATM   24  C7  UNL     1       3.275  -2.225 -14.388  1.00  0.00     0.066 A 
HETATM   25  C8  UNL     1       2.820  -2.794 -15.561  1.00  0.00     0.020 A 
HETATM   26  C9  UNL     1       2.813  -4.169 -15.745  1.00  0.00     0.001 A 
HETATM   27  C10 UNL     1       3.267  -5.004 -14.739  1.00  0.00     0.002 A 
HETATM   28  C11 UNL     1       3.715  -4.432 -13.579  1.00  0.00     0.031 A 
HETATM   29  C12 UNL     1       3.732  -3.071 -13.373  1.00  0.00     0.061 A 
BRANCH  29  30
HETATM   30  N2  UNL     1       4.206  -2.500 -12.162  1.00  0.00    -0.251 N 
HETATM   31  C13 UNL     1       3.378  -1.912 -11.175  1.00  0.00     0.232 C 
HETATM   32  O3  UNL     1       2.116  -1.713 -11.211  1.00  0.00    -0.273 OA
HETATM   33  C14 UNL     1       4.177  -1.508  -9.984  1.00  0.00     0.117 C 
HETATM   34  C15 UNL     1       5.550  -2.062 -10.247  1.00  0.00     0.083 C 
HETATM   35  C16 UNL     1       6.670  -1.155  -9.862  1.00  0.00     0.020 C 
HETATM   36  C17 UNL     1       5.544  -2.403 -11.704  1.00  0.00     0.235 C 
HETATM   37  O4  UNL     1       6.593  -2.567 -12.375  1.00  0.00    -0.272 OA
ENDBRANCH  29  30
ENDBRANCH  22  24
ENDBRANCH  21  22
ENDBRANCH  20  21
ENDBRANCH   3  20
BRANCH   1  38
HETATM   38  C2  UNL     1       6.269   5.417 -11.990  1.00  0.00     0.268 C 
HETATM   39  C1  UNL     1       5.527   5.377 -10.664  1.00  0.00     0.037 C 
ENDBRANCH   1  38
BRANCH  10  40
HETATM   40  O7  UNL     1       4.693   2.957 -16.388  1.00  0.00    -0.387 OA
HETATM   41  C26 UNL     1       3.659   2.105 -16.626  1.00  0.00     0.202 C 
ENDBRANCH  10  40
BRANCH   6  42
HETATM   42  O5  UNL     1       9.187   2.786 -12.849  1.00  0.00    -0.390 OA
HETATM   43  C21 UNL     1      10.312   2.119 -12.461  1.00  0.00     0.202 C 
ENDBRANCH   6  42
BRANCH   9  44
HETATM   44  O6  UNL     1       4.936   5.481 -14.419  1.00  0.00    -0.382 OA
ATOM     45  H6  UNL     1       4.464   5.927 -15.113  1.00  0.00     0.210 HD
ENDBRANCH   9  44
BRANCH  12  46
HETATM   46  O8  UNL     1       5.161   5.164 -17.030  1.00  0.00    -0.386 OA
ATOM     47  H8  UNL     1       4.845   6.035 -16.823  1.00  0.00     0.210 HD
ENDBRANCH  12  46
BRANCH  19  48
HETATM   48  O10 UNL     1       7.581   5.458 -18.649  1.00  0.00    -0.390 OA
HETATM   49  C37 UNL     1       8.096   5.168 -19.934  1.00  0.00     0.202 C 
ENDBRANCH  19  48
BRANCH  14  50
HETATM   50  O9  UNL     1       8.725   7.381 -17.227  1.00  0.00    -0.390 OA
HETATM   51  C31 UNL     1      10.058   7.687 -17.305  1.00  0.00     0.202 C 
ENDBRANCH  14  50
TORSDOF 12
ENDMDL
