MODEL 5
REMARK VINA RESULT: -8.579077061      2.580      4.632
REMARK  12 active torsions:
REMARK  status: ('A' for Active; 'I' for Inactive)
REMARK    1  A    between atoms: C2_2  and  N1_3 
REMARK    2  A    between atoms: C4_5  and  C5_6 
REMARK    3  A    between atoms: C5_6  and  O1_7 
REMARK    4  A    between atoms: O1_7  and  C6_8 
REMARK    5  A    between atoms: C6_8  and  C7_10 
REMARK    6  A    between atoms: C12_15  and  N2_16 
REMARK    7  A    between atoms: C20_26  and  O5_27 
REMARK    8  A    between atoms: C24_31  and  O6_32 
REMARK    9  A    between atoms: C25_34  and  O7_35 
REMARK   10  A    between atoms: C28_38  and  O8_39 
REMARK   11  A    between atoms: C30_42  and  O9_43 
REMARK   12  A    between atoms: C36_49  and  O10_50 
ROOT
HETATM    1  N1  UNL     1       7.607   0.299  -9.873  1.00  0.00     0.097 N 
HETATM    2  C3  UNL     1       6.202  -0.025  -9.722  1.00  0.00     0.285 C 
HETATM    3  C4  UNL     1       5.738  -0.795 -10.923  1.00  0.00     0.015 C 
HETATM    4  C18 UNL     1       6.308  -2.209 -10.730  1.00  0.00     0.016 C 
HETATM    5  C19 UNL     1       7.112  -2.636 -11.905  1.00  0.00     0.034 C 
HETATM    6  C20 UNL     1       8.264  -1.633 -12.166  1.00  0.00     0.132 C 
HETATM    7  C22 UNL     1       7.746  -0.254 -12.284  1.00  0.00     0.031 C 
HETATM    8  C23 UNL     1       8.000   0.710 -11.184  1.00  0.00     0.274 C 
HETATM    9  C24 UNL     1       7.155   1.884 -11.687  1.00  0.00     0.147 C 
HETATM   10  C25 UNL     1       5.858   1.272 -12.163  1.00  0.00     0.166 C 
HETATM   11  C27 UNL     1       6.198  -0.198 -12.227  1.00  0.00     0.044 C 
HETATM   12  C28 UNL     1       7.829   2.600 -12.848  1.00  0.00     0.102 C 
HETATM   13  C29 UNL     1       9.071   3.282 -12.415  1.00  0.00     0.074 C 
HETATM   14  C30 UNL     1      10.365   2.742 -12.902  1.00  0.00     0.130 C 
HETATM   15  C32 UNL     1      10.248   1.683 -13.956  1.00  0.00     0.044 C 
HETATM   16  C33 UNL     1       9.791   0.350 -13.462  1.00  0.00     0.015 C 
HETATM   17  C34 UNL     1       8.290   0.292 -13.571  1.00  0.00     0.009 C 
HETATM   18  C35 UNL     1       7.932   1.648 -13.981  1.00  0.00     0.058 C 
HETATM   19  C36 UNL     1       9.131   2.076 -14.860  1.00  0.00     0.135 C 
ENDROOT
BRANCH   3  20
HETATM   20  C5  UNL     1       4.244  -0.990 -10.888  1.00  0.00     0.190 C 
BRANCH  20  21
HETATM   21  O1  UNL     1       3.690  -1.615 -12.009  1.00  0.00    -0.317 OA
BRANCH  21  22
HETATM   22  C6  UNL     1       2.598  -1.122 -12.658  1.00  0.00     0.295 C 
HETATM   23  O2  UNL     1       1.687  -0.597 -11.966  1.00  0.00    -0.259 OA
BRANCH  22  24
HETATM   24  C7  UNL     1       2.420  -1.166 -14.106  1.00  0.00     0.066 A 
HETATM   25  C8  UNL     1       3.217  -0.424 -14.955  1.00  0.00     0.020 A 
HETATM   26  C9  UNL     1       3.039  -0.459 -16.330  1.00  0.00     0.001 A 
HETATM   27  C10 UNL     1       2.043  -1.247 -16.880  1.00  0.00     0.002 A 
HETATM   28  C11 UNL     1       1.257  -1.979 -16.031  1.00  0.00     0.031 A 
HETATM   29  C12 UNL     1       1.414  -1.962 -14.663  1.00  0.00     0.061 A 
BRANCH  29  30
HETATM   30  N2  UNL     1       0.589  -2.733 -13.803  1.00  0.00    -0.251 N 
HETATM   31  C13 UNL     1       0.989  -3.940 -13.179  1.00  0.00     0.232 C 
HETATM   32  O3  UNL     1       2.084  -4.584 -13.320  1.00  0.00    -0.273 OA
HETATM   33  C14 UNL     1      -0.071  -4.438 -12.258  1.00  0.00     0.117 C 
HETATM   34  C15 UNL     1      -1.094  -3.337 -12.232  1.00  0.00     0.083 C 
HETATM   35  C16 UNL     1      -2.511  -3.804 -12.249  1.00  0.00     0.020 C 
HETATM   36  C17 UNL     1      -0.746  -2.474 -13.404  1.00  0.00     0.235 C 
HETATM   37  O4  UNL     1      -1.551  -1.659 -13.919  1.00  0.00    -0.272 OA
ENDBRANCH  29  30
ENDBRANCH  22  24
ENDBRANCH  21  22
ENDBRANCH  20  21
ENDBRANCH   3  20
BRANCH   1  38
HETATM   38  C2  UNL     1       8.119   1.168  -8.853  1.00  0.00     0.268 C 
HETATM   39  C1  UNL     1       9.614   1.415  -8.977  1.00  0.00     0.037 C 
ENDBRANCH   1  38
BRANCH  10  40
HETATM   40  O7  UNL     1       5.385   1.786 -13.327  1.00  0.00    -0.387 OA
HETATM   41  C26 UNL     1       4.130   2.313 -13.346  1.00  0.00     0.202 C 
ENDBRANCH  10  40
BRANCH   6  42
HETATM   42  O5  UNL     1       9.270  -1.859 -11.237  1.00  0.00    -0.390 OA
HETATM   43  C21 UNL     1       9.679  -3.157 -11.158  1.00  0.00     0.202 C 
ENDBRANCH   6  42
BRANCH   9  44
HETATM   44  O6  UNL     1       6.933   2.840 -10.719  1.00  0.00    -0.382 OA
ATOM     45  H6  UNL     1       7.705   3.359 -10.527  1.00  0.00     0.210 HD
ENDBRANCH   9  44
BRANCH  12  46
HETATM   46  O8  UNL     1       6.889   3.583 -13.252  1.00  0.00    -0.386 OA
ATOM     47  H8  UNL     1       6.916   4.233 -12.560  1.00  0.00     0.210 HD
ENDBRANCH  12  46
BRANCH  19  48
HETATM   48  O10 UNL     1       9.074   3.404 -15.189  1.00  0.00    -0.390 OA
HETATM   49  C37 UNL     1       8.331   3.487 -16.390  1.00  0.00     0.202 C 
ENDBRANCH  19  48
BRANCH  14  50
HETATM   50  O9  UNL     1      11.078   3.808 -13.500  1.00  0.00    -0.390 OA
HETATM   51  C31 UNL     1      12.392   3.498 -13.731  1.00  0.00     0.202 C 
ENDBRANCH  14  50
TORSDOF 12
ENDMDL
