MODEL 2
REMARK VINA RESULT: -8.733716825      1.236      1.586
REMARK  12 active torsions:
REMARK  status: ('A' for Active; 'I' for Inactive)
REMARK    1  A    between atoms: C2_2  and  N1_3 
REMARK    2  A    between atoms: C4_5  and  C5_6 
REMARK    3  A    between atoms: C5_6  and  O1_7 
REMARK    4  A    between atoms: O1_7  and  C6_8 
REMARK    5  A    between atoms: C6_8  and  C7_10 
REMARK    6  A    between atoms: C12_15  and  N2_16 
REMARK    7  A    between atoms: C20_26  and  O5_27 
REMARK    8  A    between atoms: C24_31  and  O6_32 
REMARK    9  A    between atoms: C25_34  and  O7_35 
REMARK   10  A    between atoms: C28_38  and  O8_39 
REMARK   11  A    between atoms: C30_42  and  O9_43 
REMARK   12  A    between atoms: C36_49  and  O10_50 
ROOT
HETATM    1  N1  UNL     1       5.988   4.340 -12.509  1.00  0.00     0.097 N 
HETATM    2  C3  UNL     1       4.698   3.681 -12.454  1.00  0.00     0.285 C 
HETATM    3  C4  UNL     1       4.761   2.401 -13.234  1.00  0.00     0.015 C 
HETATM    4  C18 UNL     1       5.538   1.428 -12.335  1.00  0.00     0.016 C 
HETATM    5  C19 UNL     1       6.709   0.850 -13.044  1.00  0.00     0.034 C 
HETATM    6  C20 UNL     1       7.650   1.975 -13.543  1.00  0.00     0.132 C 
HETATM    7  C22 UNL     1       6.907   2.964 -14.352  1.00  0.00     0.031 C 
HETATM    8  C23 UNL     1       6.636   4.307 -13.782  1.00  0.00     0.274 C 
HETATM    9  C24 UNL     1       5.737   4.866 -14.889  1.00  0.00     0.147 C 
HETATM   10  C25 UNL     1       4.783   3.747 -15.237  1.00  0.00     0.166 C 
HETATM   11  C27 UNL     1       5.430   2.553 -14.575  1.00  0.00     0.044 C 
HETATM   12  C28 UNL     1       6.542   5.243 -16.124  1.00  0.00     0.102 C 
HETATM   13  C29 UNL     1       7.441   6.389 -15.854  1.00  0.00     0.074 C 
HETATM   14  C30 UNL     1       8.903   6.134 -15.830  1.00  0.00     0.130 C 
HETATM   15  C32 UNL     1       9.311   4.769 -16.296  1.00  0.00     0.044 C 
HETATM   16  C33 UNL     1       9.025   3.664 -15.332  1.00  0.00     0.015 C 
HETATM   17  C34 UNL     1       7.662   3.104 -15.641  1.00  0.00     0.009 C 
HETATM   18  C35 UNL     1       7.155   4.009 -16.672  1.00  0.00     0.058 C 
HETATM   19  C36 UNL     1       8.433   4.410 -17.445  1.00  0.00     0.135 C 
ENDROOT
BRANCH   3  20
HETATM   20  C5  UNL     1       3.392   1.781 -13.354  1.00  0.00     0.190 C 
BRANCH  20  21
HETATM   21  O1  UNL     1       3.292   0.452 -12.933  1.00  0.00    -0.317 OA
BRANCH  21  22
HETATM   22  C6  UNL     1       3.107  -0.581 -13.803  1.00  0.00     0.295 C 
HETATM   23  O2  UNL     1       3.765  -0.574 -14.875  1.00  0.00    -0.259 OA
BRANCH  22  24
HETATM   24  C7  UNL     1       2.193  -1.694 -13.566  1.00  0.00     0.066 A 
HETATM   25  C8  UNL     1       0.916  -1.705 -14.091  1.00  0.00     0.020 A 
HETATM   26  C9  UNL     1       0.045  -2.758 -13.855  1.00  0.00     0.001 A 
HETATM   27  C10 UNL     1       0.448  -3.829 -13.077  1.00  0.00     0.002 A 
HETATM   28  C11 UNL     1       1.715  -3.810 -12.559  1.00  0.00     0.031 A 
HETATM   29  C12 UNL     1       2.598  -2.776 -12.779  1.00  0.00     0.061 A 
BRANCH  29  30
HETATM   30  N2  UNL     1       3.910  -2.781 -12.235  1.00  0.00    -0.251 N 
HETATM   31  C13 UNL     1       4.990  -3.536 -12.755  1.00  0.00     0.232 C 
HETATM   32  O3  UNL     1       4.982  -4.380 -13.715  1.00  0.00    -0.273 OA
HETATM   33  C14 UNL     1       6.251  -3.233 -12.021  1.00  0.00     0.117 C 
HETATM   34  C15 UNL     1       5.892  -2.088 -11.115  1.00  0.00     0.083 C 
HETATM   35  C16 UNL     1       6.479  -2.172  -9.745  1.00  0.00     0.020 C 
HETATM   36  C17 UNL     1       4.396  -2.067 -11.112  1.00  0.00     0.235 C 
HETATM   37  O4  UNL     1       3.719  -1.489 -10.225  1.00  0.00    -0.272 OA
ENDBRANCH  29  30
ENDBRANCH  22  24
ENDBRANCH  21  22
ENDBRANCH  20  21
ENDBRANCH   3  20
BRANCH   1  38
HETATM   38  C2  UNL     1       6.000   5.650 -11.924  1.00  0.00     0.268 C 
HETATM   39  C1  UNL     1       5.740   5.637 -10.426  1.00  0.00     0.037 C 
ENDBRANCH   1  38
BRANCH  10  40
HETATM   40  O7  UNL     1       4.556   3.591 -16.567  1.00  0.00    -0.387 OA
HETATM   41  C26 UNL     1       3.822   2.524 -16.984  1.00  0.00     0.202 C 
ENDBRANCH  10  40
BRANCH   6  42
HETATM   42  O5  UNL     1       8.381   2.455 -12.464  1.00  0.00    -0.390 OA
HETATM   43  C21 UNL     1       9.456   1.686 -12.129  1.00  0.00     0.202 C 
ENDBRANCH   6  42
BRANCH   9  44
HETATM   44  O6  UNL     1       5.058   6.003 -14.507  1.00  0.00    -0.382 OA
ATOM     45  H6  UNL     1       5.468   6.452 -13.778  1.00  0.00     0.210 HD
ENDBRANCH   9  44
BRANCH  12  46
HETATM   46  O8  UNL     1       5.567   5.646 -17.072  1.00  0.00    -0.386 OA
ATOM     47  H8  UNL     1       6.066   6.074 -17.757  1.00  0.00     0.210 HD
ENDBRANCH  12  46
BRANCH  19  48
HETATM   48  O10 UNL     1       8.193   5.415 -18.343  1.00  0.00    -0.390 OA
HETATM   49  C37 UNL     1       8.156   4.809 -19.620  1.00  0.00     0.202 C 
ENDBRANCH  19  48
BRANCH  14  50
HETATM   50  O9  UNL     1       9.513   7.046 -16.723  1.00  0.00    -0.390 OA
HETATM   51  C31 UNL     1      10.862   7.167 -16.512  1.00  0.00     0.202 C 
ENDBRANCH  14  50
TORSDOF 12
ENDMDL
