MODEL 6
REMARK VINA RESULT: -8.561686183      2.550      4.575
REMARK  12 active torsions:
REMARK  status: ('A' for Active; 'I' for Inactive)
REMARK    1  A    between atoms: C2_2  and  N1_3 
REMARK    2  A    between atoms: C4_5  and  C5_6 
REMARK    3  A    between atoms: C5_6  and  O1_7 
REMARK    4  A    between atoms: O1_7  and  C6_8 
REMARK    5  A    between atoms: C6_8  and  C7_10 
REMARK    6  A    between atoms: C12_15  and  N2_16 
REMARK    7  A    between atoms: C20_26  and  O5_27 
REMARK    8  A    between atoms: C24_31  and  O6_32 
REMARK    9  A    between atoms: C25_34  and  O7_35 
REMARK   10  A    between atoms: C28_38  and  O8_39 
REMARK   11  A    between atoms: C30_42  and  O9_43 
REMARK   12  A    between atoms: C36_49  and  O10_50 
ROOT
HETATM    1  N1  UNL     1       7.936   0.411  -9.757  1.00  0.00     0.097 N 
HETATM    2  C3  UNL     1       6.547   0.069  -9.530  1.00  0.00     0.285 C 
HETATM    3  C4  UNL     1       6.043  -0.752 -10.680  1.00  0.00     0.015 C 
HETATM    4  C18 UNL     1       6.647  -2.148 -10.463  1.00  0.00     0.016 C 
HETATM    5  C19 UNL     1       7.406  -2.604 -11.658  1.00  0.00     0.034 C 
HETATM    6  C20 UNL     1       8.525  -1.591 -12.008  1.00  0.00     0.132 C 
HETATM    7  C22 UNL     1       7.976  -0.226 -12.150  1.00  0.00     0.031 C 
HETATM    8  C23 UNL     1       8.262   0.781 -11.098  1.00  0.00     0.274 C 
HETATM    9  C24 UNL     1       7.373   1.921 -11.603  1.00  0.00     0.147 C 
HETATM   10  C25 UNL     1       6.067   1.270 -11.996  1.00  0.00     0.166 C 
HETATM   11  C27 UNL     1       6.432  -0.195 -12.024  1.00  0.00     0.044 C 
HETATM   12  C28 UNL     1       7.980   2.606 -12.819  1.00  0.00     0.102 C 
HETATM   13  C29 UNL     1       9.227   3.324 -12.468  1.00  0.00     0.074 C 
HETATM   14  C30 UNL     1      10.507   2.789 -12.994  1.00  0.00     0.130 C 
HETATM   15  C32 UNL     1      10.363   1.692 -14.004  1.00  0.00     0.044 C 
HETATM   16  C33 UNL     1       9.954   0.369 -13.443  1.00  0.00     0.015 C 
HETATM   17  C34 UNL     1       8.451   0.281 -13.480  1.00  0.00     0.009 C 
HETATM   18  C35 UNL     1       8.049   1.616 -13.921  1.00  0.00     0.058 C 
HETATM   19  C36 UNL     1       9.198   2.032 -14.869  1.00  0.00     0.135 C 
ENDROOT
BRANCH   3  20
HETATM   20  C5  UNL     1       4.556  -0.972 -10.569  1.00  0.00     0.190 C 
BRANCH  20  21
HETATM   21  O1  UNL     1       3.884  -1.181 -11.776  1.00  0.00    -0.317 OA
BRANCH  21  22
HETATM   22  C6  UNL     1       3.053  -2.241 -11.979  1.00  0.00     0.295 C 
HETATM   23  O2  UNL     1       1.983  -2.287 -11.318  1.00  0.00    -0.259 OA
BRANCH  22  24
HETATM   24  C7  UNL     1       3.327  -3.327 -12.916  1.00  0.00     0.066 A 
HETATM   25  C8  UNL     1       4.571  -3.921 -12.989  1.00  0.00     0.020 A 
HETATM   26  C9  UNL     1       4.834  -4.944 -13.888  1.00  0.00     0.001 A 
HETATM   27  C10 UNL     1       3.838  -5.391 -14.738  1.00  0.00     0.002 A 
HETATM   28  C11 UNL     1       2.607  -4.796 -14.660  1.00  0.00     0.031 A 
HETATM   29  C12 UNL     1       2.322  -3.779 -13.776  1.00  0.00     0.061 A 
BRANCH  29  30
HETATM   30  N2  UNL     1       1.036  -3.181 -13.710  1.00  0.00    -0.251 N 
HETATM   31  C13 UNL     1       0.697  -1.943 -14.308  1.00  0.00     0.232 C 
HETATM   32  O3  UNL     1       1.458  -1.122 -14.925  1.00  0.00    -0.273 OA
HETATM   33  C14 UNL     1      -0.756  -1.654 -14.143  1.00  0.00     0.117 C 
HETATM   34  C15 UNL     1      -1.322  -2.911 -13.543  1.00  0.00     0.083 C 
HETATM   35  C16 UNL     1      -2.340  -2.684 -12.475  1.00  0.00     0.020 C 
HETATM   36  C17 UNL     1      -0.126  -3.670 -13.062  1.00  0.00     0.235 C 
HETATM   37  O4  UNL     1      -0.193  -4.591 -12.212  1.00  0.00    -0.272 OA
ENDBRANCH  29  30
ENDBRANCH  22  24
ENDBRANCH  21  22
ENDBRANCH  20  21
ENDBRANCH   3  20
BRANCH   1  38
HETATM   38  C2  UNL     1       8.478   1.326  -8.793  1.00  0.00     0.268 C 
HETATM   39  C1  UNL     1       9.982   1.509  -8.925  1.00  0.00     0.037 C 
ENDBRANCH   1  38
BRANCH  10  40
HETATM   40  O7  UNL     1       5.532   1.733 -13.155  1.00  0.00    -0.387 OA
HETATM   41  C26 UNL     1       4.178   1.837 -13.254  1.00  0.00     0.202 C 
ENDBRANCH  10  40
BRANCH   6  42
HETATM   42  O5  UNL     1       9.577  -1.766 -11.118  1.00  0.00    -0.390 OA
HETATM   43  C21 UNL     1       9.999  -3.056 -10.996  1.00  0.00     0.202 C 
ENDBRANCH   6  42
BRANCH   9  44
HETATM   44  O6  UNL     1       7.177   2.907 -10.660  1.00  0.00    -0.382 OA
ATOM     45  H6  UNL     1       6.263   3.022 -10.429  1.00  0.00     0.210 HD
ENDBRANCH   9  44
BRANCH  12  46
HETATM   46  O8  UNL     1       7.004   3.557 -13.213  1.00  0.00    -0.386 OA
ATOM     47  H8  UNL     1       7.437   4.078 -13.878  1.00  0.00     0.210 HD
ENDBRANCH  12  46
BRANCH  19  48
HETATM   48  O10 UNL     1       9.101   3.346 -15.242  1.00  0.00    -0.390 OA
HETATM   49  C37 UNL     1       8.312   3.371 -16.415  1.00  0.00     0.202 C 
ENDBRANCH  19  48
BRANCH  14  50
HETATM   50  O9  UNL     1      11.171   3.845 -13.663  1.00  0.00    -0.390 OA
HETATM   51  C31 UNL     1      12.486   3.560 -13.921  1.00  0.00     0.202 C 
ENDBRANCH  14  50
TORSDOF 12
ENDMDL
