MODEL 4
REMARK VINA RESULT: -8.682497279      4.085      8.669
REMARK  12 active torsions:
REMARK  status: ('A' for Active; 'I' for Inactive)
REMARK    1  A    between atoms: C2_2  and  N1_3 
REMARK    2  A    between atoms: C4_5  and  C5_6 
REMARK    3  A    between atoms: C5_6  and  O1_7 
REMARK    4  A    between atoms: O1_7  and  C6_8 
REMARK    5  A    between atoms: C6_8  and  C7_10 
REMARK    6  A    between atoms: C12_15  and  N2_16 
REMARK    7  A    between atoms: C20_26  and  O5_27 
REMARK    8  A    between atoms: C24_31  and  O6_32 
REMARK    9  A    between atoms: C25_34  and  O7_35 
REMARK   10  A    between atoms: C28_38  and  O8_39 
REMARK   11  A    between atoms: C30_42  and  O9_43 
REMARK   12  A    between atoms: C36_49  and  O10_50 
ROOT
HETATM    1  N1  UNL     1       2.768  -3.962 -13.950  1.00  0.00     0.097 N 
HETATM    2  C3  UNL     1       3.645  -3.002 -13.313  1.00  0.00     0.285 C 
HETATM    3  C4  UNL     1       2.852  -1.793 -12.913  1.00  0.00     0.015 C 
HETATM    4  C18 UNL     1       2.068  -2.230 -11.666  1.00  0.00     0.016 C 
HETATM    5  C19 UNL     1       0.609  -2.003 -11.833  1.00  0.00     0.034 C 
HETATM    6  C20 UNL     1       0.082  -2.758 -13.079  1.00  0.00     0.132 C 
HETATM    7  C22 UNL     1       0.870  -2.406 -14.280  1.00  0.00     0.031 C 
HETATM    8  C23 UNL     1       1.806  -3.407 -14.849  1.00  0.00     0.274 C 
HETATM    9  C24 UNL     1       2.469  -2.540 -15.923  1.00  0.00     0.147 C 
HETATM   10  C25 UNL     1       2.751  -1.215 -15.253  1.00  0.00     0.166 C 
HETATM   11  C27 UNL     1       1.923  -1.306 -13.994  1.00  0.00     0.044 C 
HETATM   12  C28 UNL     1       1.542  -2.316 -17.110  1.00  0.00     0.102 C 
HETATM   13  C29 UNL     1       1.294  -3.577 -17.847  1.00  0.00     0.074 C 
HETATM   14  C30 UNL     1      -0.068  -4.163 -17.780  1.00  0.00     0.130 C 
HETATM   15  C32 UNL     1      -1.099  -3.286 -17.137  1.00  0.00     0.044 C 
HETATM   16  C33 UNL     1      -0.993  -3.174 -15.652  1.00  0.00     0.015 C 
HETATM   17  C34 UNL     1      -0.123  -1.989 -15.325  1.00  0.00     0.009 C 
HETATM   18  C35 UNL     1       0.359  -1.558 -16.637  1.00  0.00     0.058 C 
HETATM   19  C36 UNL     1      -0.828  -1.887 -17.571  1.00  0.00     0.135 C 
ENDROOT
BRANCH   3  20
HETATM   20  C5  UNL     1       3.760  -0.698 -12.414  1.00  0.00     0.190 C 
BRANCH  20  21
HETATM   21  O1  UNL     1       4.997  -0.599 -13.055  1.00  0.00    -0.317 OA
BRANCH  21  22
HETATM   22  C6  UNL     1       5.832   0.462 -12.878  1.00  0.00     0.295 C 
HETATM   23  O2  UNL     1       6.160   1.131 -13.892  1.00  0.00    -0.259 OA
BRANCH  22  24
HETATM   24  C7  UNL     1       6.370   0.870 -11.583  1.00  0.00     0.066 A 
HETATM   25  C8  UNL     1       5.914   2.001 -10.935  1.00  0.00     0.020 A 
HETATM   26  C9  UNL     1       6.434   2.394  -9.711  1.00  0.00     0.001 A 
HETATM   27  C10 UNL     1       7.434   1.648  -9.112  1.00  0.00     0.002 A 
HETATM   28  C11 UNL     1       7.882   0.529  -9.762  1.00  0.00     0.031 A 
HETATM   29  C12 UNL     1       7.381   0.119 -10.977  1.00  0.00     0.061 A 
BRANCH  29  30
HETATM   30  N2  UNL     1       7.857  -1.049 -11.630  1.00  0.00    -0.251 N 
HETATM   31  C13 UNL     1       8.858  -1.055 -12.632  1.00  0.00     0.232 C 
HETATM   32  O3  UNL     1       9.444  -0.059 -13.178  1.00  0.00    -0.273 OA
HETATM   33  C14 UNL     1       9.203  -2.449 -13.030  1.00  0.00     0.117 C 
HETATM   34  C15 UNL     1       8.451  -3.314 -12.056  1.00  0.00     0.083 C 
HETATM   35  C16 UNL     1       7.829  -4.530 -12.657  1.00  0.00     0.020 C 
HETATM   36  C17 UNL     1       7.454  -2.392 -11.428  1.00  0.00     0.235 C 
HETATM   37  O4  UNL     1       6.429  -2.798 -10.825  1.00  0.00    -0.272 OA
ENDBRANCH  29  30
ENDBRANCH  22  24
ENDBRANCH  21  22
ENDBRANCH  20  21
ENDBRANCH   3  20
BRANCH   1  38
HETATM   38  C2  UNL     1       3.449  -5.094 -14.512  1.00  0.00     0.268 C 
HETATM   39  C1  UNL     1       4.858  -5.271 -13.968  1.00  0.00     0.037 C 
ENDBRANCH   1  38
BRANCH  10  40
HETATM   40  O7  UNL     1       2.483  -0.127 -16.019  1.00  0.00    -0.387 OA
HETATM   41  C26 UNL     1       3.056   1.062 -15.689  1.00  0.00     0.202 C 
ENDBRANCH  10  40
BRANCH   6  42
HETATM   42  O5  UNL     1      -0.036  -4.105 -12.767  1.00  0.00    -0.390 OA
HETATM   43  C21 UNL     1      -1.149  -4.417 -12.044  1.00  0.00     0.202 C 
ENDBRANCH   6  42
BRANCH   9  44
HETATM   44  O6  UNL     1       3.621  -3.100 -16.431  1.00  0.00    -0.382 OA
ATOM     45  H6  UNL     1       3.519  -3.412 -17.323  1.00  0.00     0.210 HD
ENDBRANCH   9  44
BRANCH  12  46
HETATM   46  O8  UNL     1       2.259  -1.430 -17.955  1.00  0.00    -0.386 OA
ATOM     47  H8  UNL     1       1.719  -1.358 -18.733  1.00  0.00     0.210 HD
ENDBRANCH  12  46
BRANCH  19  48
HETATM   48  O10 UNL     1      -0.498  -1.730 -18.891  1.00  0.00    -0.390 OA
HETATM   49  C37 UNL     1      -1.650  -1.222 -19.534  1.00  0.00     0.202 C 
ENDBRANCH  19  48
BRANCH  14  50
HETATM   50  O9  UNL     1      -0.511  -4.373 -19.107  1.00  0.00    -0.390 OA
HETATM   51  C31 UNL     1      -1.609  -5.190 -19.173  1.00  0.00     0.202 C 
ENDBRANCH  14  50
TORSDOF 12
ENDMDL
