MODEL 6
REMARK VINA RESULT: -9.543325821      2.914      4.763
REMARK  7 active torsions:
REMARK  status: ('A' for Active; 'I' for Inactive)
REMARK    1  A    between atoms: C2_3  and  C3_4 
REMARK    2  A    between atoms: C3_4  and  C4_5 
REMARK    3  A    between atoms: C4_5  and  C5_7 
REMARK    4  A    between atoms: C14_16  and  C15_17 
REMARK    5  A    between atoms: C15_17  and  C16_18 
REMARK    6  A    between atoms: C16_18  and  O2_19 
REMARK    7  A    between atoms: C16_18  and  C17_21 
ROOT
HETATM    1  C1  UNL     1     -10.505  22.666   2.259  1.00  0.00     0.310 C 
HETATM    2  N1  UNL     1     -10.047  23.986   2.649  1.00  0.00     0.094 N 
HETATM    3  C2  UNL     1      -9.983  24.056   4.093  1.00  0.00     0.230 C 
HETATM    4  C11 UNL     1      -8.558  24.247   4.562  1.00  0.00     0.036 C 
HETATM    5  C12 UNL     1      -8.087  25.564   4.014  1.00  0.00     0.004 C 
HETATM    6  C13 UNL     1      -8.040  25.436   2.532  1.00  0.00     0.036 C 
HETATM    7  C14 UNL     1      -8.854  24.323   1.961  1.00  0.00     0.226 C 
ENDROOT
BRANCH   7   8
HETATM    8  C15 UNL     1      -9.158  24.671   0.516  1.00  0.00     0.072 C 
BRANCH   8   9
HETATM    9  C16 UNL     1      -7.894  24.536  -0.333  1.00  0.00     0.153 C 
BRANCH   9  10
HETATM   10  O2  UNL     1      -7.077  23.571   0.267  1.00  0.00    -0.391 OA
ATOM     11  H2  UNL     1      -6.991  22.845  -0.339  1.00  0.00     0.210 HD
ENDBRANCH   9  10
BRANCH   9  12
HETATM   12  C17 UNL     1      -8.272  24.148  -1.697  1.00  0.00    -0.030 A 
HETATM   13  C18 UNL     1      -9.032  24.991  -2.463  1.00  0.00     0.010 A 
HETATM   14  C19 UNL     1      -9.414  24.664  -3.756  1.00  0.00     0.001 A 
HETATM   15  C20 UNL     1      -9.015  23.457  -4.285  1.00  0.00     0.000 A 
HETATM   16  C21 UNL     1      -8.253  22.619  -3.508  1.00  0.00     0.001 A 
HETATM   17  C22 UNL     1      -7.874  22.946  -2.219  1.00  0.00     0.010 A 
ENDBRANCH   9  12
ENDBRANCH   8   9
ENDBRANCH   7   8
BRANCH   3  18
HETATM   18  C3  UNL     1     -10.898  25.128   4.614  1.00  0.00     0.119 C 
BRANCH  18  19
HETATM   19  C4  UNL     1     -12.260  24.712   4.946  1.00  0.00     0.161 C 
HETATM   20  O1  UNL     1     -13.172  24.756   4.084  1.00  0.00    -0.292 OA
BRANCH  19  21
HETATM   21  C5  UNL     1     -12.617  24.228   6.286  1.00  0.00     0.010 A 
HETATM   22  C6  UNL     1     -11.708  23.678   7.163  1.00  0.00     0.015 A 
HETATM   23  C7  UNL     1     -12.102  23.237   8.423  1.00  0.00     0.001 A 
HETATM   24  C8  UNL     1     -13.416  23.340   8.828  1.00  0.00     0.000 A 
HETATM   25  C9  UNL     1     -14.320  23.891   7.947  1.00  0.00     0.001 A 
HETATM   26  C10 UNL     1     -13.915  24.322   6.705  1.00  0.00     0.015 A 
ENDBRANCH  19  21
ENDBRANCH  18  19
ENDBRANCH   3  18
TORSDOF 7
ENDMDL
