MODEL 7
REMARK VINA RESULT: -9.186262354      2.879      5.690
REMARK  7 active torsions:
REMARK  status: ('A' for Active; 'I' for Inactive)
REMARK    1  A    between atoms: C2_3  and  C3_4 
REMARK    2  A    between atoms: C3_4  and  C4_5 
REMARK    3  A    between atoms: C4_5  and  C5_7 
REMARK    4  A    between atoms: C14_16  and  C15_17 
REMARK    5  A    between atoms: C15_17  and  C16_18 
REMARK    6  A    between atoms: C16_18  and  O2_19 
REMARK    7  A    between atoms: C16_18  and  C17_21 
ROOT
HETATM    1  C1  UNL     1     -10.472  22.566   2.419  1.00  0.00     0.310 C 
HETATM    2  N1  UNL     1     -10.066  23.909   2.784  1.00  0.00     0.094 N 
HETATM    3  C2  UNL     1     -10.006  24.008   4.227  1.00  0.00     0.230 C 
HETATM    4  C11 UNL     1      -8.589  24.263   4.691  1.00  0.00     0.036 C 
HETATM    5  C12 UNL     1      -8.169  25.586   4.120  1.00  0.00     0.004 C 
HETATM    6  C13 UNL     1      -8.116  25.433   2.640  1.00  0.00     0.036 C 
HETATM    7  C14 UNL     1      -8.886  24.279   2.090  1.00  0.00     0.226 C 
ENDROOT
BRANCH   7   8
HETATM    8  C15 UNL     1      -9.202  24.589   0.639  1.00  0.00     0.072 C 
BRANCH   8   9
HETATM    9  C16 UNL     1      -7.931  24.505  -0.204  1.00  0.00     0.153 C 
BRANCH   9  10
HETATM   10  O2  UNL     1      -7.087  23.557   0.386  1.00  0.00    -0.391 OA
ATOM     11  H2  UNL     1      -6.444  23.297  -0.263  1.00  0.00     0.210 HD
ENDBRANCH   9  10
BRANCH   9  12
HETATM   12  C17 UNL     1      -8.289  24.125  -1.577  1.00  0.00    -0.030 A 
HETATM   13  C18 UNL     1      -9.033  24.976  -2.350  1.00  0.00     0.010 A 
HETATM   14  C19 UNL     1      -9.396  24.659  -3.650  1.00  0.00     0.001 A 
HETATM   15  C20 UNL     1      -8.995  23.452  -4.179  1.00  0.00     0.000 A 
HETATM   16  C21 UNL     1      -8.249  22.606  -3.395  1.00  0.00     0.001 A 
HETATM   17  C22 UNL     1      -7.889  22.924  -2.098  1.00  0.00     0.010 A 
ENDBRANCH   9  12
ENDBRANCH   8   9
ENDBRANCH   7   8
BRANCH   3  18
HETATM   18  C3  UNL     1     -10.961  25.053   4.728  1.00  0.00     0.119 C 
BRANCH  18  19
HETATM   19  C4  UNL     1     -11.996  24.593   5.653  1.00  0.00     0.161 C 
HETATM   20  O1  UNL     1     -11.692  24.155   6.789  1.00  0.00    -0.292 OA
BRANCH  19  21
HETATM   21  C5  UNL     1     -13.422  24.625   5.298  1.00  0.00     0.010 A 
HETATM   22  C6  UNL     1     -14.408  24.038   6.060  1.00  0.00     0.015 A 
HETATM   23  C7  UNL     1     -15.745  24.101   5.678  1.00  0.00     0.001 A 
HETATM   24  C8  UNL     1     -16.119  24.754   4.522  1.00  0.00     0.000 A 
HETATM   25  C9  UNL     1     -15.128  25.339   3.765  1.00  0.00     0.001 A 
HETATM   26  C10 UNL     1     -13.811  25.269   4.157  1.00  0.00     0.015 A 
ENDBRANCH  19  21
ENDBRANCH  18  19
ENDBRANCH   3  18
TORSDOF 7
ENDMDL
