MODEL 1
REMARK VINA RESULT: -11.572844261      0.000      0.000
REMARK  7 active torsions:
REMARK  status: ('A' for Active; 'I' for Inactive)
REMARK    1  A    between atoms: C2_3  and  C3_4 
REMARK    2  A    between atoms: C3_4  and  C4_5 
REMARK    3  A    between atoms: C4_5  and  C5_7 
REMARK    4  A    between atoms: C14_16  and  C15_17 
REMARK    5  A    between atoms: C15_17  and  C16_18 
REMARK    6  A    between atoms: C16_18  and  O2_19 
REMARK    7  A    between atoms: C16_18  and  C17_21 
ROOT
HETATM    1  C1  UNL     1      -8.233  25.984   2.769  1.00  0.00     0.310 C 
HETATM    2  N1  UNL     1      -8.386  24.571   3.057  1.00  0.00     0.094 N 
HETATM    3  C2  UNL     1      -8.816  24.414   4.431  1.00  0.00     0.230 C 
HETATM    4  C11 UNL     1     -10.200  23.807   4.496  1.00  0.00     0.036 C 
HETATM    5  C12 UNL     1     -10.112  22.440   3.880  1.00  0.00     0.004 C 
HETATM    6  C13 UNL     1      -9.789  22.624   2.439  1.00  0.00     0.036 C 
HETATM    7  C14 UNL     1      -9.202  23.948   2.080  1.00  0.00     0.226 C 
ENDROOT
BRANCH   7   8
HETATM    8  C15 UNL     1      -8.431  23.771   0.784  1.00  0.00     0.072 C 
BRANCH   8   9
HETATM    9  C16 UNL     1      -9.010  24.681  -0.298  1.00  0.00     0.153 C 
BRANCH   9  10
HETATM   10  O2  UNL     1      -8.333  25.904  -0.237  1.00  0.00    -0.391 OA
ATOM     11  H2  UNL     1      -8.596  26.419  -0.990  1.00  0.00     0.210 HD
ENDBRANCH   9  10
BRANCH   9  12
HETATM   12  C17 UNL     1      -8.842  24.037  -1.607  1.00  0.00    -0.030 A 
HETATM   13  C18 UNL     1      -9.324  24.645  -2.736  1.00  0.00     0.010 A 
HETATM   14  C19 UNL     1      -9.190  24.073  -3.992  1.00  0.00     0.001 A 
HETATM   15  C20 UNL     1      -8.551  22.858  -4.107  1.00  0.00     0.000 A 
HETATM   16  C21 UNL     1      -8.072  22.257  -2.968  1.00  0.00     0.001 A 
HETATM   17  C22 UNL     1      -8.207  22.829  -1.717  1.00  0.00     0.010 A 
ENDBRANCH   9  12
ENDBRANCH   8   9
ENDBRANCH   7   8
BRANCH   3  18
HETATM   18  C3  UNL     1      -7.813  23.617   5.214  1.00  0.00     0.119 C 
BRANCH  18  19
HETATM   19  C4  UNL     1      -6.668  24.358   5.742  1.00  0.00     0.161 C 
HETATM   20  O1  UNL     1      -6.419  25.523   5.344  1.00  0.00    -0.292 OA
BRANCH  19  21
HETATM   21  C5  UNL     1      -5.770  23.781   6.751  1.00  0.00     0.010 A 
HETATM   22  C6  UNL     1      -5.310  24.477   7.847  1.00  0.00     0.015 A 
HETATM   23  C7  UNL     1      -4.462  23.880   8.775  1.00  0.00     0.001 A 
HETATM   24  C8  UNL     1      -4.058  22.570   8.620  1.00  0.00     0.000 A 
HETATM   25  C9  UNL     1      -4.521  21.879   7.522  1.00  0.00     0.001 A 
HETATM   26  C10 UNL     1      -5.359  22.484   6.615  1.00  0.00     0.015 A 
ENDBRANCH  19  21
ENDBRANCH  18  19
ENDBRANCH   3  18
TORSDOF 7
ENDMDL
