MODEL 2
REMARK VINA RESULT: -11.286317946      1.056      1.485
REMARK  7 active torsions:
REMARK  status: ('A' for Active; 'I' for Inactive)
REMARK    1  A    between atoms: C2_3  and  C3_4 
REMARK    2  A    between atoms: C3_4  and  C4_5 
REMARK    3  A    between atoms: C4_5  and  C5_7 
REMARK    4  A    between atoms: C14_16  and  C15_17 
REMARK    5  A    between atoms: C15_17  and  C16_18 
REMARK    6  A    between atoms: C16_18  and  O2_19 
REMARK    7  A    between atoms: C16_18  and  C17_21 
ROOT
HETATM    1  C1  UNL     1      -8.846  26.117   3.136  1.00  0.00     0.310 C 
HETATM    2  N1  UNL     1      -8.783  24.681   3.326  1.00  0.00     0.094 N 
HETATM    3  C2  UNL     1      -8.581  24.399   4.731  1.00  0.00     0.230 C 
HETATM    4  C11 UNL     1      -9.770  23.667   5.311  1.00  0.00     0.036 C 
HETATM    5  C12 UNL     1      -9.875  22.355   4.588  1.00  0.00     0.004 C 
HETATM    6  C13 UNL     1     -10.205  22.657   3.168  1.00  0.00     0.036 C 
HETATM    7  C14 UNL     1      -9.900  24.048   2.724  1.00  0.00     0.226 C 
ENDROOT
BRANCH   7   8
HETATM    8  C15 UNL     1      -9.744  24.024   1.215  1.00  0.00     0.072 C 
BRANCH   8   9
HETATM    9  C16 UNL     1      -8.290  24.298   0.834  1.00  0.00     0.153 C 
BRANCH   9  10
HETATM   10  O2  UNL     1      -7.524  23.202   1.249  1.00  0.00    -0.391 OA
ATOM     11  H2  UNL     1      -6.934  23.501   1.929  1.00  0.00     0.210 HD
ENDBRANCH   9  10
BRANCH   9  12
HETATM   12  C17 UNL     1      -8.203  24.496  -0.618  1.00  0.00    -0.030 A 
HETATM   13  C18 UNL     1      -8.232  23.416  -1.459  1.00  0.00     0.010 A 
HETATM   14  C19 UNL     1      -8.150  23.555  -2.837  1.00  0.00     0.001 A 
HETATM   15  C20 UNL     1      -8.038  24.819  -3.374  1.00  0.00     0.000 A 
HETATM   16  C21 UNL     1      -8.010  25.895  -2.521  1.00  0.00     0.001 A 
HETATM   17  C22 UNL     1      -8.091  25.754  -1.148  1.00  0.00     0.010 A 
ENDBRANCH   9  12
ENDBRANCH   8   9
ENDBRANCH   7   8
BRANCH   3  18
HETATM   18  C3  UNL     1      -7.297  23.650   4.944  1.00  0.00     0.119 C 
BRANCH  18  19
HETATM   19  C4  UNL     1      -6.239  24.366   5.655  1.00  0.00     0.161 C 
HETATM   20  O1  UNL     1      -6.002  25.574   5.405  1.00  0.00    -0.292 OA
BRANCH  19  21
HETATM   21  C5  UNL     1      -5.418  23.714   6.684  1.00  0.00     0.010 A 
HETATM   22  C6  UNL     1      -4.796  24.396   7.706  1.00  0.00     0.015 A 
HETATM   23  C7  UNL     1      -4.030  23.727   8.656  1.00  0.00     0.001 A 
HETATM   24  C8  UNL     1      -3.874  22.357   8.599  1.00  0.00     0.000 A 
HETATM   25  C9  UNL     1      -4.498  21.681   7.574  1.00  0.00     0.001 A 
HETATM   26  C10 UNL     1      -5.252  22.358   6.644  1.00  0.00     0.015 A 
ENDBRANCH  19  21
ENDBRANCH  18  19
ENDBRANCH   3  18
TORSDOF 7
ENDMDL
