MODEL 3
REMARK VINA RESULT: -10.751014985      1.048      1.257
REMARK  7 active torsions:
REMARK  status: ('A' for Active; 'I' for Inactive)
REMARK    1  A    between atoms: C2_3  and  C3_4 
REMARK    2  A    between atoms: C3_4  and  C4_5 
REMARK    3  A    between atoms: C4_5  and  C5_7 
REMARK    4  A    between atoms: C14_16  and  C15_17 
REMARK    5  A    between atoms: C15_17  and  C16_18 
REMARK    6  A    between atoms: C16_18  and  O2_19 
REMARK    7  A    between atoms: C16_18  and  C17_21 
ROOT
HETATM    1  C1  UNL     1      -8.403  26.225   3.026  1.00  0.00     0.310 C 
HETATM    2  N1  UNL     1      -8.738  24.814   3.030  1.00  0.00     0.094 N 
HETATM    3  C2  UNL     1      -9.656  24.550   4.118  1.00  0.00     0.230 C 
HETATM    4  C11 UNL     1     -10.999  24.096   3.592  1.00  0.00     0.036 C 
HETATM    5  C12 UNL     1     -10.772  22.807   2.856  1.00  0.00     0.004 C 
HETATM    6  C13 UNL     1      -9.927  23.116   1.671  1.00  0.00     0.036 C 
HETATM    7  C14 UNL     1      -9.169  24.400   1.745  1.00  0.00     0.226 C 
ENDROOT
BRANCH   7   8
HETATM    8  C15 UNL     1      -7.985  24.288   0.802  1.00  0.00     0.072 C 
BRANCH   8   9
HETATM    9  C16 UNL     1      -8.217  25.152  -0.436  1.00  0.00     0.153 C 
BRANCH   9  10
HETATM   10  O2  UNL     1      -7.134  26.030  -0.556  1.00  0.00    -0.391 OA
ATOM     11  H2  UNL     1      -7.242  26.714   0.094  1.00  0.00     0.210 HD
ENDBRANCH   9  10
BRANCH   9  12
HETATM   12  C17 UNL     1      -8.337  24.283  -1.613  1.00  0.00    -0.030 A 
HETATM   13  C18 UNL     1      -8.877  24.771  -2.773  1.00  0.00     0.010 A 
HETATM   14  C19 UNL     1      -9.012  23.986  -3.908  1.00  0.00     0.001 A 
HETATM   15  C20 UNL     1      -8.589  22.676  -3.867  1.00  0.00     0.000 A 
HETATM   16  C21 UNL     1      -8.049  22.196  -2.699  1.00  0.00     0.001 A 
HETATM   17  C22 UNL     1      -7.916  22.980  -1.568  1.00  0.00     0.010 A 
ENDBRANCH   9  12
ENDBRANCH   8   9
ENDBRANCH   7   8
BRANCH   3  18
HETATM   18  C3  UNL     1      -9.065  23.564   5.084  1.00  0.00     0.119 C 
BRANCH  18  19
HETATM   19  C4  UNL     1      -7.651  23.241   4.897  1.00  0.00     0.161 C 
HETATM   20  O1  UNL     1      -7.259  22.655   3.859  1.00  0.00    -0.292 OA
BRANCH  19  21
HETATM   21  C5  UNL     1      -6.638  23.586   5.904  1.00  0.00     0.010 A 
HETATM   22  C6  UNL     1      -6.421  24.870   6.355  1.00  0.00     0.015 A 
HETATM   23  C7  UNL     1      -5.448  25.140   7.313  1.00  0.00     0.001 A 
HETATM   24  C8  UNL     1      -4.673  24.127   7.838  1.00  0.00     0.000 A 
HETATM   25  C9  UNL     1      -4.896  22.846   7.383  1.00  0.00     0.001 A 
HETATM   26  C10 UNL     1      -5.862  22.596   6.436  1.00  0.00     0.015 A 
ENDBRANCH  19  21
ENDBRANCH  18  19
ENDBRANCH   3  18
TORSDOF 7
ENDMDL
