MODEL 12
REMARK VINA RESULT: -8.954896827      1.732      8.707
REMARK  7 active torsions:
REMARK  status: ('A' for Active; 'I' for Inactive)
REMARK    1  A    between atoms: C2_3  and  C3_4 
REMARK    2  A    between atoms: C3_4  and  C4_5 
REMARK    3  A    between atoms: C4_5  and  C5_7 
REMARK    4  A    between atoms: C14_16  and  C15_17 
REMARK    5  A    between atoms: C15_17  and  C16_18 
REMARK    6  A    between atoms: C16_18  and  O2_19 
REMARK    7  A    between atoms: C16_18  and  C17_21 
ROOT
HETATM    1  C1  UNL     1      -8.161  22.188   5.284  1.00  0.00     0.310 C 
HETATM    2  N1  UNL     1      -7.729  23.204   4.344  1.00  0.00     0.094 N 
HETATM    3  C2  UNL     1      -8.810  23.485   3.424  1.00  0.00     0.230 C 
HETATM    4  C11 UNL     1      -9.296  24.908   3.581  1.00  0.00     0.036 C 
HETATM    5  C12 UNL     1      -8.146  25.808   3.232  1.00  0.00     0.004 C 
HETATM    6  C13 UNL     1      -7.090  25.597   4.259  1.00  0.00     0.036 C 
HETATM    7  C14 UNL     1      -7.195  24.324   5.030  1.00  0.00     0.226 C 
ENDROOT
BRANCH   7   8
HETATM    8  C15 UNL     1      -5.816  24.002   5.574  1.00  0.00     0.072 C 
BRANCH   8   9
HETATM    9  C16 UNL     1      -5.909  23.623   7.051  1.00  0.00     0.153 C 
BRANCH   9  10
HETATM   10  O2  UNL     1      -5.261  22.395   7.220  1.00  0.00    -0.391 OA
ATOM     11  H2  UNL     1      -5.415  22.106   8.112  1.00  0.00     0.210 HD
ENDBRANCH   9  10
BRANCH   9  12
HETATM   12  C17 UNL     1      -5.282  24.678   7.858  1.00  0.00    -0.030 A 
HETATM   13  C18 UNL     1      -5.022  25.902   7.301  1.00  0.00     0.010 A 
HETATM   14  C19 UNL     1      -4.429  26.926   8.025  1.00  0.00     0.001 A 
HETATM   15  C20 UNL     1      -4.094  26.705   9.343  1.00  0.00     0.000 A 
HETATM   16  C21 UNL     1      -4.361  25.474   9.890  1.00  0.00     0.001 A 
HETATM   17  C22 UNL     1      -4.951  24.454   9.167  1.00  0.00     0.010 A 
ENDBRANCH   9  12
ENDBRANCH   8   9
ENDBRANCH   7   8
BRANCH   3  18
HETATM   18  C3  UNL     1      -8.398  23.182   2.012  1.00  0.00     0.119 C 
BRANCH  18  19
HETATM   19  C4  UNL     1      -9.265  23.705   0.957  1.00  0.00     0.161 C 
HETATM   20  O1  UNL     1     -10.501  23.824   1.143  1.00  0.00    -0.292 OA
BRANCH  19  21
HETATM   21  C5  UNL     1      -8.735  24.112  -0.351  1.00  0.00     0.010 A 
HETATM   22  C6  UNL     1      -8.540  23.237  -1.398  1.00  0.00     0.015 A 
HETATM   23  C7  UNL     1      -8.037  23.678  -2.618  1.00  0.00     0.001 A 
HETATM   24  C8  UNL     1      -7.719  25.006  -2.813  1.00  0.00     0.000 A 
HETATM   25  C9  UNL     1      -7.916  25.875  -1.763  1.00  0.00     0.001 A 
HETATM   26  C10 UNL     1      -8.415  25.424  -0.563  1.00  0.00     0.015 A 
ENDBRANCH  19  21
ENDBRANCH  18  19
ENDBRANCH   3  18
TORSDOF 7
ENDMDL
