MODEL 4
REMARK VINA RESULT: -10.608329848      1.489      2.090
REMARK  7 active torsions:
REMARK  status: ('A' for Active; 'I' for Inactive)
REMARK    1  A    between atoms: C2_3  and  C3_4 
REMARK    2  A    between atoms: C3_4  and  C4_5 
REMARK    3  A    between atoms: C4_5  and  C5_7 
REMARK    4  A    between atoms: C14_16  and  C15_17 
REMARK    5  A    between atoms: C15_17  and  C16_18 
REMARK    6  A    between atoms: C16_18  and  O2_19 
REMARK    7  A    between atoms: C16_18  and  C17_21 
ROOT
HETATM    1  C1  UNL     1      -8.343  26.153   3.436  1.00  0.00     0.310 C 
HETATM    2  N1  UNL     1      -8.352  24.703   3.450  1.00  0.00     0.094 N 
HETATM    3  C2  UNL     1      -7.982  24.241   4.770  1.00  0.00     0.230 C 
HETATM    4  C11 UNL     1      -9.128  23.505   5.427  1.00  0.00     0.036 C 
HETATM    5  C12 UNL     1      -9.420  22.300   4.580  1.00  0.00     0.004 C 
HETATM    6  C13 UNL     1      -9.918  22.790   3.267  1.00  0.00     0.036 C 
HETATM    7  C14 UNL     1      -9.582  24.209   2.946  1.00  0.00     0.226 C 
ENDROOT
BRANCH   7   8
HETATM    8  C15 UNL     1      -9.634  24.362   1.437  1.00  0.00     0.072 C 
BRANCH   8   9
HETATM    9  C16 UNL     1      -8.218  24.404   0.865  1.00  0.00     0.153 C 
BRANCH   9  10
HETATM   10  O2  UNL     1      -7.569  23.222   1.238  1.00  0.00    -0.391 OA
ATOM     11  H2  UNL     1      -6.749  23.178   0.763  1.00  0.00     0.210 HD
ENDBRANCH   9  10
BRANCH   9  12
HETATM   12  C17 UNL     1      -8.294  24.538  -0.595  1.00  0.00    -0.030 A 
HETATM   13  C18 UNL     1      -8.512  23.432  -1.374  1.00  0.00     0.010 A 
HETATM   14  C19 UNL     1      -8.589  23.511  -2.756  1.00  0.00     0.001 A 
HETATM   15  C20 UNL     1      -8.441  24.739  -3.363  1.00  0.00     0.000 A 
HETATM   16  C21 UNL     1      -8.223  25.840  -2.573  1.00  0.00     0.001 A 
HETATM   17  C22 UNL     1      -8.146  25.760  -1.195  1.00  0.00     0.010 A 
ENDBRANCH   9  12
ENDBRANCH   8   9
ENDBRANCH   7   8
BRANCH   3  18
HETATM   18  C3  UNL     1      -6.735  23.406   4.710  1.00  0.00     0.119 C 
BRANCH  18  19
HETATM   19  C4  UNL     1      -6.123  23.062   5.992  1.00  0.00     0.161 C 
HETATM   20  O1  UNL     1      -6.106  21.873   6.396  1.00  0.00    -0.292 OA
BRANCH  19  21
HETATM   21  C5  UNL     1      -5.507  24.079   6.855  1.00  0.00     0.010 A 
HETATM   22  C6  UNL     1      -5.113  25.320   6.405  1.00  0.00     0.015 A 
HETATM   23  C7  UNL     1      -4.536  26.248   7.267  1.00  0.00     0.001 A 
HETATM   24  C8  UNL     1      -4.343  25.947   8.600  1.00  0.00     0.000 A 
HETATM   25  C9  UNL     1      -4.739  24.705   9.043  1.00  0.00     0.001 A 
HETATM   26  C10 UNL     1      -5.308  23.800   8.178  1.00  0.00     0.015 A 
ENDBRANCH  19  21
ENDBRANCH  18  19
ENDBRANCH   3  18
TORSDOF 7
ENDMDL
