MODEL 9
REMARK VINA RESULT: -9.026060693      2.879      4.928
REMARK  7 active torsions:
REMARK  status: ('A' for Active; 'I' for Inactive)
REMARK    1  A    between atoms: C2_3  and  C3_4 
REMARK    2  A    between atoms: C3_4  and  C4_5 
REMARK    3  A    between atoms: C4_5  and  C5_7 
REMARK    4  A    between atoms: C14_16  and  C15_17 
REMARK    5  A    between atoms: C15_17  and  C16_18 
REMARK    6  A    between atoms: C16_18  and  O2_19 
REMARK    7  A    between atoms: C16_18  and  C17_21 
ROOT
HETATM    1  C1  UNL     1     -10.668  22.527   1.934  1.00  0.00     0.310 C 
HETATM    2  N1  UNL     1      -9.918  23.341   2.871  1.00  0.00     0.094 N 
HETATM    3  C2  UNL     1     -10.537  23.247   4.176  1.00  0.00     0.230 C 
HETATM    4  C11 UNL     1      -9.608  22.584   5.168  1.00  0.00     0.036 C 
HETATM    5  C12 UNL     1      -8.397  23.463   5.293  1.00  0.00     0.004 C 
HETATM    6  C13 UNL     1      -7.702  23.450   3.977  1.00  0.00     0.036 C 
HETATM    7  C14 UNL     1      -8.539  23.019   2.818  1.00  0.00     0.226 C 
ENDROOT
BRANCH   7   8
HETATM    8  C15 UNL     1      -7.911  23.592   1.561  1.00  0.00     0.072 C 
BRANCH   8   9
HETATM    9  C16 UNL     1      -8.786  24.713   1.002  1.00  0.00     0.153 C 
BRANCH   9  10
HETATM   10  O2  UNL     1      -8.403  25.907   1.625  1.00  0.00    -0.391 OA
ATOM     11  H2  UNL     1      -9.193  26.372   1.871  1.00  0.00     0.210 HD
ENDBRANCH   9  10
BRANCH   9  12
HETATM   12  C17 UNL     1      -8.604  24.784  -0.453  1.00  0.00    -0.030 A 
HETATM   13  C18 UNL     1      -8.900  23.697  -1.233  1.00  0.00     0.010 A 
HETATM   14  C19 UNL     1      -8.741  23.718  -2.611  1.00  0.00     0.001 A 
HETATM   15  C20 UNL     1      -8.274  24.866  -3.212  1.00  0.00     0.000 A 
HETATM   16  C21 UNL     1      -7.982  25.950  -2.420  1.00  0.00     0.001 A 
HETATM   17  C22 UNL     1      -8.139  25.927  -1.046  1.00  0.00     0.010 A 
ENDBRANCH   9  12
ENDBRANCH   8   9
ENDBRANCH   7   8
BRANCH   3  18
HETATM   18  C3  UNL     1     -10.993  24.599   4.646  1.00  0.00     0.119 C 
BRANCH  18  19
HETATM   19  C4  UNL     1     -12.369  24.686   5.132  1.00  0.00     0.161 C 
HETATM   20  O1  UNL     1     -13.275  25.169   4.408  1.00  0.00    -0.292 OA
BRANCH  19  21
HETATM   21  C5  UNL     1     -12.750  24.217   6.471  1.00  0.00     0.010 A 
HETATM   22  C6  UNL     1     -11.847  23.730   7.390  1.00  0.00     0.015 A 
HETATM   23  C7  UNL     1     -12.262  23.301   8.648  1.00  0.00     0.001 A 
HETATM   24  C8  UNL     1     -13.593  23.351   9.006  1.00  0.00     0.000 A 
HETATM   25  C9  UNL     1     -14.490  23.838   8.083  1.00  0.00     0.001 A 
HETATM   26  C10 UNL     1     -14.063  24.260   6.844  1.00  0.00     0.015 A 
ENDBRANCH  19  21
ENDBRANCH  18  19
ENDBRANCH   3  18
TORSDOF 7
ENDMDL
