MODEL 2
REMARK VINA RESULT: -8.964921563      0.080      1.050
REMARK  9 active torsions:
REMARK  status: ('A' for Active; 'I' for Inactive)
REMARK    1  A    between atoms: C2_2  and  O1_3 
REMARK    2  A    between atoms: O1_3  and  C3_4 
REMARK    3  A    between atoms: C5_6  and  O2_7 
REMARK    4  A    between atoms: O2_7  and  C6_8 
REMARK    5  A    between atoms: C11_15  and  C12_16 
REMARK    6  A    between atoms: C12_16  and  N1_17 
REMARK    7  A    between atoms: C12_16  and  C20_30 
REMARK    8  A    between atoms: N1_17  and  C13_19 
REMARK    9  A    between atoms: C16_22  and  C17_23 
ROOT
HETATM    1  C12 UNL     1      10.143  40.237  32.591  1.00  0.00     0.220 C 
ENDROOT
BRANCH   1   2
HETATM    2  C11 UNL     1      10.491  41.673  32.526  1.00  0.00     0.019 A 
HETATM    3  C10 UNL     1      10.259  42.437  31.411  1.00  0.00     0.158 A 
HETATM    4  C5  UNL     1      10.614  43.783  31.357  1.00  0.00     0.111 A 
HETATM    5  F1  UNL     1       9.643  41.886  30.333  1.00  0.00    -0.203 F 
HETATM    6  C4  UNL     1      11.229  44.323  32.514  1.00  0.00     0.076 A 
HETATM    7  C3  UNL     1      11.472  43.585  33.634  1.00  0.00     0.072 A 
HETATM    8  C21 UNL     1      11.099  42.264  33.630  1.00  0.00     0.049 A 
BRANCH   4   9
HETATM    9  O2  UNL     1      10.411  44.591  30.284  1.00  0.00    -0.340 OA
BRANCH   9  10
HETATM   10  C6  UNL     1      10.945  44.583  29.046  1.00  0.00     0.154 C 
HETATM   11  C7  UNL     1      11.889  45.794  28.800  1.00  0.00     0.061 C 
HETATM   12  C8  UNL     1      11.828  45.892  27.310  1.00  0.00     0.170 C 
HETATM   13  O3  UNL     1      10.738  45.154  26.875  1.00  0.00    -0.389 OA
HETATM   14  C9  UNL     1       9.907  44.952  27.951  1.00  0.00     0.200 C 
ENDBRANCH   9  10
ENDBRANCH   4   9
BRANCH   7  15
HETATM   15  O1  UNL     1      12.084  44.179  34.747  1.00  0.00    -0.351 OA
BRANCH  15  16
HETATM   16  C2  UNL     1      13.224  45.002  34.500  1.00  0.00     0.171 C 
HETATM   17  C1  UNL     1      14.504  44.236  34.649  1.00  0.00     0.034 C 
ENDBRANCH  15  16
ENDBRANCH   7  15
ENDBRANCH   1   2
BRANCH   1  18
HETATM   18  N1  UNL     1      11.314  39.401  32.704  1.00  0.00    -0.372 N 
ATOM     19  H1  UNL     1      11.643  39.145  33.635  1.00  0.00     0.161 HD
BRANCH  18  20
HETATM   20  C13 UNL     1      12.022  38.921  31.583  1.00  0.00     0.029 A 
HETATM   21  C14 UNL     1      13.171  38.144  31.741  1.00  0.00     0.030 A 
HETATM   22  C15 UNL     1      13.821  37.664  30.629  1.00  0.00     0.017 A 
HETATM   23  C16 UNL     1      13.427  37.889  29.330  1.00  0.00     0.005 A 
HETATM   24  C18 UNL     1      12.270  38.672  29.200  1.00  0.00     0.017 A 
HETATM   25  C19 UNL     1      11.600  39.164  30.295  1.00  0.00     0.030 A 
BRANCH  23  26
HETATM   26  C17 UNL     1      14.106  37.387  28.150  1.00  0.00     0.120 C 
HETATM   27  N2  UNL     1      15.497  37.084  28.239  1.00  0.00    -0.082 NA
HETATM   28  N3  UNL     1      13.496  37.218  27.058  1.00  0.00    -0.387 N 
ATOM     29  H32 UNL     1      12.502  37.435  26.994  1.00  0.00     0.157 HD
ATOM     30  H31 UNL     1      13.974  36.866  26.228  1.00  0.00     0.157 HD
ENDBRANCH  23  26
ENDBRANCH  18  20
ENDBRANCH   1  18
BRANCH   1  31
HETATM   31  C20 UNL     1       9.239  39.981  33.778  1.00  0.00     0.201 C 
HETATM   32  O4  UNL     1       9.606  39.186  34.647  1.00  0.00    -0.646 OA
HETATM   33  O5  UNL     1       8.043  40.675  33.797  1.00  0.00    -0.646 OA
ENDBRANCH   1  31
TORSDOF 9
ENDMDL
