MODEL 6
REMARK VINA RESULT: -7.695171901      1.316      1.685
REMARK  9 active torsions:
REMARK  status: ('A' for Active; 'I' for Inactive)
REMARK    1  A    between atoms: C2_2  and  O1_3 
REMARK    2  A    between atoms: O1_3  and  C3_4 
REMARK    3  A    between atoms: C5_6  and  O2_7 
REMARK    4  A    between atoms: O2_7  and  C6_8 
REMARK    5  A    between atoms: C11_15  and  C12_16 
REMARK    6  A    between atoms: C12_16  and  N1_17 
REMARK    7  A    between atoms: C12_16  and  C20_30 
REMARK    8  A    between atoms: N1_17  and  C13_19 
REMARK    9  A    between atoms: C16_22  and  C17_23 
ROOT
HETATM    1  C12 UNL     1       9.530  41.513  31.757  1.00  0.00     0.220 C 
ENDROOT
BRANCH   1   2
HETATM    2  C11 UNL     1      10.320  42.755  31.614  1.00  0.00     0.019 A 
HETATM    3  C10 UNL     1      10.537  43.353  30.399  1.00  0.00     0.158 A 
HETATM    4  C5  UNL     1      11.304  44.510  30.278  1.00  0.00     0.111 A 
HETATM    5  F1  UNL     1       9.975  42.829  29.279  1.00  0.00    -0.203 F 
HETATM    6  C4  UNL     1      11.848  45.037  31.476  1.00  0.00     0.076 A 
HETATM    7  C3  UNL     1      11.647  44.461  32.695  1.00  0.00     0.072 A 
HETATM    8  C21 UNL     1      10.882  43.323  32.752  1.00  0.00     0.049 A 
BRANCH   4   9
HETATM    9  O2  UNL     1      11.555  45.149  29.106  1.00  0.00    -0.340 OA
BRANCH   9  10
HETATM   10  C6  UNL     1      10.780  45.939  28.335  1.00  0.00     0.154 C 
HETATM   11  C7  UNL     1      11.430  46.240  26.954  1.00  0.00     0.061 C 
HETATM   12  C8  UNL     1      10.748  47.522  26.604  1.00  0.00     0.170 C 
HETATM   13  O3  UNL     1      10.166  48.029  27.756  1.00  0.00    -0.389 OA
HETATM   14  C9  UNL     1      10.752  47.410  28.833  1.00  0.00     0.200 C 
ENDBRANCH   9  10
ENDBRANCH   4   9
BRANCH   7  15
HETATM   15  O1  UNL     1      12.213  45.033  33.843  1.00  0.00    -0.351 OA
BRANCH  15  16
HETATM   16  C2  UNL     1      12.938  44.164  34.713  1.00  0.00     0.171 C 
HETATM   17  C1  UNL     1      14.413  44.217  34.446  1.00  0.00     0.034 C 
ENDBRANCH  15  16
ENDBRANCH   7  15
ENDBRANCH   1   2
BRANCH   1  18
HETATM   18  N1  UNL     1      10.343  40.400  32.185  1.00  0.00    -0.372 N 
ATOM     19  H1  UNL     1      10.333  40.140  33.171  1.00  0.00     0.161 HD
BRANCH  18  20
HETATM   20  C13 UNL     1      11.150  39.656  31.300  1.00  0.00     0.029 A 
HETATM   21  C14 UNL     1      10.925  39.693  29.923  1.00  0.00     0.030 A 
HETATM   22  C15 UNL     1      11.749  38.982  29.083  1.00  0.00     0.017 A 
HETATM   23  C16 UNL     1      12.814  38.212  29.493  1.00  0.00     0.005 A 
HETATM   24  C18 UNL     1      13.018  38.193  30.881  1.00  0.00     0.017 A 
HETATM   25  C19 UNL     1      12.209  38.895  31.743  1.00  0.00     0.030 A 
BRANCH  23  26
HETATM   26  C17 UNL     1      13.690  37.459  28.616  1.00  0.00     0.120 C 
HETATM   27  N2  UNL     1      14.954  37.029  29.117  1.00  0.00    -0.082 NA
HETATM   28  N3  UNL     1      13.357  37.180  27.430  1.00  0.00    -0.387 N 
ATOM     29  H32 UNL     1      12.454  37.487  27.071  1.00  0.00     0.157 HD
ATOM     30  H31 UNL     1      13.974  36.650  26.813  1.00  0.00     0.157 HD
ENDBRANCH  23  26
ENDBRANCH  18  20
ENDBRANCH   1  18
BRANCH   1  31
HETATM   31  C20 UNL     1       8.417  41.723  32.760  1.00  0.00     0.201 C 
HETATM   32  O4  UNL     1       8.433  41.082  33.814  1.00  0.00    -0.646 OA
HETATM   33  O5  UNL     1       7.444  42.643  32.410  1.00  0.00    -0.646 OA
ENDBRANCH   1  31
TORSDOF 9
ENDMDL
