MODEL 1
REMARK VINA RESULT: -9.008953150      0.000      0.000
REMARK  9 active torsions:
REMARK  status: ('A' for Active; 'I' for Inactive)
REMARK    1  A    between atoms: C2_2  and  O1_3 
REMARK    2  A    between atoms: O1_3  and  C3_4 
REMARK    3  A    between atoms: C5_6  and  O2_7 
REMARK    4  A    between atoms: O2_7  and  C6_8 
REMARK    5  A    between atoms: C11_15  and  C12_16 
REMARK    6  A    between atoms: C12_16  and  N1_17 
REMARK    7  A    between atoms: C12_16  and  C20_30 
REMARK    8  A    between atoms: N1_17  and  C13_19 
REMARK    9  A    between atoms: C16_22  and  C17_23 
ROOT
HETATM    1  C12 UNL     1      10.120  40.253  32.581  1.00  0.00     0.220 C 
ENDROOT
BRANCH   1   2
HETATM    2  C11 UNL     1      10.468  41.689  32.523  1.00  0.00     0.019 A 
HETATM    3  C10 UNL     1      10.225  42.461  31.416  1.00  0.00     0.158 A 
HETATM    4  C5  UNL     1      10.580  43.808  31.368  1.00  0.00     0.111 A 
HETATM    5  F1  UNL     1       9.600  41.918  30.339  1.00  0.00    -0.203 F 
HETATM    6  C4  UNL     1      11.205  44.339  32.523  1.00  0.00     0.076 A 
HETATM    7  C3  UNL     1      11.457  43.593  33.636  1.00  0.00     0.072 A 
HETATM    8  C21 UNL     1      11.085  42.272  33.625  1.00  0.00     0.049 A 
BRANCH   4   9
HETATM    9  O2  UNL     1      10.367  44.624  30.303  1.00  0.00    -0.340 OA
BRANCH   9  10
HETATM   10  C6  UNL     1      10.914  44.643  29.070  1.00  0.00     0.154 C 
HETATM   11  C7  UNL     1      11.802  45.898  28.836  1.00  0.00     0.061 C 
HETATM   12  C8  UNL     1      11.750  45.996  27.346  1.00  0.00     0.170 C 
HETATM   13  O3  UNL     1      10.701  45.209  26.899  1.00  0.00    -0.389 OA
HETATM   14  C9  UNL     1       9.870  44.965  27.965  1.00  0.00     0.200 C 
ENDBRANCH   9  10
ENDBRANCH   4   9
BRANCH   7  15
HETATM   15  O1  UNL     1      12.079  44.179  34.748  1.00  0.00    -0.351 OA
BRANCH  15  16
HETATM   16  C2  UNL     1      13.173  45.061  34.492  1.00  0.00     0.171 C 
HETATM   17  C1  UNL     1      14.492  44.357  34.610  1.00  0.00     0.034 C 
ENDBRANCH  15  16
ENDBRANCH   7  15
ENDBRANCH   1   2
BRANCH   1  18
HETATM   18  N1  UNL     1      11.291  39.416  32.686  1.00  0.00    -0.372 N 
ATOM     19  H1  UNL     1      11.646  39.188  33.615  1.00  0.00     0.161 HD
BRANCH  18  20
HETATM   20  C13 UNL     1      11.967  38.899  31.562  1.00  0.00     0.029 A 
HETATM   21  C14 UNL     1      11.496  39.140  30.270  1.00  0.00     0.030 A 
HETATM   22  C15 UNL     1      12.196  38.650  29.193  1.00  0.00     0.017 A 
HETATM   23  C16 UNL     1      13.358  37.919  29.277  1.00  0.00     0.005 A 
HETATM   24  C18 UNL     1      13.809  37.692  30.586  1.00  0.00     0.017 A 
HETATM   25  C19 UNL     1      13.130  38.170  31.681  1.00  0.00     0.030 A 
BRANCH  23  26
HETATM   26  C17 UNL     1      14.103  37.397  28.147  1.00  0.00     0.120 C 
HETATM   27  N2  UNL     1      15.465  37.019  28.342  1.00  0.00    -0.082 NA
HETATM   28  N3  UNL     1      13.575  37.273  27.007  1.00  0.00    -0.387 N 
ATOM     29  H32 UNL     1      12.602  37.543  26.867  1.00  0.00     0.157 HD
ATOM     30  H31 UNL     1      14.099  36.906  26.212  1.00  0.00     0.157 HD
ENDBRANCH  23  26
ENDBRANCH  18  20
ENDBRANCH   1  18
BRANCH   1  31
HETATM   31  C20 UNL     1       9.218  39.989  33.767  1.00  0.00     0.201 C 
HETATM   32  O4  UNL     1       8.138  40.581  33.839  1.00  0.00    -0.646 OA
HETATM   33  O5  UNL     1       9.686  39.082  34.701  1.00  0.00    -0.646 OA
ENDBRANCH   1  31
TORSDOF 9
ENDMDL
