MODEL 10
REMARK VINA RESULT: -7.371582407      2.331      4.484
REMARK  9 active torsions:
REMARK  status: ('A' for Active; 'I' for Inactive)
REMARK    1  A    between atoms: C2_2  and  O1_3 
REMARK    2  A    between atoms: O1_3  and  C3_4 
REMARK    3  A    between atoms: C5_6  and  O2_7 
REMARK    4  A    between atoms: O2_7  and  C6_8 
REMARK    5  A    between atoms: C11_15  and  C12_16 
REMARK    6  A    between atoms: C12_16  and  N1_17 
REMARK    7  A    between atoms: C12_16  and  C20_30 
REMARK    8  A    between atoms: N1_17  and  C13_19 
REMARK    9  A    between atoms: C16_22  and  C17_23 
ROOT
HETATM    1  C12 UNL     1       9.735  40.876  30.264  1.00  0.00     0.220 C 
ENDROOT
BRANCH   1   2
HETATM    2  C11 UNL     1       9.650  41.446  31.626  1.00  0.00     0.019 A 
HETATM    3  C10 UNL     1      10.166  42.676  31.942  1.00  0.00     0.158 A 
HETATM    4  C5  UNL     1      10.099  43.190  33.236  1.00  0.00     0.111 A 
HETATM    5  F1  UNL     1      10.738  43.437  30.973  1.00  0.00    -0.203 F 
HETATM    6  C4  UNL     1       9.470  42.374  34.209  1.00  0.00     0.076 A 
HETATM    7  C3  UNL     1       8.950  41.147  33.920  1.00  0.00     0.072 A 
HETATM    8  C21 UNL     1       9.045  40.694  32.628  1.00  0.00     0.049 A 
BRANCH   4   9
HETATM    9  O2  UNL     1      10.590  44.399  33.612  1.00  0.00    -0.340 OA
BRANCH   9  10
HETATM   10  C6  UNL     1      11.844  44.802  33.905  1.00  0.00     0.154 C 
HETATM   11  C7  UNL     1      12.879  43.646  33.789  1.00  0.00     0.061 C 
HETATM   12  C8  UNL     1      13.950  44.145  34.703  1.00  0.00     0.170 C 
HETATM   13  O3  UNL     1      13.413  45.157  35.483  1.00  0.00    -0.389 OA
HETATM   14  C9  UNL     1      12.044  45.056  35.424  1.00  0.00     0.200 C 
ENDBRANCH   9  10
ENDBRANCH   4   9
BRANCH   7  15
HETATM   15  O1  UNL     1       8.340  40.389  34.929  1.00  0.00    -0.351 OA
BRANCH  15  16
HETATM   16  C2  UNL     1       8.766  39.033  35.072  1.00  0.00     0.171 C 
HETATM   17  C1  UNL     1       7.605  38.084  35.078  1.00  0.00     0.034 C 
ENDBRANCH  15  16
ENDBRANCH   7  15
ENDBRANCH   1   2
BRANCH   1  18
HETATM   18  N1  UNL     1       9.990  39.456  30.286  1.00  0.00    -0.372 N 
ATOM     19  H1  UNL     1       9.210  38.823  30.464  1.00  0.00     0.161 HD
BRANCH  18  20
HETATM   20  C13 UNL     1      11.270  38.904  30.073  1.00  0.00     0.029 A 
HETATM   21  C14 UNL     1      11.696  38.559  28.789  1.00  0.00     0.030 A 
HETATM   22  C15 UNL     1      12.962  38.053  28.610  1.00  0.00     0.017 A 
HETATM   23  C16 UNL     1      13.878  37.852  29.616  1.00  0.00     0.005 A 
HETATM   24  C18 UNL     1      13.424  38.208  30.895  1.00  0.00     0.017 A 
HETATM   25  C19 UNL     1      12.164  38.715  31.103  1.00  0.00     0.030 A 
BRANCH  23  26
HETATM   26  C17 UNL     1      15.215  37.319  29.438  1.00  0.00     0.120 C 
HETATM   27  N2  UNL     1      16.159  37.474  30.495  1.00  0.00    -0.082 NA
HETATM   28  N3  UNL     1      15.555  36.728  28.375  1.00  0.00    -0.387 N 
ATOM     29  H32 UNL     1      14.880  36.618  27.618  1.00  0.00     0.157 HD
ATOM     30  H31 UNL     1      16.496  36.354  28.249  1.00  0.00     0.157 HD
ENDBRANCH  23  26
ENDBRANCH  18  20
ENDBRANCH   1  18
BRANCH   1  31
HETATM   31  C20 UNL     1       8.444  41.133  29.518  1.00  0.00     0.201 C 
HETATM   32  O4  UNL     1       7.645  40.204  29.369  1.00  0.00    -0.646 OA
HETATM   33  O5  UNL     1       8.253  42.420  29.050  1.00  0.00    -0.646 OA
ENDBRANCH   1  31
TORSDOF 9
ENDMDL
