MODEL 12
REMARK VINA RESULT: -7.287167573      2.698      5.272
REMARK  9 active torsions:
REMARK  status: ('A' for Active; 'I' for Inactive)
REMARK    1  A    between atoms: C2_2  and  O1_3 
REMARK    2  A    between atoms: O1_3  and  C3_4 
REMARK    3  A    between atoms: C5_6  and  O2_7 
REMARK    4  A    between atoms: O2_7  and  C6_8 
REMARK    5  A    between atoms: C11_15  and  C12_16 
REMARK    6  A    between atoms: C12_16  and  N1_17 
REMARK    7  A    between atoms: C12_16  and  C20_30 
REMARK    8  A    between atoms: N1_17  and  C13_19 
REMARK    9  A    between atoms: C16_22  and  C17_23 
ROOT
HETATM    1  C12 UNL     1       9.838  42.304  31.682  1.00  0.00     0.220 C 
ENDROOT
BRANCH   1   2
HETATM    2  C11 UNL     1       9.959  43.005  32.979  1.00  0.00     0.019 A 
HETATM    3  C10 UNL     1       8.997  42.925  33.952  1.00  0.00     0.158 A 
HETATM    4  C5  UNL     1       9.114  43.611  35.159  1.00  0.00     0.111 A 
HETATM    5  F1  UNL     1       7.906  42.138  33.758  1.00  0.00    -0.203 F 
HETATM    6  C4  UNL     1      10.281  44.397  35.329  1.00  0.00     0.076 A 
HETATM    7  C3  UNL     1      11.252  44.494  34.377  1.00  0.00     0.072 A 
HETATM    8  C21 UNL     1      11.082  43.795  33.208  1.00  0.00     0.049 A 
BRANCH   4   9
HETATM    9  O2  UNL     1       8.198  43.572  36.160  1.00  0.00    -0.340 OA
BRANCH   9  10
HETATM   10  C6  UNL     1       8.153  42.856  37.303  1.00  0.00     0.154 C 
HETATM   11  C7  UNL     1       7.734  41.378  37.059  1.00  0.00     0.061 C 
HETATM   12  C8  UNL     1       7.181  41.025  38.401  1.00  0.00     0.170 C 
HETATM   13  O3  UNL     1       6.956  42.202  39.098  1.00  0.00    -0.389 OA
HETATM   14  C9  UNL     1       6.934  43.233  38.190  1.00  0.00     0.200 C 
ENDBRANCH   9  10
ENDBRANCH   4   9
BRANCH   7  15
HETATM   15  O1  UNL     1      12.384  45.289  34.607  1.00  0.00    -0.351 OA
BRANCH  15  16
HETATM   16  C2  UNL     1      13.456  44.697  35.340  1.00  0.00     0.171 C 
HETATM   17  C1  UNL     1      14.553  44.224  34.434  1.00  0.00     0.034 C 
ENDBRANCH  15  16
ENDBRANCH   7  15
ENDBRANCH   1   2
BRANCH   1  18
HETATM   18  N1  UNL     1       9.812  40.870  31.842  1.00  0.00    -0.372 N 
ATOM     19  H1  UNL     1       9.134  40.463  32.487  1.00  0.00     0.161 HD
BRANCH  18  20
HETATM   20  C13 UNL     1      10.682  40.006  31.147  1.00  0.00     0.029 A 
HETATM   21  C14 UNL     1      10.518  39.772  29.781  1.00  0.00     0.030 A 
HETATM   22  C15 UNL     1      11.403  38.950  29.124  1.00  0.00     0.017 A 
HETATM   23  C16 UNL     1      12.473  38.317  29.713  1.00  0.00     0.005 A 
HETATM   24  C18 UNL     1      12.615  38.570  31.086  1.00  0.00     0.017 A 
HETATM   25  C19 UNL     1      11.745  39.387  31.767  1.00  0.00     0.030 A 
BRANCH  23  26
HETATM   26  C17 UNL     1      13.412  37.447  29.030  1.00  0.00     0.120 C 
HETATM   27  N2  UNL     1      14.342  36.698  29.810  1.00  0.00    -0.082 NA
HETATM   28  N3  UNL     1      13.422  37.344  27.771  1.00  0.00    -0.387 N 
ATOM     29  H32 UNL     1      12.758  37.880  27.214  1.00  0.00     0.157 HD
ATOM     30  H31 UNL     1      14.083  36.732  27.291  1.00  0.00     0.157 HD
ENDBRANCH  23  26
ENDBRANCH  18  20
ENDBRANCH   1  18
BRANCH   1  31
HETATM   31  C20 UNL     1       8.573  42.743  30.977  1.00  0.00     0.201 C 
HETATM   32  O4  UNL     1       7.745  41.889  30.648  1.00  0.00    -0.646 OA
HETATM   33  O5  UNL     1       8.439  44.101  30.749  1.00  0.00    -0.646 OA
ENDBRANCH   1  31
TORSDOF 9
ENDMDL
