MODEL 4
REMARK VINA RESULT: -8.496776724      0.881      1.397
REMARK  9 active torsions:
REMARK  status: ('A' for Active; 'I' for Inactive)
REMARK    1  A    between atoms: C2_2  and  O1_3 
REMARK    2  A    between atoms: O1_3  and  C3_4 
REMARK    3  A    between atoms: C5_6  and  O2_7 
REMARK    4  A    between atoms: O2_7  and  C6_8 
REMARK    5  A    between atoms: C11_15  and  C12_16 
REMARK    6  A    between atoms: C12_16  and  N1_17 
REMARK    7  A    between atoms: C12_16  and  C20_30 
REMARK    8  A    between atoms: N1_17  and  C13_19 
REMARK    9  A    between atoms: C16_22  and  C17_23 
ROOT
HETATM    1  C12 UNL     1      10.132  40.288  32.552  1.00  0.00     0.220 C 
ENDROOT
BRANCH   1   2
HETATM    2  C11 UNL     1      10.577  41.697  32.495  1.00  0.00     0.019 A 
HETATM    3  C10 UNL     1      10.504  42.445  31.348  1.00  0.00     0.158 A 
HETATM    4  C5  UNL     1      10.949  43.765  31.304  1.00  0.00     0.111 A 
HETATM    5  F1  UNL     1       9.962  41.907  30.224  1.00  0.00    -0.203 F 
HETATM    6  C4  UNL     1      11.482  44.294  32.506  1.00  0.00     0.076 A 
HETATM    7  C3  UNL     1      11.565  43.571  33.658  1.00  0.00     0.072 A 
HETATM    8  C21 UNL     1      11.110  42.276  33.642  1.00  0.00     0.049 A 
BRANCH   4   9
HETATM    9  O2  UNL     1      10.905  44.558  30.202  1.00  0.00    -0.340 OA
BRANCH   9  10
HETATM   10  C6  UNL     1      10.311  45.749  29.982  1.00  0.00     0.154 C 
HETATM   11  C7  UNL     1       9.450  45.751  28.686  1.00  0.00     0.061 C 
HETATM   12  C8  UNL     1       9.446  47.210  28.362  1.00  0.00     0.170 C 
HETATM   13  O3  UNL     1      10.455  47.816  29.094  1.00  0.00    -0.389 OA
HETATM   14  C9  UNL     1      11.320  46.835  29.516  1.00  0.00     0.200 C 
ENDBRANCH   9  10
ENDBRANCH   4   9
BRANCH   7  15
HETATM   15  O1  UNL     1      12.103  44.153  34.815  1.00  0.00    -0.351 OA
BRANCH  15  16
HETATM   16  C2  UNL     1      13.244  44.995  34.650  1.00  0.00     0.171 C 
HETATM   17  C1  UNL     1      14.514  44.201  34.583  1.00  0.00     0.034 C 
ENDBRANCH  15  16
ENDBRANCH   7  15
ENDBRANCH   1   2
BRANCH   1  18
HETATM   18  N1  UNL     1      11.243  39.373  32.667  1.00  0.00    -0.372 N 
ATOM     19  H1  UNL     1      11.515  39.051  33.596  1.00  0.00     0.161 HD
BRANCH  18  20
HETATM   20  C13 UNL     1      11.968  38.905  31.552  1.00  0.00     0.029 A 
HETATM   21  C14 UNL     1      13.159  38.198  31.719  1.00  0.00     0.030 A 
HETATM   22  C15 UNL     1      13.827  37.726  30.613  1.00  0.00     0.017 A 
HETATM   23  C16 UNL     1      13.410  37.895  29.313  1.00  0.00     0.005 A 
HETATM   24  C18 UNL     1      12.210  38.609  29.174  1.00  0.00     0.017 A 
HETATM   25  C19 UNL     1      11.523  39.091  30.262  1.00  0.00     0.030 A 
BRANCH  23  26
HETATM   26  C17 UNL     1      14.107  37.402  28.140  1.00  0.00     0.120 C 
HETATM   27  N2  UNL     1      15.503  37.130  28.238  1.00  0.00    -0.082 NA
HETATM   28  N3  UNL     1      13.506  37.212  27.045  1.00  0.00    -0.387 N 
ATOM     29  H32 UNL     1      12.508  37.407  26.974  1.00  0.00     0.157 HD
ATOM     30  H31 UNL     1      13.997  36.866  26.220  1.00  0.00     0.157 HD
ENDBRANCH  23  26
ENDBRANCH  18  20
ENDBRANCH   1  18
BRANCH   1  31
HETATM   31  C20 UNL     1       9.206  40.088  33.731  1.00  0.00     0.201 C 
HETATM   32  O4  UNL     1       8.168  40.753  33.796  1.00  0.00    -0.646 OA
HETATM   33  O5  UNL     1       9.602  39.152  34.669  1.00  0.00    -0.646 OA
ENDBRANCH   1  31
TORSDOF 9
ENDMDL
