MODEL 3
REMARK VINA RESULT: -8.544391703      0.969      1.220
REMARK  9 active torsions:
REMARK  status: ('A' for Active; 'I' for Inactive)
REMARK    1  A    between atoms: C2_2  and  O1_3 
REMARK    2  A    between atoms: O1_3  and  C3_4 
REMARK    3  A    between atoms: C5_6  and  O2_7 
REMARK    4  A    between atoms: O2_7  and  C6_8 
REMARK    5  A    between atoms: C11_15  and  C12_16 
REMARK    6  A    between atoms: C12_16  and  N1_17 
REMARK    7  A    between atoms: C12_16  and  C20_30 
REMARK    8  A    between atoms: N1_17  and  C13_19 
REMARK    9  A    between atoms: C16_22  and  C17_23 
ROOT
HETATM    1  C12 UNL     1      10.149  40.187  32.578  1.00  0.00     0.220 C 
ENDROOT
BRANCH   1   2
HETATM    2  C11 UNL     1      10.455  41.633  32.527  1.00  0.00     0.019 A 
HETATM    3  C10 UNL     1      10.157  42.411  31.438  1.00  0.00     0.158 A 
HETATM    4  C5  UNL     1      10.473  43.767  31.397  1.00  0.00     0.111 A 
HETATM    5  F1  UNL     1       9.513  41.864  30.375  1.00  0.00    -0.203 F 
HETATM    6  C4  UNL     1      11.121  44.301  32.538  1.00  0.00     0.076 A 
HETATM    7  C3  UNL     1      11.428  43.550  33.633  1.00  0.00     0.072 A 
HETATM    8  C21 UNL     1      11.091  42.219  33.617  1.00  0.00     0.049 A 
BRANCH   4   9
HETATM    9  O2  UNL     1      10.205  44.590  30.350  1.00  0.00    -0.340 OA
BRANCH   9  10
HETATM   10  C6  UNL     1      10.534  45.878  30.119  1.00  0.00     0.154 C 
HETATM   11  C7  UNL     1       9.286  46.805  30.055  1.00  0.00     0.061 C 
HETATM   12  C8  UNL     1       9.821  47.926  29.224  1.00  0.00     0.170 C 
HETATM   13  O3  UNL     1      10.984  47.490  28.609  1.00  0.00    -0.389 OA
HETATM   14  C9  UNL     1      10.998  46.117  28.655  1.00  0.00     0.200 C 
ENDBRANCH   9  10
ENDBRANCH   4   9
BRANCH   7  15
HETATM   15  O1  UNL     1      12.069  44.139  34.732  1.00  0.00    -0.351 OA
BRANCH  15  16
HETATM   16  C2  UNL     1      13.199  44.968  34.459  1.00  0.00     0.171 C 
HETATM   17  C1  UNL     1      14.489  44.225  34.638  1.00  0.00     0.034 C 
ENDBRANCH  15  16
ENDBRANCH   7  15
ENDBRANCH   1   2
BRANCH   1  18
HETATM   18  N1  UNL     1      11.343  39.383  32.668  1.00  0.00    -0.372 N 
ATOM     19  H1  UNL     1      11.721  39.172  33.592  1.00  0.00     0.161 HD
BRANCH  18  20
HETATM   20  C13 UNL     1      12.012  38.875  31.535  1.00  0.00     0.029 A 
HETATM   21  C14 UNL     1      11.539  39.135  30.248  1.00  0.00     0.030 A 
HETATM   22  C15 UNL     1      12.231  38.653  29.163  1.00  0.00     0.017 A 
HETATM   23  C16 UNL     1      13.389  37.914  29.234  1.00  0.00     0.005 A 
HETATM   24  C18 UNL     1      13.843  37.668  30.539  1.00  0.00     0.017 A 
HETATM   25  C19 UNL     1      13.170  38.137  31.642  1.00  0.00     0.030 A 
BRANCH  23  26
HETATM   26  C17 UNL     1      14.127  37.400  28.096  1.00  0.00     0.120 C 
HETATM   27  N2  UNL     1      15.522  37.143  28.245  1.00  0.00    -0.082 NA
HETATM   28  N3  UNL     1      13.564  37.181  26.987  1.00  0.00    -0.387 N 
ATOM     29  H32 UNL     1      12.567  37.366  26.880  1.00  0.00     0.157 HD
ATOM     30  H31 UNL     1      14.084  36.820  26.186  1.00  0.00     0.157 HD
ENDBRANCH  23  26
ENDBRANCH  18  20
ENDBRANCH   1  18
BRANCH   1  31
HETATM   31  C20 UNL     1       9.264  39.890  33.769  1.00  0.00     0.201 C 
HETATM   32  O4  UNL     1       9.678  39.124  34.644  1.00  0.00    -0.646 OA
HETATM   33  O5  UNL     1       8.031  40.517  33.787  1.00  0.00    -0.646 OA
ENDBRANCH   1  31
TORSDOF 9
ENDMDL
