MODEL 11
REMARK VINA RESULT: -7.319439654      3.618      7.359
REMARK  9 active torsions:
REMARK  status: ('A' for Active; 'I' for Inactive)
REMARK    1  A    between atoms: C2_2  and  O1_3 
REMARK    2  A    between atoms: O1_3  and  C3_4 
REMARK    3  A    between atoms: C5_6  and  O2_7 
REMARK    4  A    between atoms: O2_7  and  C6_8 
REMARK    5  A    between atoms: C11_15  and  C12_16 
REMARK    6  A    between atoms: C12_16  and  N1_17 
REMARK    7  A    between atoms: C12_16  and  C20_30 
REMARK    8  A    between atoms: N1_17  and  C13_19 
REMARK    9  A    between atoms: C16_22  and  C17_23 
ROOT
HETATM    1  C12 UNL     1       8.659  42.058  31.508  1.00  0.00     0.220 C 
ENDROOT
BRANCH   1   2
HETATM    2  C11 UNL     1       8.912  41.042  30.464  1.00  0.00     0.019 A 
HETATM    3  C10 UNL     1       9.946  40.146  30.544  1.00  0.00     0.158 A 
HETATM    4  C5  UNL     1      10.185  39.209  29.540  1.00  0.00     0.111 A 
HETATM    5  F1  UNL     1      10.753  40.143  31.637  1.00  0.00    -0.203 F 
HETATM    6  C4  UNL     1       9.304  39.231  28.431  1.00  0.00     0.076 A 
HETATM    7  C3  UNL     1       8.268  40.112  28.328  1.00  0.00     0.072 A 
HETATM    8  C21 UNL     1       8.081  41.010  29.348  1.00  0.00     0.049 A 
BRANCH   4   9
HETATM    9  O2  UNL     1      11.192  38.297  29.560  1.00  0.00    -0.340 OA
BRANCH   9  10
HETATM   10  C6  UNL     1      12.529  38.444  29.662  1.00  0.00     0.154 C 
HETATM   11  C7  UNL     1      13.305  37.435  28.768  1.00  0.00     0.061 C 
HETATM   12  C8  UNL     1      14.611  37.377  29.491  1.00  0.00     0.170 C 
HETATM   13  O3  UNL     1      14.428  37.916  30.755  1.00  0.00    -0.389 OA
HETATM   14  C9  UNL     1      13.080  37.927  31.019  1.00  0.00     0.200 C 
ENDBRANCH   9  10
ENDBRANCH   4   9
BRANCH   7  15
HETATM   15  O1  UNL     1       7.430  40.081  27.204  1.00  0.00    -0.351 OA
BRANCH  15  16
HETATM   16  C2  UNL     1       6.749  38.856  26.933  1.00  0.00     0.171 C 
HETATM   17  C1  UNL     1       5.379  38.836  27.543  1.00  0.00     0.034 C 
ENDBRANCH  15  16
ENDBRANCH   7  15
ENDBRANCH   1   2
BRANCH   1  18
HETATM   18  N1  UNL     1       9.486  43.229  31.336  1.00  0.00    -0.372 N 
ATOM     19  H1  UNL     1       9.296  43.848  30.549  1.00  0.00     0.161 HD
BRANCH  18  20
HETATM   20  C13 UNL     1      10.545  43.552  32.209  1.00  0.00     0.029 A 
HETATM   21  C14 UNL     1      10.844  42.741  33.304  1.00  0.00     0.030 A 
HETATM   22  C15 UNL     1      11.904  43.066  34.118  1.00  0.00     0.017 A 
HETATM   23  C16 UNL     1      12.724  44.156  33.942  1.00  0.00     0.005 A 
HETATM   24  C18 UNL     1      12.402  44.954  32.834  1.00  0.00     0.017 A 
HETATM   25  C19 UNL     1      11.349  44.652  32.004  1.00  0.00     0.030 A 
BRANCH  23  26
HETATM   26  C17 UNL     1      13.844  44.508  34.794  1.00  0.00     0.120 C 
HETATM   27  N2  UNL     1      15.164  44.195  34.353  1.00  0.00    -0.082 NA
HETATM   28  N3  UNL     1      13.674  45.080  35.907  1.00  0.00    -0.387 N 
ATOM     29  H32 UNL     1      12.731  45.304  36.223  1.00  0.00     0.157 HD
ATOM     30  H31 UNL     1      14.462  45.327  36.507  1.00  0.00     0.157 HD
ENDBRANCH  23  26
ENDBRANCH  18  20
ENDBRANCH   1  18
BRANCH   1  31
HETATM   31  C20 UNL     1       7.205  42.475  31.479  1.00  0.00     0.201 C 
HETATM   32  O4  UNL     1       6.903  43.553  30.961  1.00  0.00    -0.646 OA
HETATM   33  O5  UNL     1       6.304  41.593  32.049  1.00  0.00    -0.646 OA
ENDBRANCH   1  31
TORSDOF 9
ENDMDL
