MODEL 3
REMARK VINA RESULT: -4.356517216      0.787      1.032
REMARK  2 active torsions:
REMARK  status: ('A' for Active; 'I' for Inactive)
REMARK    1  A    between atoms: N1_1  and  C1_5 
REMARK    2  A    between atoms: C1_5  and  C2_6 
ROOT
HETATM    1  C2  UNL     1     -13.283  28.056  43.777  1.00  0.00    -0.033 A 
HETATM    2  C3  UNL     1     -14.355  28.211  44.629  1.00  0.00     0.009 A 
HETATM    3  C4  UNL     1     -14.222  28.150  46.008  1.00  0.00     0.001 A 
HETATM    4  C5  UNL     1     -12.954  27.922  46.491  1.00  0.00     0.000 A 
HETATM    5  C6  UNL     1     -11.845  27.760  45.689  1.00  0.00     0.001 A 
HETATM    6  C7  UNL     1     -12.027  27.830  44.313  1.00  0.00     0.009 A 
ENDROOT
BRANCH   1   7
HETATM    7  C1  UNL     1     -13.393  28.117  42.299  1.00  0.00     0.268 C 
BRANCH   7   8
HETATM    8  N1  UNL     1     -12.107  28.513  41.736  1.00  0.00    -0.075 N 
ATOM      9  H13 UNL     1     -11.914  29.505  41.874  1.00  0.00     0.274 HD
ATOM     10  H12 UNL     1     -11.320  28.138  42.266  1.00  0.00     0.274 HD
ATOM     11  H11 UNL     1     -12.073  28.246  40.753  1.00  0.00     0.274 HD
ENDBRANCH   7   8
ENDBRANCH   1   7
TORSDOF 2
ENDMDL
