MODEL 1
REMARK VINA RESULT: -4.897897905      0.000      0.000
REMARK  2 active torsions:
REMARK  status: ('A' for Active; 'I' for Inactive)
REMARK    1  A    between atoms: N1_1  and  C1_5 
REMARK    2  A    between atoms: C1_5  and  C2_6 
ROOT
HETATM    1  C2  UNL     1     -13.026  27.987  43.434  1.00  0.00    -0.033 A 
HETATM    2  C3  UNL     1     -14.385  28.127  43.606  1.00  0.00     0.009 A 
HETATM    3  C4  UNL     1     -14.970  28.209  44.860  1.00  0.00     0.001 A 
HETATM    4  C5  UNL     1     -14.118  28.144  45.939  1.00  0.00     0.000 A 
HETATM    5  C6  UNL     1     -12.751  28.005  45.828  1.00  0.00     0.001 A 
HETATM    6  C7  UNL     1     -12.210  27.927  44.551  1.00  0.00     0.009 A 
ENDROOT
BRANCH   1   7
HETATM    7  C1  UNL     1     -12.370  27.896  42.106  1.00  0.00     0.268 C 
BRANCH   7   8
HETATM    8  N1  UNL     1     -10.979  28.319  42.224  1.00  0.00    -0.075 N 
ATOM      9  H13 UNL     1     -10.739  29.051  41.556  1.00  0.00     0.274 HD
ATOM     10  H12 UNL     1     -10.806  28.844  43.082  1.00  0.00     0.274 HD
ATOM     11  H11 UNL     1     -10.371  27.505  42.140  1.00  0.00     0.274 HD
ENDBRANCH   7   8
ENDBRANCH   1   7
TORSDOF 2
ENDMDL
