MODEL 7
REMARK VINA RESULT: -4.188681991      1.183      2.177
REMARK  2 active torsions:
REMARK  status: ('A' for Active; 'I' for Inactive)
REMARK    1  A    between atoms: N1_1  and  C1_5 
REMARK    2  A    between atoms: C1_5  and  C2_6 
ROOT
HETATM    1  C2  UNL     1     -13.555  27.933  44.397  1.00  0.00    -0.033 A 
HETATM    2  C3  UNL     1     -12.252  28.048  44.829  1.00  0.00     0.009 A 
HETATM    3  C4  UNL     1     -11.883  27.811  46.144  1.00  0.00     0.001 A 
HETATM    4  C5  UNL     1     -12.891  27.451  47.009  1.00  0.00     0.000 A 
HETATM    5  C6  UNL     1     -14.211  27.321  46.634  1.00  0.00     0.001 A 
HETATM    6  C7  UNL     1     -14.534  27.568  45.306  1.00  0.00     0.009 A 
ENDROOT
BRANCH   1   7
HETATM    7  C1  UNL     1     -13.982  28.179  42.998  1.00  0.00     0.268 C 
BRANCH   7   8
HETATM    8  N1  UNL     1     -12.807  28.443  42.174  1.00  0.00    -0.075 N 
ATOM      9  H13 UNL     1     -13.045  28.914  41.301  1.00  0.00     0.274 HD
ATOM     10  H12 UNL     1     -12.211  29.169  42.573  1.00  0.00     0.274 HD
ATOM     11  H11 UNL     1     -12.302  27.571  42.018  1.00  0.00     0.274 HD
ENDBRANCH   7   8
ENDBRANCH   1   7
TORSDOF 2
ENDMDL
