MODEL 2
REMARK VINA RESULT: -4.892207712      0.708      1.828
REMARK  2 active torsions:
REMARK  status: ('A' for Active; 'I' for Inactive)
REMARK    1  A    between atoms: N1_1  and  C1_5 
REMARK    2  A    between atoms: C1_5  and  C2_6 
ROOT
HETATM    1  C2  UNL     1     -12.670  27.861  43.689  1.00  0.00    -0.033 A 
HETATM    2  C3  UNL     1     -12.065  27.760  44.923  1.00  0.00     0.009 A 
HETATM    3  C4  UNL     1     -12.765  27.927  46.108  1.00  0.00     0.001 A 
HETATM    4  C5  UNL     1     -14.109  28.202  45.993  1.00  0.00     0.000 A 
HETATM    5  C6  UNL     1     -14.767  28.314  44.787  1.00  0.00     0.001 A 
HETATM    6  C7  UNL     1     -14.025  28.139  43.626  1.00  0.00     0.009 A 
ENDROOT
BRANCH   1   7
HETATM    7  C1  UNL     1     -11.950  27.688  42.404  1.00  0.00     0.268 C 
BRANCH   7   8
HETATM    8  N1  UNL     1     -12.493  28.614  41.417  1.00  0.00    -0.075 N 
ATOM      9  H13 UNL     1     -13.511  28.671  41.460  1.00  0.00     0.274 HD
ATOM     10  H12 UNL     1     -12.284  29.587  41.643  1.00  0.00     0.274 HD
ATOM     11  H11 UNL     1     -12.160  28.353  40.490  1.00  0.00     0.274 HD
ENDBRANCH   7   8
ENDBRANCH   1   7
TORSDOF 2
ENDMDL
