MODEL 6
REMARK VINA RESULT: -8.400944453      1.687      4.597
REMARK  6 active torsions:
REMARK  status: ('A' for Active; 'I' for Inactive)
REMARK    1  A    between atoms: C5_6  and  C6_7 
REMARK    2  A    between atoms: C6_7  and  C7_8 
REMARK    3  A    between atoms: C6_7  and  N2_19 
REMARK    4  A    between atoms: C7_8  and  O1_9 
REMARK    5  A    between atoms: C7_8  and  C8_11 
REMARK    6  A    between atoms: C8_11  and  C9_12 
ROOT
HETATM    1  N1  UNL     1      51.713  34.927  68.746  1.00  0.00    -0.191 NA
HETATM    2  C1  UNL     1      52.319  35.676  68.119  1.00  0.00     0.099 C 
HETATM    3  C2  UNL     1      53.071  36.603  67.341  1.00  0.00     0.044 A 
HETATM    4  C3  UNL     1      52.789  37.957  67.280  1.00  0.00     0.023 A 
HETATM    5  C4  UNL     1      53.517  38.849  66.529  1.00  0.00     0.011 A 
HETATM    6  C5  UNL     1      54.587  38.385  65.794  1.00  0.00    -0.031 A 
HETATM    7  C17 UNL     1      54.858  37.036  65.864  1.00  0.00     0.011 A 
HETATM    8  C18 UNL     1      54.137  36.135  66.610  1.00  0.00     0.023 A 
ENDROOT
BRANCH   6   9
HETATM    9  C6  UNL     1      55.408  39.297  64.952  1.00  0.00     0.171 C 
BRANCH   9  10
HETATM   10  C7  UNL     1      55.003  39.413  63.539  1.00  0.00     0.151 C 
BRANCH  10  11
HETATM   11  O1  UNL     1      54.942  38.133  62.994  1.00  0.00    -0.393 OA
ATOM     12  H1  UNL     1      54.550  37.553  63.637  1.00  0.00     0.210 HD
ENDBRANCH  10  11
BRANCH  10  13
HETATM   13  C8  UNL     1      55.740  40.355  62.668  1.00  0.00     0.072 C 
BRANCH  13  14
HETATM   14  C9  UNL     1      54.697  41.079  61.852  1.00  0.00    -0.056 A 
HETATM   15  C10 UNL     1      54.144  40.508  60.734  1.00  0.00     0.010 A 
HETATM   16  C11 UNL     1      53.188  41.159  59.982  1.00  0.00     0.043 A 
HETATM   17  C12 UNL     1      52.776  42.424  60.365  1.00  0.00     0.116 A 
HETATM   18  F1  UNL     1      51.834  43.118  59.660  1.00  0.00    -0.206 F 
HETATM   19  C13 UNL     1      53.319  43.030  61.493  1.00  0.00     0.043 A 
HETATM   20  C14 UNL     1      54.283  42.326  62.221  1.00  0.00     0.010 A 
ENDBRANCH  13  14
ENDBRANCH  10  13
ENDBRANCH   9  10
BRANCH   9  21
HETATM   21  N2  UNL     1      55.686  40.568  65.617  1.00  0.00    -0.275 N 
HETATM   22  C15 UNL     1      56.765  40.857  66.367  1.00  0.00     0.202 A 
HETATM   23  N3  UNL     1      56.684  42.122  66.818  1.00  0.00    -0.346 N 
HETATM   24  C16 UNL     1      55.528  42.602  66.326  1.00  0.00     0.198 A 
ATOM     25  H3  UNL     1      57.356  42.613  67.408  1.00  0.00     0.167 HD
HETATM   26  N4  UNL     1      54.942  41.646  65.605  1.00  0.00    -0.292 N 
ATOM     27  H4  UNL     1      54.050  41.740  65.118  1.00  0.00     0.188 HD
ENDBRANCH   9  21
ENDBRANCH   6   9
TORSDOF 6
ENDMDL
