MODEL 3
REMARK VINA RESULT: -8.622385663      2.640      3.351
REMARK  6 active torsions:
REMARK  status: ('A' for Active; 'I' for Inactive)
REMARK    1  A    between atoms: C5_6  and  C6_7 
REMARK    2  A    between atoms: C6_7  and  C7_8 
REMARK    3  A    between atoms: C6_7  and  N2_19 
REMARK    4  A    between atoms: C7_8  and  O1_9 
REMARK    5  A    between atoms: C7_8  and  C8_11 
REMARK    6  A    between atoms: C8_11  and  C9_12 
ROOT
HETATM    1  N1  UNL     1      60.120  41.952  68.847  1.00  0.00    -0.191 NA
HETATM    2  C1  UNL     1      59.080  42.095  68.378  1.00  0.00     0.099 C 
HETATM    3  C2  UNL     1      57.792  42.269  67.797  1.00  0.00     0.044 A 
HETATM    4  C3  UNL     1      57.229  43.508  67.541  1.00  0.00     0.023 A 
HETATM    5  C4  UNL     1      55.985  43.672  66.979  1.00  0.00     0.011 A 
HETATM    6  C5  UNL     1      55.248  42.555  66.650  1.00  0.00    -0.031 A 
HETATM    7  C17 UNL     1      55.820  41.328  66.910  1.00  0.00     0.011 A 
HETATM    8  C18 UNL     1      57.062  41.151  67.471  1.00  0.00     0.023 A 
ENDROOT
BRANCH   6   9
HETATM    9  C6  UNL     1      53.891  42.666  66.050  1.00  0.00     0.171 C 
BRANCH   9  10
HETATM   10  C7  UNL     1      53.729  42.083  64.705  1.00  0.00     0.151 C 
BRANCH  10  11
HETATM   11  O1  UNL     1      53.348  40.751  64.848  1.00  0.00    -0.393 OA
ATOM     12  H1  UNL     1      53.037  40.437  64.007  1.00  0.00     0.210 HD
ENDBRANCH  10  11
BRANCH  10  13
HETATM   13  C8  UNL     1      54.825  42.248  63.726  1.00  0.00     0.072 C 
BRANCH  13  14
HETATM   14  C9  UNL     1      54.316  41.683  62.423  1.00  0.00    -0.056 A 
HETATM   15  C10 UNL     1      53.427  42.379  61.643  1.00  0.00     0.010 A 
HETATM   16  C11 UNL     1      52.956  41.874  60.449  1.00  0.00     0.043 A 
HETATM   17  C12 UNL     1      53.391  40.630  60.025  1.00  0.00     0.116 A 
HETATM   18  F1  UNL     1      52.960  40.078  58.853  1.00  0.00    -0.206 F 
HETATM   19  C13 UNL     1      54.291  39.899  60.793  1.00  0.00     0.043 A 
HETATM   20  C14 UNL     1      54.738  40.457  61.995  1.00  0.00     0.010 A 
ENDBRANCH  13  14
ENDBRANCH  10  13
ENDBRANCH   9  10
BRANCH   9  21
HETATM   21  N2  UNL     1      52.834  42.323  66.998  1.00  0.00    -0.275 N 
HETATM   22  C15 UNL     1      51.746  43.062  67.283  1.00  0.00     0.202 A 
HETATM   23  N3  UNL     1      50.992  42.433  68.203  1.00  0.00    -0.346 N 
HETATM   24  C16 UNL     1      51.644  41.289  68.475  1.00  0.00     0.198 A 
ATOM     25  H3  UNL     1      50.114  42.755  68.607  1.00  0.00     0.167 HD
HETATM   26  N4  UNL     1      52.754  41.244  67.737  1.00  0.00    -0.292 N 
ATOM     27  H4  UNL     1      53.436  40.486  67.747  1.00  0.00     0.188 HD
ENDBRANCH   9  21
ENDBRANCH   6   9
TORSDOF 6
ENDMDL
