MODEL 4
REMARK VINA RESULT: -8.427300208      2.155      5.225
REMARK  6 active torsions:
REMARK  status: ('A' for Active; 'I' for Inactive)
REMARK    1  A    between atoms: C5_6  and  C6_7 
REMARK    2  A    between atoms: C6_7  and  C7_8 
REMARK    3  A    between atoms: C6_7  and  N2_19 
REMARK    4  A    between atoms: C7_8  and  O1_9 
REMARK    5  A    between atoms: C7_8  and  C8_11 
REMARK    6  A    between atoms: C8_11  and  C9_12 
ROOT
HETATM    1  N1  UNL     1      50.124  34.181  67.666  1.00  0.00    -0.191 NA
HETATM    2  C1  UNL     1      51.000  34.841  67.318  1.00  0.00     0.099 C 
HETATM    3  C2  UNL     1      52.083  35.660  66.888  1.00  0.00     0.044 A 
HETATM    4  C3  UNL     1      53.336  35.166  66.567  1.00  0.00     0.023 A 
HETATM    5  C4  UNL     1      54.378  35.959  66.152  1.00  0.00     0.011 A 
HETATM    6  C5  UNL     1      54.181  37.319  66.045  1.00  0.00    -0.031 A 
HETATM    7  C17 UNL     1      52.930  37.798  66.367  1.00  0.00     0.011 A 
HETATM    8  C18 UNL     1      51.880  37.015  66.783  1.00  0.00     0.023 A 
ENDROOT
BRANCH   6   9
HETATM    9  C6  UNL     1      55.272  38.233  65.612  1.00  0.00     0.171 C 
BRANCH   9  10
HETATM   10  C7  UNL     1      55.419  38.422  64.157  1.00  0.00     0.151 C 
BRANCH  10  11
HETATM   11  O1  UNL     1      55.777  37.202  63.590  1.00  0.00    -0.393 OA
ATOM     12  H1  UNL     1      55.317  37.109  62.764  1.00  0.00     0.210 HD
ENDBRANCH  10  11
BRANCH  10  13
HETATM   13  C8  UNL     1      56.266  39.533  63.671  1.00  0.00     0.072 C 
BRANCH  13  14
HETATM   14  C9  UNL     1      55.455  40.253  62.621  1.00  0.00    -0.056 A 
HETATM   15  C10 UNL     1      54.652  39.568  61.745  1.00  0.00     0.010 A 
HETATM   16  C11 UNL     1      53.904  40.215  60.784  1.00  0.00     0.043 A 
HETATM   17  C12 UNL     1      53.966  41.596  60.699  1.00  0.00     0.116 A 
HETATM   18  F1  UNL     1      53.249  42.291  59.767  1.00  0.00    -0.206 F 
HETATM   19  C13 UNL     1      54.771  42.319  61.572  1.00  0.00     0.043 A 
HETATM   20  C14 UNL     1      55.507  41.614  62.529  1.00  0.00     0.010 A 
ENDBRANCH  13  14
ENDBRANCH  10  13
ENDBRANCH   9  10
BRANCH   9  21
HETATM   21  N2  UNL     1      55.312  39.463  66.397  1.00  0.00    -0.275 N 
HETATM   22  C15 UNL     1      54.496  40.525  66.260  1.00  0.00     0.202 A 
HETATM   23  N3  UNL     1      54.825  41.476  67.154  1.00  0.00    -0.346 N 
HETATM   24  C16 UNL     1      55.863  40.971  67.843  1.00  0.00     0.198 A 
ATOM     25  H3  UNL     1      54.382  42.385  67.280  1.00  0.00     0.167 HD
HETATM   26  N4  UNL     1      56.140  39.755  67.369  1.00  0.00    -0.292 N 
ATOM     27  H4  UNL     1      56.883  39.146  67.711  1.00  0.00     0.188 HD
ENDBRANCH   9  21
ENDBRANCH   6   9
TORSDOF 6
ENDMDL
