MODEL 5
REMARK VINA RESULT: -8.402209785      1.711      4.795
REMARK  6 active torsions:
REMARK  status: ('A' for Active; 'I' for Inactive)
REMARK    1  A    between atoms: C5_6  and  C6_7 
REMARK    2  A    between atoms: C6_7  and  C7_8 
REMARK    3  A    between atoms: C6_7  and  N2_19 
REMARK    4  A    between atoms: C7_8  and  O1_9 
REMARK    5  A    between atoms: C7_8  and  C8_11 
REMARK    6  A    between atoms: C8_11  and  C9_12 
ROOT
HETATM    1  N1  UNL     1      51.441  34.576  68.387  1.00  0.00    -0.191 NA
HETATM    2  C1  UNL     1      52.114  35.309  67.810  1.00  0.00     0.099 C 
HETATM    3  C2  UNL     1      52.946  36.218  67.097  1.00  0.00     0.044 A 
HETATM    4  C3  UNL     1      54.128  35.849  66.476  1.00  0.00     0.023 A 
HETATM    5  C4  UNL     1      54.928  36.730  65.788  1.00  0.00     0.011 A 
HETATM    6  C5  UNL     1      54.548  38.052  65.704  1.00  0.00    -0.031 A 
HETATM    7  C17 UNL     1      53.370  38.406  66.325  1.00  0.00     0.011 A 
HETATM    8  C18 UNL     1      52.562  37.535  67.016  1.00  0.00     0.023 A 
ENDROOT
BRANCH   6   9
HETATM    9  C6  UNL     1      55.375  39.056  64.983  1.00  0.00     0.171 C 
BRANCH   9  10
HETATM   10  C7  UNL     1      55.158  39.150  63.527  1.00  0.00     0.151 C 
BRANCH  10  11
HETATM   11  O1  UNL     1      55.363  37.890  62.972  1.00  0.00    -0.393 OA
ATOM     12  H1  UNL     1      56.162  37.528  63.338  1.00  0.00     0.210 HD
ENDBRANCH  10  11
BRANCH  10  13
HETATM   13  C8  UNL     1      55.861  40.212  62.775  1.00  0.00     0.072 C 
BRANCH  13  14
HETATM   14  C9  UNL     1      54.804  40.928  61.970  1.00  0.00    -0.056 A 
HETATM   15  C10 UNL     1      54.157  40.308  60.931  1.00  0.00     0.010 A 
HETATM   16  C11 UNL     1      53.188  40.951  60.190  1.00  0.00     0.043 A 
HETATM   17  C12 UNL     1      52.859  42.260  60.501  1.00  0.00     0.116 A 
HETATM   18  F1  UNL     1      51.909  42.947  59.802  1.00  0.00    -0.206 F 
HETATM   19  C13 UNL     1      53.497  42.916  61.547  1.00  0.00     0.043 A 
HETATM   20  C14 UNL     1      54.472  42.218  62.268  1.00  0.00     0.010 A 
ENDBRANCH  13  14
ENDBRANCH  10  13
ENDBRANCH   9  10
BRANCH   9  21
HETATM   21  N2  UNL     1      55.424  40.339  65.680  1.00  0.00    -0.275 N 
HETATM   22  C15 UNL     1      56.433  40.794  66.445  1.00  0.00     0.202 A 
HETATM   23  N3  UNL     1      56.131  42.014  66.925  1.00  0.00    -0.346 N 
HETATM   24  C16 UNL     1      54.911  42.297  66.435  1.00  0.00     0.198 A 
ATOM     25  H3  UNL     1      56.704  42.600  67.532  1.00  0.00     0.167 HD
HETATM   26  N4  UNL     1      54.504  41.271  65.686  1.00  0.00    -0.292 N 
ATOM     27  H4  UNL     1      53.611  41.220  65.194  1.00  0.00     0.188 HD
ENDBRANCH   9  21
ENDBRANCH   6   9
TORSDOF 6
ENDMDL
