MODEL 6
REMARK VINA RESULT: -6.592859856      4.042      6.133
REMARK  5 active torsions:
REMARK  status: ('A' for Active; 'I' for Inactive)
REMARK    1  A    between atoms: C1_2  and  C2_4 
REMARK    2  A    between atoms: C2_4  and  C3_5 
REMARK    3  A    between atoms: C3_5  and  C4_6 
REMARK    4  A    between atoms: C4_6  and  C5_7 
REMARK    5  A    between atoms: C5_7  and  C6_8 
ROOT
HETATM    1  C6  UNL     1      -1.602  11.662   6.202  1.00  0.00     0.072 C 
HETATM    2  S1  UNL     1      -2.806  12.774   7.032  1.00  0.00    -0.160 SA
HETATM    3  C7  UNL     1      -3.160  13.870   5.604  1.00  0.00     0.101 C 
HETATM    4  C8  UNL     1      -2.117  13.448   4.632  1.00  0.00     0.119 C 
HETATM    5  N1  UNL     1      -2.730  13.503   3.297  1.00  0.00    -0.336 N 
ATOM      6  H1  UNL     1      -2.619  14.227   2.588  1.00  0.00     0.164 HD
HETATM    7  C9  UNL     1      -3.512  12.317   3.215  1.00  0.00     0.316 C 
HETATM    8  O3  UNL     1      -4.426  12.133   2.361  1.00  0.00    -0.247 OA
HETATM    9  N2  UNL     1      -3.083  11.409   4.248  1.00  0.00    -0.335 N 
ATOM     10  H2  UNL     1      -3.541  10.546   4.543  1.00  0.00     0.164 HD
HETATM   11  C10 UNL     1      -1.879  11.976   4.773  1.00  0.00     0.123 C 
ENDROOT
BRANCH   1  12
HETATM   12  C5  UNL     1      -1.837  10.243   6.579  1.00  0.00     0.017 C 
BRANCH  12  13
HETATM   13  C4  UNL     1      -0.854   9.864   7.659  1.00  0.00     0.002 C 
BRANCH  13  14
HETATM   14  C3  UNL     1       0.443  10.610   7.557  1.00  0.00     0.010 C 
BRANCH  14  15
HETATM   15  C2  UNL     1       0.784  11.322   8.841  1.00  0.00     0.113 C 
BRANCH  15  16
HETATM   16  C1  UNL     1       1.299  12.683   8.614  1.00  0.00     0.172 C 
HETATM   17  O1  UNL     1       0.550  13.620   8.269  1.00  0.00    -0.648 OA
HETATM   18  O2  UNL     1       2.638  12.937   8.783  1.00  0.00    -0.648 OA
ENDBRANCH  15  16
ENDBRANCH  14  15
ENDBRANCH  13  14
ENDBRANCH  12  13
ENDBRANCH   1  12
TORSDOF 5
ENDMDL
