MODEL 7
REMARK VINA RESULT: -6.432941058      3.062      5.859
REMARK  5 active torsions:
REMARK  status: ('A' for Active; 'I' for Inactive)
REMARK    1  A    between atoms: C1_2  and  C2_4 
REMARK    2  A    between atoms: C2_4  and  C3_5 
REMARK    3  A    between atoms: C3_5  and  C4_6 
REMARK    4  A    between atoms: C4_6  and  C5_7 
REMARK    5  A    between atoms: C5_7  and  C6_8 
ROOT
HETATM    1  C6  UNL     1      -1.955  11.319   7.633  1.00  0.00     0.072 C 
HETATM    2  S1  UNL     1      -3.593  11.525   8.438  1.00  0.00    -0.160 SA
HETATM    3  C7  UNL     1      -4.128  13.031   7.536  1.00  0.00     0.101 C 
HETATM    4  C8  UNL     1      -2.876  13.427   6.838  1.00  0.00     0.119 C 
HETATM    5  N1  UNL     1      -3.269  13.949   5.521  1.00  0.00    -0.336 N 
ATOM      6  H1  UNL     1      -3.340  14.925   5.232  1.00  0.00     0.164 HD
HETATM    7  C9  UNL     1      -3.527  12.789   4.740  1.00  0.00     0.316 C 
HETATM    8  O3  UNL     1      -4.173  12.801   3.653  1.00  0.00    -0.247 OA
HETATM    9  N2  UNL     1      -2.939  11.650   5.397  1.00  0.00    -0.335 N 
ATOM     10  H2  UNL     1      -3.075  10.664   5.168  1.00  0.00     0.164 HD
HETATM   11  C10 UNL     1      -2.124  12.195   6.439  1.00  0.00     0.123 C 
ENDROOT
BRANCH   1  12
HETATM   12  C5  UNL     1      -1.689   9.891   7.318  1.00  0.00     0.017 C 
BRANCH  12  13
HETATM   13  C4  UNL     1      -0.368   9.502   7.933  1.00  0.00     0.002 C 
BRANCH  13  14
HETATM   14  C3  UNL     1       0.707  10.522   7.704  1.00  0.00     0.010 C 
BRANCH  14  15
HETATM   15  C2  UNL     1       0.976  11.343   8.939  1.00  0.00     0.113 C 
BRANCH  15  16
HETATM   16  C1  UNL     1       1.445  12.703   8.624  1.00  0.00     0.172 C 
HETATM   17  O1  UNL     1       2.648  13.021   8.716  1.00  0.00    -0.648 OA
HETATM   18  O2  UNL     1       0.540  13.652   8.216  1.00  0.00    -0.648 OA
ENDBRANCH  15  16
ENDBRANCH  14  15
ENDBRANCH  13  14
ENDBRANCH  12  13
ENDBRANCH   1  12
TORSDOF 5
ENDMDL
