MODEL 1
REMARK VINA RESULT: -8.228886803      0.000      0.000
REMARK  5 active torsions:
REMARK  status: ('A' for Active; 'I' for Inactive)
REMARK    1  A    between atoms: C1_2  and  C2_4 
REMARK    2  A    between atoms: C2_4  and  C3_5 
REMARK    3  A    between atoms: C3_5  and  C4_6 
REMARK    4  A    between atoms: C4_6  and  C5_7 
REMARK    5  A    between atoms: C5_7  and  C6_8 
ROOT
HETATM    1  C6  UNL     1      -2.051  12.037   7.283  1.00  0.00     0.072 C 
HETATM    2  S1  UNL     1      -1.945  10.428   8.163  1.00  0.00    -0.160 SA
HETATM    3  C7  UNL     1      -0.174  10.077   7.830  1.00  0.00     0.101 C 
HETATM    4  C8  UNL     1       0.160  11.126   6.830  1.00  0.00     0.119 C 
HETATM    5  N1  UNL     1       1.534  11.564   7.113  1.00  0.00    -0.336 N 
ATOM      6  H1  UNL     1       2.387  11.300   6.622  1.00  0.00     0.164 HD
HETATM    7  C9  UNL     1       1.406  12.440   8.226  1.00  0.00     0.316 C 
HETATM    8  O3  UNL     1       2.373  12.791   8.962  1.00  0.00    -0.247 OA
HETATM    9  N2  UNL     1       0.024  12.832   8.349  1.00  0.00    -0.335 N 
ATOM     10  H2  UNL     1      -0.411  13.330   9.126  1.00  0.00     0.164 HD
HETATM   11  C10 UNL     1      -0.606  12.373   7.149  1.00  0.00     0.123 C 
ENDROOT
BRANCH   1  12
HETATM   12  C5  UNL     1      -2.844  13.023   8.064  1.00  0.00     0.017 C 
BRANCH  12  13
HETATM   13  C4  UNL     1      -3.425  12.325   9.269  1.00  0.00     0.002 C 
BRANCH  13  14
HETATM   14  C3  UNL     1      -4.533  13.101   9.916  1.00  0.00     0.010 C 
BRANCH  14  15
HETATM   15  C2  UNL     1      -5.796  12.286  10.030  1.00  0.00     0.113 C 
BRANCH  15  16
HETATM   16  C1  UNL     1      -6.756  12.577   8.952  1.00  0.00     0.172 C 
HETATM   17  O1  UNL     1      -6.432  13.238   7.945  1.00  0.00    -0.648 OA
HETATM   18  O2  UNL     1      -8.044  12.110   9.048  1.00  0.00    -0.648 OA
ENDBRANCH  15  16
ENDBRANCH  14  15
ENDBRANCH  13  14
ENDBRANCH  12  13
ENDBRANCH   1  12
TORSDOF 5
ENDMDL
