MODEL 9
REMARK VINA RESULT: -6.398758021      2.348      6.312
REMARK  5 active torsions:
REMARK  status: ('A' for Active; 'I' for Inactive)
REMARK    1  A    between atoms: C1_2  and  C2_4 
REMARK    2  A    between atoms: C2_4  and  C3_5 
REMARK    3  A    between atoms: C3_5  and  C4_6 
REMARK    4  A    between atoms: C4_6  and  C5_7 
REMARK    5  A    between atoms: C5_7  and  C6_8 
ROOT
HETATM    1  C6  UNL     1      -2.541  12.708   7.693  1.00  0.00     0.072 C 
HETATM    2  S1  UNL     1      -2.731  11.092   8.546  1.00  0.00    -0.160 SA
HETATM    3  C7  UNL     1      -4.235  11.496   9.517  1.00  0.00     0.101 C 
HETATM    4  C8  UNL     1      -4.348  12.963   9.302  1.00  0.00     0.119 C 
HETATM    5  N1  UNL     1      -5.782  13.271   9.203  1.00  0.00    -0.336 N 
ATOM      6  H1  UNL     1      -6.387  13.669   9.921  1.00  0.00     0.164 HD
HETATM    7  C9  UNL     1      -6.137  12.889   7.879  1.00  0.00     0.316 C 
HETATM    8  O3  UNL     1      -7.328  12.710   7.493  1.00  0.00    -0.247 OA
HETATM    9  N2  UNL     1      -4.933  12.751   7.100  1.00  0.00    -0.335 N 
ATOM     10  H2  UNL     1      -4.842  12.349   6.166  1.00  0.00     0.164 HD
HETATM   11  C10 UNL     1      -3.892  13.296   7.916  1.00  0.00     0.123 C 
ENDROOT
BRANCH   1  12
HETATM   12  C5  UNL     1      -2.178  12.519   6.264  1.00  0.00     0.017 C 
BRANCH  12  13
HETATM   13  C4  UNL     1      -1.182  11.390   6.167  1.00  0.00     0.002 C 
BRANCH  13  14
HETATM   14  C3  UNL     1       0.238  11.848   6.316  1.00  0.00     0.010 C 
BRANCH  14  15
HETATM   15  C2  UNL     1       0.894  11.255   7.537  1.00  0.00     0.113 C 
BRANCH  15  16
HETATM   16  C1  UNL     1       1.197  12.267   8.563  1.00  0.00     0.172 C 
HETATM   17  O1  UNL     1       0.358  12.602   9.423  1.00  0.00    -0.648 OA
HETATM   18  O2  UNL     1       2.435  12.862   8.581  1.00  0.00    -0.648 OA
ENDBRANCH  15  16
ENDBRANCH  14  15
ENDBRANCH  13  14
ENDBRANCH  12  13
ENDBRANCH   1  12
TORSDOF 5
ENDMDL
