MODEL 2
REMARK VINA RESULT: -9.128871152      1.786      2.996
REMARK  5 active torsions:
REMARK  status: ('A' for Active; 'I' for Inactive)
REMARK    1  A    between atoms: C2_2  and  C3_4 
REMARK    2  A    between atoms: C7_8  and  C8_9 
REMARK    3  A    between atoms: C13_16  and  N2_17 
REMARK    4  A    between atoms: N2_17  and  C14_19 
REMARK    5  A    between atoms: C14_19  and  C15_20 
ROOT
HETATM    1  C8  UNL     1      25.827  49.078   2.492  1.00  0.00     0.084 A 
HETATM    2  C9  UNL     1      25.374  48.131   3.385  1.00  0.00     0.122 A 
HETATM    3  N1  UNL     1      25.180  46.955   2.751  1.00  0.00    -0.349 N 
ATOM      4  H1  UNL     1      24.849  46.084   3.167  1.00  0.00     0.167 HD
HETATM    5  C10 UNL     1      25.509  47.156   1.465  1.00  0.00     0.127 A 
HETATM    6  C11 UNL     1      25.496  46.293   0.391  1.00  0.00     0.054 A 
HETATM    7  C12 UNL     1      25.894  46.791  -0.830  1.00  0.00     0.053 A 
HETATM    8  C13 UNL     1      26.292  48.109  -0.983  1.00  0.00     0.116 A 
HETATM    9  N3  UNL     1      26.277  48.884   0.112  1.00  0.00    -0.277 N 
ATOM     10  H3  UNL     1      26.569  49.856   0.016  1.00  0.00     0.189 HD
HETATM   11  N4  UNL     1      25.906  48.460   1.307  1.00  0.00    -0.236 N 
ENDROOT
BRANCH   1  12
HETATM   12  C7  UNL     1      26.149  50.466   2.792  1.00  0.00    -0.005 A 
HETATM   13  C6  UNL     1      26.016  51.048   4.034  1.00  0.00     0.014 A 
HETATM   14  C5  UNL     1      26.337  52.376   4.275  1.00  0.00     0.002 A 
HETATM   15  C4  UNL     1      26.807  53.169   3.258  1.00  0.00     0.015 A 
HETATM   16  C3  UNL     1      26.958  52.635   1.998  1.00  0.00     0.010 A 
HETATM   17  C18 UNL     1      26.633  51.315   1.788  1.00  0.00     0.029 A 
BRANCH  16  18
HETATM   18  C2  UNL     1      27.459  53.456   0.891  1.00  0.00     0.155 C 
HETATM   19  C1  UNL     1      27.436  53.005  -0.518  1.00  0.00     0.096 C 
HETATM   20  O1  UNL     1      27.932  54.593   1.136  1.00  0.00    -0.293 OA
ENDBRANCH  16  18
ENDBRANCH   1  12
BRANCH   8  21
HETATM   21  N2  UNL     1      26.699  48.596  -2.261  1.00  0.00    -0.375 N 
ATOM     22  H2  UNL     1      27.678  48.533  -2.540  1.00  0.00     0.161 HD
BRANCH  21  23
HETATM   23  C14 UNL     1      25.740  49.171  -3.154  1.00  0.00     0.126 C 
BRANCH  23  24
HETATM   24  C15 UNL     1      25.560  50.647  -2.867  1.00  0.00     0.003 A 
HETATM   25  C16 UNL     1      25.409  51.513  -4.117  1.00  0.00     0.007 A 
HETATM   26  C17 UNL     1      24.270  51.281  -3.196  1.00  0.00     0.007 A 
ENDBRANCH  23  24
ENDBRANCH  21  23
ENDBRANCH   8  21
TORSDOF 5
ENDMDL
