MODEL 1
REMARK VINA RESULT: -9.151192842      0.000      0.000
REMARK  5 active torsions:
REMARK  status: ('A' for Active; 'I' for Inactive)
REMARK    1  A    between atoms: C2_2  and  C3_4 
REMARK    2  A    between atoms: C7_8  and  C8_9 
REMARK    3  A    between atoms: C13_16  and  N2_17 
REMARK    4  A    between atoms: N2_17  and  C14_19 
REMARK    5  A    between atoms: C14_19  and  C15_20 
ROOT
HETATM    1  C8  UNL     1      25.914  48.768   0.061  1.00  0.00     0.084 A 
HETATM    2  C9  UNL     1      26.153  47.417  -0.069  1.00  0.00     0.122 A 
HETATM    3  N1  UNL     1      25.922  47.029  -1.342  1.00  0.00    -0.349 N 
ATOM      4  H1  UNL     1      26.019  46.086  -1.720  1.00  0.00     0.167 HD
HETATM    5  C10 UNL     1      25.541  48.128  -2.013  1.00  0.00     0.127 A 
HETATM    6  C11 UNL     1      25.189  48.293  -3.334  1.00  0.00     0.054 A 
HETATM    7  C12 UNL     1      24.837  49.561  -3.745  1.00  0.00     0.053 A 
HETATM    8  C13 UNL     1      24.834  50.634  -2.869  1.00  0.00     0.116 A 
HETATM    9  N3  UNL     1      25.190  50.389  -1.599  1.00  0.00    -0.277 N 
ATOM     10  H3  UNL     1      25.193  51.168  -0.943  1.00  0.00     0.189 HD
HETATM   11  N4  UNL     1      25.536  49.195  -1.150  1.00  0.00    -0.236 N 
ENDROOT
BRANCH   1  12
HETATM   12  C7  UNL     1      26.050  49.558   1.278  1.00  0.00    -0.005 A 
HETATM   13  C6  UNL     1      25.798  49.086   2.547  1.00  0.00     0.014 A 
HETATM   14  C5  UNL     1      25.941  49.874   3.679  1.00  0.00     0.002 A 
HETATM   15  C4  UNL     1      26.348  51.181   3.565  1.00  0.00     0.015 A 
HETATM   16  C3  UNL     1      26.612  51.700   2.318  1.00  0.00     0.010 A 
HETATM   17  C18 UNL     1      26.462  50.895   1.213  1.00  0.00     0.029 A 
BRANCH  16  18
HETATM   18  C2  UNL     1      27.049  53.091   2.164  1.00  0.00     0.155 C 
HETATM   19  C1  UNL     1      27.703  53.596   0.936  1.00  0.00     0.096 C 
HETATM   20  O1  UNL     1      26.867  53.900   3.106  1.00  0.00    -0.293 OA
ENDBRANCH  16  18
ENDBRANCH   1  12
BRANCH   8  21
HETATM   21  N2  UNL     1      24.464  51.935  -3.324  1.00  0.00    -0.375 N 
ATOM     22  H2  UNL     1      23.596  52.359  -2.998  1.00  0.00     0.161 HD
BRANCH  21  23
HETATM   23  C14 UNL     1      25.305  52.647  -4.236  1.00  0.00     0.126 C 
BRANCH  23  24
HETATM   24  C15 UNL     1      26.272  53.540  -3.487  1.00  0.00     0.003 A 
HETATM   25  C16 UNL     1      25.901  55.022  -3.510  1.00  0.00     0.007 A 
HETATM   26  C17 UNL     1      25.807  54.222  -2.265  1.00  0.00     0.007 A 
ENDBRANCH  23  24
ENDBRANCH  21  23
ENDBRANCH   8  21
TORSDOF 5
ENDMDL
