MODEL 3
REMARK VINA RESULT: -9.107518663      1.952      2.949
REMARK  5 active torsions:
REMARK  status: ('A' for Active; 'I' for Inactive)
REMARK    1  A    between atoms: C2_2  and  C3_4 
REMARK    2  A    between atoms: C7_8  and  C8_9 
REMARK    3  A    between atoms: C13_16  and  N2_17 
REMARK    4  A    between atoms: N2_17  and  C14_19 
REMARK    5  A    between atoms: C14_19  and  C15_20 
ROOT
HETATM    1  C8  UNL     1      25.887  48.906   2.326  1.00  0.00     0.084 A 
HETATM    2  C9  UNL     1      25.744  47.846   3.196  1.00  0.00     0.122 A 
HETATM    3  N1  UNL     1      25.496  46.713   2.504  1.00  0.00    -0.349 N 
ATOM      4  H1  UNL     1      25.347  45.781   2.891  1.00  0.00     0.167 HD
HETATM    5  C10 UNL     1      25.483  47.054   1.205  1.00  0.00     0.127 A 
HETATM    6  C11 UNL     1      25.277  46.287   0.080  1.00  0.00     0.054 A 
HETATM    7  C12 UNL     1      25.324  46.924  -1.142  1.00  0.00     0.053 A 
HETATM    8  C13 UNL     1      25.566  48.284  -1.243  1.00  0.00     0.116 A 
HETATM    9  N3  UNL     1      25.756  48.959  -0.100  1.00  0.00    -0.277 N 
ATOM     10  H3  UNL     1      25.937  49.961  -0.158  1.00  0.00     0.189 HD
HETATM   11  N4  UNL     1      25.723  48.401   1.098  1.00  0.00    -0.236 N 
ENDROOT
BRANCH   1  12
HETATM   12  C7  UNL     1      26.161  50.290   2.688  1.00  0.00    -0.005 A 
HETATM   13  C6  UNL     1      25.987  50.817   3.948  1.00  0.00     0.014 A 
HETATM   14  C5  UNL     1      26.262  52.144   4.248  1.00  0.00     0.002 A 
HETATM   15  C4  UNL     1      26.726  52.991   3.272  1.00  0.00     0.015 A 
HETATM   16  C3  UNL     1      26.917  52.512   1.996  1.00  0.00     0.010 A 
HETATM   17  C18 UNL     1      26.637  51.193   1.727  1.00  0.00     0.029 A 
BRANCH  16  18
HETATM   18  C2  UNL     1      27.413  53.392   0.932  1.00  0.00     0.155 C 
HETATM   19  C1  UNL     1      27.387  53.016  -0.498  1.00  0.00     0.096 C 
HETATM   20  O1  UNL     1      27.883  54.517   1.235  1.00  0.00    -0.293 OA
ENDBRANCH  16  18
ENDBRANCH   1  12
BRANCH   8  21
HETATM   21  N2  UNL     1      25.607  48.915  -2.522  1.00  0.00    -0.375 N 
ATOM     22  H2  UNL     1      25.121  48.492  -3.313  1.00  0.00     0.161 HD
BRANCH  21  23
HETATM   23  C14 UNL     1      26.328  50.138  -2.702  1.00  0.00     0.126 C 
BRANCH  23  24
HETATM   24  C15 UNL     1      27.657  49.882  -3.380  1.00  0.00     0.003 A 
HETATM   25  C16 UNL     1      28.344  51.142  -3.905  1.00  0.00     0.007 A 
HETATM   26  C17 UNL     1      28.887  50.393  -2.747  1.00  0.00     0.007 A 
ENDBRANCH  23  24
ENDBRANCH  21  23
ENDBRANCH   8  21
TORSDOF 5
ENDMDL
