MODEL 3
REMARK VINA RESULT: -7.987765694      2.486      3.989
REMARK  1 active torsions:
REMARK  status: ('A' for Active; 'I' for Inactive)
REMARK    1  A    between atoms: C5_7  and  C6_8 
ROOT
HETATM    1  C1  UNL     1      11.176  -3.208  12.368  1.00  0.00     0.002 A 
HETATM    2  C2  UNL     1      11.462  -3.957  13.503  1.00  0.00     0.002 A 
HETATM    3  C3  UNL     1      12.742  -4.388  13.776  1.00  0.00     0.032 A 
HETATM    4  C4  UNL     1      13.792  -4.094  12.933  1.00  0.00     0.060 A 
HETATM    5  N1  UNL     1      15.110  -4.351  12.905  1.00  0.00    -0.339 N 
ATOM      6  H1  UNL     1      15.632  -4.882  13.602  1.00  0.00     0.167 HD
HETATM    7  C5  UNL     1      15.624  -3.786  11.798  1.00  0.00     0.136 A 
HETATM    8  N4  UNL     1      14.656  -3.177  11.128  1.00  0.00    -0.339 N 
ATOM      9  H4  UNL     1      14.768  -2.668  10.251  1.00  0.00     0.167 HD
HETATM   10  C13 UNL     1      13.506  -3.345  11.797  1.00  0.00     0.060 A 
HETATM   11  C14 UNL     1      12.227  -2.915  11.526  1.00  0.00     0.032 A 
ENDROOT
BRANCH   7  12
HETATM   12  C6  UNL     1      17.058  -3.878  11.459  1.00  0.00     0.104 A 
HETATM   13  N2  UNL     1      17.971  -4.726  11.910  1.00  0.00    -0.296 N 
HETATM   14  N3  UNL     1      19.150  -4.521  11.394  1.00  0.00    -0.299 N 
ATOM     15  H2  UNL     1      17.773  -5.460  12.588  1.00  0.00     0.187 HD
HETATM   16  C7  UNL     1      19.017  -3.479  10.555  1.00  0.00     0.060 A 
ATOM     17  H3  UNL     1      20.003  -5.045  11.588  1.00  0.00     0.187 HD
HETATM   18  C8  UNL     1      19.904  -2.807   9.731  1.00  0.00     0.032 A 
HETATM   19  C12 UNL     1      17.707  -3.042  10.566  1.00  0.00     0.024 A 
HETATM   20  C9  UNL     1      19.530  -1.742   8.941  1.00  0.00     0.002 A 
HETATM   21  C10 UNL     1      18.214  -1.346   8.989  1.00  0.00     0.001 A 
HETATM   22  C11 UNL     1      17.311  -1.988   9.793  1.00  0.00     0.016 A 
ENDBRANCH   7  12
TORSDOF 1
ENDMDL
