MODEL 1
REMARK VINA RESULT: -8.185493022      0.000      0.000
REMARK  1 active torsions:
REMARK  status: ('A' for Active; 'I' for Inactive)
REMARK    1  A    between atoms: C5_7  and  C6_8 
ROOT
HETATM    1  C1  UNL     1       8.653   0.001  13.559  1.00  0.00     0.002 A 
HETATM    2  C2  UNL     1       8.033  -1.192  13.911  1.00  0.00     0.002 A 
HETATM    3  C3  UNL     1       8.694  -2.398  13.820  1.00  0.00     0.032 A 
HETATM    4  C4  UNL     1       9.997  -2.470  13.376  1.00  0.00     0.060 A 
HETATM    5  N1  UNL     1      10.897  -3.446  13.175  1.00  0.00    -0.339 N 
ATOM      6  H1  UNL     1      10.748  -4.442  13.340  1.00  0.00     0.167 HD
HETATM    7  C5  UNL     1      12.029  -2.884  12.717  1.00  0.00     0.136 A 
HETATM    8  N4  UNL     1      11.862  -1.574  12.626  1.00  0.00    -0.339 N 
ATOM      9  H4  UNL     1      12.562  -0.904  12.307  1.00  0.00     0.167 HD
HETATM   10  C13 UNL     1      10.616  -1.276  13.025  1.00  0.00     0.060 A 
HETATM   11  C14 UNL     1       9.955  -0.073  13.116  1.00  0.00     0.032 A 
ENDROOT
BRANCH   7  12
HETATM   12  C6  UNL     1      13.229  -3.682  12.392  1.00  0.00     0.104 A 
HETATM   13  N2  UNL     1      13.638  -4.829  12.914  1.00  0.00    -0.296 N 
HETATM   14  N3  UNL     1      14.751  -5.257  12.387  1.00  0.00    -0.299 N 
ATOM     15  H2  UNL     1      13.136  -5.324  13.651  1.00  0.00     0.187 HD
HETATM   16  C7  UNL     1      15.103  -4.345  11.464  1.00  0.00     0.060 A 
ATOM     17  H3  UNL     1      15.253  -6.112  12.627  1.00  0.00     0.187 HD
HETATM   18  C8  UNL     1      16.173  -4.247  10.590  1.00  0.00     0.032 A 
HETATM   19  C12 UNL     1      14.166  -3.331  11.435  1.00  0.00     0.024 A 
HETATM   20  C9  UNL     1      16.328  -3.196   9.713  1.00  0.00     0.002 A 
HETATM   21  C10 UNL     1      15.367  -2.212   9.724  1.00  0.00     0.001 A 
HETATM   22  C11 UNL     1      14.297  -2.278  10.576  1.00  0.00     0.016 A 
ENDBRANCH   7  12
TORSDOF 1
ENDMDL
