MODEL 2
REMARK VINA RESULT: -8.053668667      2.987      4.797
REMARK  1 active torsions:
REMARK  status: ('A' for Active; 'I' for Inactive)
REMARK    1  A    between atoms: C5_7  and  C6_8 
ROOT
HETATM    1  C1  UNL     1      12.290  -4.719  13.117  1.00  0.00     0.002 A 
HETATM    2  C2  UNL     1      11.405  -3.969  12.351  1.00  0.00     0.002 A 
HETATM    3  C3  UNL     1      11.854  -3.088  11.391  1.00  0.00     0.032 A 
HETATM    4  C4  UNL     1      13.201  -2.915  11.151  1.00  0.00     0.060 A 
HETATM    5  N1  UNL     1      13.946  -2.166  10.321  1.00  0.00    -0.339 N 
ATOM      6  H1  UNL     1      13.591  -1.506   9.630  1.00  0.00     0.167 HD
HETATM    7  C5  UNL     1      15.240  -2.439  10.560  1.00  0.00     0.136 A 
HETATM    8  N4  UNL     1      15.327  -3.344  11.523  1.00  0.00    -0.339 N 
ATOM      9  H4  UNL     1      16.191  -3.732  11.901  1.00  0.00     0.167 HD
HETATM   10  C13 UNL     1      14.085  -3.666  11.917  1.00  0.00     0.060 A 
HETATM   11  C14 UNL     1      13.635  -4.544  12.875  1.00  0.00     0.032 A 
ENDROOT
BRANCH   7  12
HETATM   12  C6  UNL     1      16.334  -1.783   9.815  1.00  0.00     0.104 A 
HETATM   13  N2  UNL     1      16.307  -0.670   9.097  1.00  0.00    -0.296 N 
HETATM   14  N3  UNL     1      17.463  -0.378   8.572  1.00  0.00    -0.299 N 
ATOM     15  H2  UNL     1      15.470  -0.101   8.970  1.00  0.00     0.187 HD
HETATM   16  C7  UNL     1      18.307  -1.351   8.959  1.00  0.00     0.060 A 
ATOM     17  H3  UNL     1      17.683   0.426   7.985  1.00  0.00     0.187 HD
HETATM   18  C8  UNL     1      19.651  -1.588   8.723  1.00  0.00     0.032 A 
HETATM   19  C12 UNL     1      17.632  -2.260   9.748  1.00  0.00     0.024 A 
HETATM   20  C9  UNL     1      20.319  -2.677   9.238  1.00  0.00     0.002 A 
HETATM   21  C10 UNL     1      19.601  -3.553  10.017  1.00  0.00     0.001 A 
HETATM   22  C11 UNL     1      18.271  -3.349  10.270  1.00  0.00     0.016 A 
ENDBRANCH   7  12
TORSDOF 1
ENDMDL
