MODEL 17
REMARK VINA RESULT: -7.703398271      3.528      8.148
REMARK  1 active torsions:
REMARK  status: ('A' for Active; 'I' for Inactive)
REMARK    1  A    between atoms: C5_7  and  C6_8 
ROOT
HETATM    1  C1  UNL     1      21.263  -3.208   9.222  1.00  0.00     0.002 A 
HETATM    2  C2  UNL     1      21.380  -2.134   8.347  1.00  0.00     0.002 A 
HETATM    3  C3  UNL     1      20.312  -1.305   8.081  1.00  0.00     0.032 A 
HETATM    4  C4  UNL     1      19.083  -1.508   8.672  1.00  0.00     0.060 A 
HETATM    5  N1  UNL     1      17.881  -0.910   8.632  1.00  0.00    -0.339 N 
ATOM      6  H1  UNL     1      17.640  -0.088   8.079  1.00  0.00     0.167 HD
HETATM    7  C5  UNL     1      17.051  -1.583   9.447  1.00  0.00     0.136 A 
HETATM    8  N4  UNL     1      17.705  -2.593  10.001  1.00  0.00    -0.339 N 
ATOM      9  H4  UNL     1      17.314  -3.265  10.662  1.00  0.00     0.167 HD
HETATM   10  C13 UNL     1      18.967  -2.582   9.547  1.00  0.00     0.060 A 
HETATM   11  C14 UNL     1      20.034  -3.408   9.812  1.00  0.00     0.032 A 
ENDROOT
BRANCH   7  12
HETATM   12  C6  UNL     1      15.640  -1.187   9.638  1.00  0.00     0.104 A 
HETATM   13  N2  UNL     1      15.009  -0.106   9.203  1.00  0.00    -0.296 N 
HETATM   14  N3  UNL     1      13.756  -0.076   9.557  1.00  0.00    -0.299 N 
ATOM     15  H2  UNL     1      15.457   0.624   8.650  1.00  0.00     0.187 HD
HETATM   16  C7  UNL     1      13.539  -1.197  10.267  1.00  0.00     0.060 A 
ATOM     17  H3  UNL     1      13.075   0.652   9.339  1.00  0.00     0.187 HD
HETATM   18  C8  UNL     1      12.422  -1.717  10.899  1.00  0.00     0.032 A 
HETATM   19  C12 UNL     1      14.707  -1.929  10.342  1.00  0.00     0.024 A 
HETATM   20  C9  UNL     1      12.438  -2.913  11.583  1.00  0.00     0.002 A 
HETATM   21  C10 UNL     1      13.627  -3.602  11.627  1.00  0.00     0.001 A 
HETATM   22  C11 UNL     1      14.751  -3.117  11.014  1.00  0.00     0.016 A 
ENDBRANCH   7  12
TORSDOF 1
ENDMDL
