MODEL 4
REMARK VINA RESULT: -6.755558335      4.142      9.345
REMARK  16 active torsions:
REMARK  status: ('A' for Active; 'I' for Inactive)
REMARK    1  A    between atoms: C2_2  and  C3_3 
REMARK    2  A    between atoms: C3_3  and  C4_4 
REMARK    3  A    between atoms: C4_4  and  C5_5 
REMARK    4  A    between atoms: C5_5  and  C6_6 
REMARK    5  A    between atoms: C6_6  and  S1_7 
REMARK    6  A    between atoms: S1_7  and  C7_8 
REMARK    7  A    between atoms: C7_8  and  C8_9 
REMARK    8  A    between atoms: C8_9  and  N1_10 
REMARK    9  A    between atoms: C8_9  and  C14_24 
REMARK       I    between atoms: N1_10  and  C9_12 
REMARK   10  A    between atoms: C9_12  and  C10_14 
REMARK   11  A    between atoms: C10_14  and  C11_15 
REMARK   12  A    between atoms: C11_15  and  C12_16 
REMARK   13  A    between atoms: C12_16  and  N2_17 
REMARK   14  A    between atoms: C12_16  and  C13_21 
REMARK       I    between atoms: C14_24  and  N3_26 
REMARK   15  A    between atoms: N3_26  and  C15_28 
REMARK   16  A    between atoms: C15_28  and  C16_29 
ROOT
HETATM    1  C8  UNL     1     -10.984  28.248  -3.959  1.00  0.00     0.185 C 
ENDROOT
BRANCH   1   2
HETATM    2  C7  UNL     1     -11.921  27.233  -4.539  1.00  0.00     0.108 C 
BRANCH   2   3
HETATM    3  S1  UNL     1     -13.449  27.271  -3.559  1.00  0.00    -0.167 SA
BRANCH   3   4
HETATM    4  C6  UNL     1     -13.203  28.184  -2.020  1.00  0.00     0.074 C 
BRANCH   4   5
HETATM    5  C5  UNL     1     -14.512  28.938  -1.757  1.00  0.00     0.010 C 
BRANCH   5   6
HETATM    6  C4  UNL     1     -14.954  28.510  -0.373  1.00  0.00     0.001 C 
BRANCH   6   7
HETATM    7  C3  UNL     1     -16.265  27.781  -0.497  1.00  0.00    -0.000 C 
BRANCH   7   8
HETATM    8  C2  UNL     1     -17.085  28.428  -1.599  1.00  0.00    -0.005 C 
HETATM    9  C1  UNL     1     -18.277  29.097  -0.919  1.00  0.00     0.005 C 
ENDBRANCH   7   8
ENDBRANCH   6   7
ENDBRANCH   5   6
ENDBRANCH   4   5
ENDBRANCH   3   4
ENDBRANCH   2   3
ENDBRANCH   1   2
BRANCH   1  10
HETATM   10  N1  UNL     1     -10.792  29.264  -4.982  1.00  0.00    -0.347 N 
HETATM   11  C9  UNL     1     -11.362  30.556  -4.943  1.00  0.00     0.218 C 
HETATM   12  O1  UNL     1     -12.085  30.855  -3.959  1.00  0.00    -0.274 OA
ATOM     13  H1  UNL     1     -10.207  29.027  -5.783  1.00  0.00     0.163 HD
BRANCH  11  14
HETATM   14  C10 UNL     1     -11.110  31.543  -6.048  1.00  0.00     0.105 C 
BRANCH  14  15
HETATM   15  C11 UNL     1     -10.476  30.795  -7.189  1.00  0.00     0.053 C 
BRANCH  15  16
HETATM   16  C12 UNL     1      -9.109  31.411  -7.479  1.00  0.00     0.283 C 
BRANCH  16  17
HETATM   17  N2  UNL     1      -9.021  31.816  -8.866  1.00  0.00    -0.065 N 
ATOM     18  H23 UNL     1      -9.940  32.014  -9.263  1.00  0.00     0.275 HD
ATOM     19  H22 UNL     1      -8.611  32.745  -8.965  1.00  0.00     0.275 HD
ATOM     20  H21 UNL     1      -8.515  31.117  -9.410  1.00  0.00     0.275 HD
ENDBRANCH  16  17
BRANCH  16  21
HETATM   21  C13 UNL     1      -8.059  30.444  -7.118  1.00  0.00     0.204 C 
HETATM   22  O2  UNL     1      -7.306  29.911  -7.958  1.00  0.00    -0.646 OA
HETATM   23  O3  UNL     1      -7.901  30.112  -5.766  1.00  0.00    -0.646 OA
ENDBRANCH  16  21
ENDBRANCH  15  16
ENDBRANCH  14  15
ENDBRANCH  11  14
ENDBRANCH   1  10
BRANCH   1  24
HETATM   24  C14 UNL     1      -9.692  27.737  -3.544  1.00  0.00     0.241 C 
HETATM   25  O4  UNL     1      -9.602  26.538  -3.175  1.00  0.00    -0.271 OA
HETATM   26  N3  UNL     1      -8.483  28.482  -3.516  1.00  0.00    -0.349 N 
ATOM     27  H3  UNL     1      -8.490  29.460  -3.805  1.00  0.00     0.163 HD
BRANCH  26  28
HETATM   28  C15 UNL     1      -7.241  27.872  -3.082  1.00  0.00     0.235 C 
BRANCH  28  29
HETATM   29  C16 UNL     1      -6.362  28.872  -2.408  1.00  0.00     0.191 C 
HETATM   30  O5  UNL     1      -6.287  30.041  -2.847  1.00  0.00    -0.647 OA
HETATM   31  O6  UNL     1      -5.621  28.534  -1.299  1.00  0.00    -0.647 OA
ENDBRANCH  28  29
ENDBRANCH  26  28
ENDBRANCH   1  24
TORSDOF 16
ENDMDL
