MODEL 3
REMARK VINA RESULT: -6.761679993      4.367      6.931
REMARK  16 active torsions:
REMARK  status: ('A' for Active; 'I' for Inactive)
REMARK    1  A    between atoms: C2_2  and  C3_3 
REMARK    2  A    between atoms: C3_3  and  C4_4 
REMARK    3  A    between atoms: C4_4  and  C5_5 
REMARK    4  A    between atoms: C5_5  and  C6_6 
REMARK    5  A    between atoms: C6_6  and  S1_7 
REMARK    6  A    between atoms: S1_7  and  C7_8 
REMARK    7  A    between atoms: C7_8  and  C8_9 
REMARK    8  A    between atoms: C8_9  and  N1_10 
REMARK    9  A    between atoms: C8_9  and  C14_24 
REMARK       I    between atoms: N1_10  and  C9_12 
REMARK   10  A    between atoms: C9_12  and  C10_14 
REMARK   11  A    between atoms: C10_14  and  C11_15 
REMARK   12  A    between atoms: C11_15  and  C12_16 
REMARK   13  A    between atoms: C12_16  and  N2_17 
REMARK   14  A    between atoms: C12_16  and  C13_21 
REMARK       I    between atoms: C14_24  and  N3_26 
REMARK   15  A    between atoms: N3_26  and  C15_28 
REMARK   16  A    between atoms: C15_28  and  C16_29 
ROOT
HETATM    1  C8  UNL     1     -10.165  30.469  -3.658  1.00  0.00     0.185 C 
ENDROOT
BRANCH   1   2
HETATM    2  C7  UNL     1      -9.664  30.507  -5.069  1.00  0.00     0.108 C 
BRANCH   2   3
HETATM    3  S1  UNL     1      -9.081  32.195  -5.400  1.00  0.00    -0.167 SA
BRANCH   3   4
HETATM    4  C6  UNL     1      -7.286  32.300  -5.232  1.00  0.00     0.074 C 
BRANCH   4   5
HETATM    5  C5  UNL     1      -6.727  30.988  -5.795  1.00  0.00     0.010 C 
BRANCH   5   6
HETATM    6  C4  UNL     1      -6.424  31.269  -7.252  1.00  0.00     0.001 C 
BRANCH   6   7
HETATM    7  C3  UNL     1      -7.186  30.282  -8.095  1.00  0.00    -0.000 C 
BRANCH   7   8
HETATM    8  C2  UNL     1      -6.619  30.298  -9.504  1.00  0.00    -0.005 C 
HETATM    9  C1  UNL     1      -6.702  31.743  -9.991  1.00  0.00     0.005 C 
ENDBRANCH   7   8
ENDBRANCH   6   7
ENDBRANCH   5   6
ENDBRANCH   4   5
ENDBRANCH   3   4
ENDBRANCH   2   3
ENDBRANCH   1   2
BRANCH   1  10
HETATM   10  N1  UNL     1      -9.005  30.229  -2.814  1.00  0.00    -0.347 N 
HETATM   11  C9  UNL     1      -8.638  31.033  -1.712  1.00  0.00     0.218 C 
HETATM   12  O1  UNL     1      -9.360  32.023  -1.435  1.00  0.00    -0.274 OA
ATOM     13  H1  UNL     1      -8.416  29.426  -3.033  1.00  0.00     0.163 HD
BRANCH  11  14
HETATM   14  C10 UNL     1      -7.418  30.709  -0.895  1.00  0.00     0.105 C 
BRANCH  14  15
HETATM   15  C11 UNL     1      -6.412  30.071  -1.814  1.00  0.00     0.053 C 
BRANCH  15  16
HETATM   16  C12 UNL     1      -5.300  29.454  -0.970  1.00  0.00     0.283 C 
BRANCH  16  17
HETATM   17  N2  UNL     1      -5.826  28.986   0.295  1.00  0.00    -0.065 N 
ATOM     18  H23 UNL     1      -6.273  28.073   0.207  1.00  0.00     0.275 HD
ATOM     19  H22 UNL     1      -5.082  28.729   0.944  1.00  0.00     0.275 HD
ATOM     20  H21 UNL     1      -6.457  29.680   0.697  1.00  0.00     0.275 HD
ENDBRANCH  16  17
BRANCH  16  21
HETATM   21  C13 UNL     1      -4.226  30.445  -0.789  1.00  0.00     0.204 C 
HETATM   22  O2  UNL     1      -3.875  30.873   0.329  1.00  0.00    -0.646 OA
HETATM   23  O3  UNL     1      -3.570  30.925  -1.930  1.00  0.00    -0.646 OA
ENDBRANCH  16  21
ENDBRANCH  15  16
ENDBRANCH  14  15
ENDBRANCH  11  14
ENDBRANCH   1  10
BRANCH   1  24
HETATM   24  C14 UNL     1     -11.173  29.462  -3.383  1.00  0.00     0.241 C 
HETATM   25  O4  UNL     1     -12.378  29.813  -3.303  1.00  0.00    -0.271 OA
HETATM   26  N3  UNL     1     -10.921  28.077  -3.191  1.00  0.00    -0.349 N 
ATOM     27  H3  UNL     1      -9.964  27.729  -3.244  1.00  0.00     0.163 HD
BRANCH  26  28
HETATM   28  C15 UNL     1     -12.005  27.152  -2.921  1.00  0.00     0.235 C 
BRANCH  28  29
HETATM   29  C16 UNL     1     -12.130  26.143  -4.013  1.00  0.00     0.191 C 
HETATM   30  O5  UNL     1     -11.120  25.530  -4.423  1.00  0.00    -0.647 OA
HETATM   31  O6  UNL     1     -13.349  25.866  -4.588  1.00  0.00    -0.647 OA
ENDBRANCH  28  29
ENDBRANCH  26  28
ENDBRANCH   1  24
TORSDOF 16
ENDMDL
