MODEL 2
REMARK VINA RESULT: -6.840840168      4.966      7.353
REMARK  16 active torsions:
REMARK  status: ('A' for Active; 'I' for Inactive)
REMARK    1  A    between atoms: C2_2  and  C3_3 
REMARK    2  A    between atoms: C3_3  and  C4_4 
REMARK    3  A    between atoms: C4_4  and  C5_5 
REMARK    4  A    between atoms: C5_5  and  C6_6 
REMARK    5  A    between atoms: C6_6  and  S1_7 
REMARK    6  A    between atoms: S1_7  and  C7_8 
REMARK    7  A    between atoms: C7_8  and  C8_9 
REMARK    8  A    between atoms: C8_9  and  N1_10 
REMARK    9  A    between atoms: C8_9  and  C14_24 
REMARK       I    between atoms: N1_10  and  C9_12 
REMARK   10  A    between atoms: C9_12  and  C10_14 
REMARK   11  A    between atoms: C10_14  and  C11_15 
REMARK   12  A    between atoms: C11_15  and  C12_16 
REMARK   13  A    between atoms: C12_16  and  N2_17 
REMARK   14  A    between atoms: C12_16  and  C13_21 
REMARK       I    between atoms: C14_24  and  N3_26 
REMARK   15  A    between atoms: N3_26  and  C15_28 
REMARK   16  A    between atoms: C15_28  and  C16_29 
ROOT
HETATM    1  C8  UNL     1      -9.783  30.053  -3.935  1.00  0.00     0.185 C 
ENDROOT
BRANCH   1   2
HETATM    2  C7  UNL     1      -9.571  30.228  -5.408  1.00  0.00     0.108 C 
BRANCH   2   3
HETATM    3  S1  UNL     1      -7.803  29.991  -5.743  1.00  0.00    -0.167 SA
BRANCH   3   4
HETATM    4  C6  UNL     1      -7.392  30.509  -7.423  1.00  0.00     0.074 C 
BRANCH   4   5
HETATM    5  C5  UNL     1      -6.241  31.514  -7.291  1.00  0.00     0.010 C 
BRANCH   5   6
HETATM    6  C4  UNL     1      -5.903  31.549  -5.815  1.00  0.00     0.001 C 
BRANCH   6   7
HETATM    7  C3  UNL     1      -4.784  32.535  -5.608  1.00  0.00    -0.000 C 
BRANCH   7   8
HETATM    8  C2  UNL     1      -4.435  32.578  -4.131  1.00  0.00    -0.005 C 
HETATM    9  C1  UNL     1      -3.315  33.606  -3.978  1.00  0.00     0.005 C 
ENDBRANCH   7   8
ENDBRANCH   6   7
ENDBRANCH   5   6
ENDBRANCH   4   5
ENDBRANCH   3   4
ENDBRANCH   2   3
ENDBRANCH   1   2
BRANCH   1  10
HETATM   10  N1  UNL     1      -8.500  30.313  -3.301  1.00  0.00    -0.347 N 
HETATM   11  C9  UNL     1      -8.329  31.088  -2.132  1.00  0.00     0.218 C 
HETATM   12  O1  UNL     1      -9.351  31.589  -1.599  1.00  0.00    -0.274 OA
ATOM     13  H1  UNL     1      -7.668  29.909  -3.729  1.00  0.00     0.163 HD
BRANCH  11  14
HETATM   14  C10 UNL     1      -6.963  31.306  -1.545  1.00  0.00     0.105 C 
BRANCH  14  15
HETATM   15  C11 UNL     1      -6.124  30.104  -1.889  1.00  0.00     0.053 C 
BRANCH  15  16
HETATM   16  C12 UNL     1      -5.383  29.650  -0.634  1.00  0.00     0.283 C 
BRANCH  16  17
HETATM   17  N2  UNL     1      -6.226  29.802   0.534  1.00  0.00    -0.065 N 
ATOM     18  H23 UNL     1      -7.187  30.034   0.281  1.00  0.00     0.275 HD
ATOM     19  H22 UNL     1      -6.401  28.910   0.995  1.00  0.00     0.275 HD
ATOM     20  H21 UNL     1      -5.825  30.488   1.174  1.00  0.00     0.275 HD
ENDBRANCH  16  17
BRANCH  16  21
HETATM   21  C13 UNL     1      -4.129  30.411  -0.513  1.00  0.00     0.204 C 
HETATM   22  O2  UNL     1      -3.810  31.040   0.516  1.00  0.00    -0.646 OA
HETATM   23  O3  UNL     1      -3.255  30.423  -1.608  1.00  0.00    -0.646 OA
ENDBRANCH  16  21
ENDBRANCH  15  16
ENDBRANCH  14  15
ENDBRANCH  11  14
ENDBRANCH   1  10
BRANCH   1  24
HETATM   24  C14 UNL     1     -10.262  28.746  -3.527  1.00  0.00     0.241 C 
HETATM   25  O4  UNL     1      -9.440  27.800  -3.426  1.00  0.00    -0.271 OA
HETATM   26  N3  UNL     1     -11.611  28.424  -3.222  1.00  0.00    -0.349 N 
ATOM     27  H3  UNL     1     -12.327  29.147  -3.285  1.00  0.00     0.163 HD
BRANCH  26  28
HETATM   28  C15 UNL     1     -11.986  27.080  -2.822  1.00  0.00     0.235 C 
BRANCH  28  29
HETATM   29  C16 UNL     1     -12.429  26.277  -3.999  1.00  0.00     0.191 C 
HETATM   30  O5  UNL     1     -13.629  26.285  -4.351  1.00  0.00    -0.647 OA
HETATM   31  O6  UNL     1     -11.535  25.516  -4.717  1.00  0.00    -0.647 OA
ENDBRANCH  28  29
ENDBRANCH  26  28
ENDBRANCH   1  24
TORSDOF 16
ENDMDL
