MODEL 5
REMARK VINA RESULT: -6.709946195      1.982      2.350
REMARK  16 active torsions:
REMARK  status: ('A' for Active; 'I' for Inactive)
REMARK    1  A    between atoms: C2_2  and  C3_3 
REMARK    2  A    between atoms: C3_3  and  C4_4 
REMARK    3  A    between atoms: C4_4  and  C5_5 
REMARK    4  A    between atoms: C5_5  and  C6_6 
REMARK    5  A    between atoms: C6_6  and  S1_7 
REMARK    6  A    between atoms: S1_7  and  C7_8 
REMARK    7  A    between atoms: C7_8  and  C8_9 
REMARK    8  A    between atoms: C8_9  and  N1_10 
REMARK    9  A    between atoms: C8_9  and  C14_24 
REMARK       I    between atoms: N1_10  and  C9_12 
REMARK   10  A    between atoms: C9_12  and  C10_14 
REMARK   11  A    between atoms: C10_14  and  C11_15 
REMARK   12  A    between atoms: C11_15  and  C12_16 
REMARK   13  A    between atoms: C12_16  and  N2_17 
REMARK   14  A    between atoms: C12_16  and  C13_21 
REMARK       I    between atoms: C14_24  and  N3_26 
REMARK   15  A    between atoms: N3_26  and  C15_28 
REMARK   16  A    between atoms: C15_28  and  C16_29 
ROOT
HETATM    1  C8  UNL     1     -11.590  32.099  -6.475  1.00  0.00     0.185 C 
ENDROOT
BRANCH   1   2
HETATM    2  C7  UNL     1     -11.578  31.891  -7.958  1.00  0.00     0.108 C 
BRANCH   2   3
HETATM    3  S1  UNL     1     -10.131  32.761  -8.625  1.00  0.00    -0.167 SA
BRANCH   3   4
HETATM    4  C6  UNL     1      -8.765  32.734  -7.445  1.00  0.00     0.074 C 
BRANCH   4   5
HETATM    5  C5  UNL     1      -7.579  32.096  -8.178  1.00  0.00     0.010 C 
BRANCH   5   6
HETATM    6  C4  UNL     1      -7.719  30.605  -7.952  1.00  0.00     0.001 C 
BRANCH   6   7
HETATM    7  C3  UNL     1      -7.042  29.886  -9.088  1.00  0.00    -0.000 C 
BRANCH   7   8
HETATM    8  C2  UNL     1      -6.271  30.897  -9.919  1.00  0.00    -0.005 C 
HETATM    9  C1  UNL     1      -5.296  30.098 -10.782  1.00  0.00     0.005 C 
ENDBRANCH   7   8
ENDBRANCH   6   7
ENDBRANCH   5   6
ENDBRANCH   4   5
ENDBRANCH   3   4
ENDBRANCH   2   3
ENDBRANCH   1   2
BRANCH   1  10
HETATM   10  N1  UNL     1     -11.297  30.807  -5.874  1.00  0.00    -0.347 N 
HETATM   11  C9  UNL     1     -10.456  30.618  -4.755  1.00  0.00     0.218 C 
HETATM   12  O1  UNL     1      -9.922  31.632  -4.238  1.00  0.00    -0.274 OA
ATOM     13  H1  UNL     1     -11.727  29.982  -6.290  1.00  0.00     0.163 HD
BRANCH  11  14
HETATM   14  C10 UNL     1     -10.208  29.243  -4.201  1.00  0.00     0.105 C 
BRANCH  14  15
HETATM   15  C11 UNL     1     -11.505  28.484  -4.273  1.00  0.00     0.053 C 
BRANCH  15  16
HETATM   16  C12 UNL     1     -11.426  27.289  -3.326  1.00  0.00     0.283 C 
BRANCH  16  17
HETATM   17  N2  UNL     1     -10.061  27.080  -2.889  1.00  0.00    -0.065 N 
ATOM     18  H23 UNL     1      -9.791  26.098  -2.945  1.00  0.00     0.275 HD
ATOM     19  H22 UNL     1      -9.387  27.461  -3.553  1.00  0.00     0.275 HD
ATOM     20  H21 UNL     1      -9.926  27.459  -1.952  1.00  0.00     0.275 HD
ENDBRANCH  16  17
BRANCH  16  21
HETATM   21  C13 UNL     1     -11.978  26.102  -4.000  1.00  0.00     0.204 C 
HETATM   22  O2  UNL     1     -11.310  25.073  -4.224  1.00  0.00    -0.646 OA
HETATM   23  O3  UNL     1     -13.319  26.136  -4.405  1.00  0.00    -0.646 OA
ENDBRANCH  16  21
ENDBRANCH  15  16
ENDBRANCH  14  15
ENDBRANCH  11  14
ENDBRANCH   1  10
BRANCH   1  24
HETATM   24  C14 UNL     1     -12.833  32.610  -5.928  1.00  0.00     0.241 C 
HETATM   25  O4  UNL     1     -13.365  32.008  -4.960  1.00  0.00    -0.271 OA
HETATM   26  N3  UNL     1     -13.526  33.758  -6.395  1.00  0.00    -0.349 N 
ATOM     27  H3  UNL     1     -13.146  34.290  -7.177  1.00  0.00     0.163 HD
BRANCH  26  28
HETATM   28  C15 UNL     1     -14.766  34.185  -5.775  1.00  0.00     0.235 C 
BRANCH  28  29
HETATM   29  C16 UNL     1     -14.554  35.399  -4.935  1.00  0.00     0.191 C 
HETATM   30  O5  UNL     1     -13.596  35.449  -4.133  1.00  0.00    -0.647 OA
HETATM   31  O6  UNL     1     -15.398  36.482  -5.023  1.00  0.00    -0.647 OA
ENDBRANCH  28  29
ENDBRANCH  26  28
ENDBRANCH   1  24
TORSDOF 16
ENDMDL
