MODEL 8
REMARK VINA RESULT: -8.662805773      3.024      7.932
REMARK  16 active torsions:
REMARK  status: ('A' for Active; 'I' for Inactive)
REMARK    1  A    between atoms: N3_11  and  C5_12 
REMARK    2  A    between atoms: C5_12  and  C6_13 
REMARK    3  A    between atoms: C6_13  and  O3_14 
REMARK    4  A    between atoms: C6_13  and  C7_16 
REMARK    5  A    between atoms: C7_16  and  O4_17 
REMARK    6  A    between atoms: C7_16  and  C8_19 
REMARK    7  A    between atoms: C8_19  and  O5_20 
REMARK    8  A    between atoms: C8_19  and  C9_22 
REMARK    9  A    between atoms: C9_22  and  O6_23 
REMARK   10  A    between atoms: N4_27  and  C11_28 
REMARK   11  A    between atoms: C11_28  and  C12_29 
REMARK   12  A    between atoms: C12_29  and  C13_30 
REMARK   13  A    between atoms: C13_30  and  C14_31 
REMARK   14  A    between atoms: C14_31  and  C15_32 
REMARK   15  A    between atoms: C15_32  and  O8_33 
REMARK   16  A    between atoms: O8_33  and  P1_34 
ROOT
HETATM    1  O1  UNL     1     -21.185  -0.643  -0.366  1.00  0.00    -0.247 OA
HETATM    2  C1  UNL     1     -21.531  -0.267   0.797  1.00  0.00     0.328 A 
HETATM    3  N1  UNL     1     -21.497  -1.148   1.815  1.00  0.00    -0.273 N 
ATOM      4  H1  UNL     1     -21.194  -2.104   1.628  1.00  0.00     0.173 HD
HETATM    5  C2  UNL     1     -21.851  -0.812   3.072  1.00  0.00     0.280 A 
HETATM    6  O2  UNL     1     -21.821  -1.628   4.025  1.00  0.00    -0.265 OA
HETATM    7  C3  UNL     1     -22.266   0.470   3.358  1.00  0.00     0.152 A 
HETATM    8  C4  UNL     1     -22.297   1.375   2.293  1.00  0.00     0.148 A 
HETATM    9  N2  UNL     1     -21.931   0.982   1.060  1.00  0.00    -0.292 N 
ATOM     10  H2  UNL     1     -21.960   1.660   0.299  1.00  0.00     0.172 HD
HETATM   11  N3  UNL     1     -22.715   2.529   2.824  1.00  0.00    -0.280 N 
HETATM   12  C10 UNL     1     -22.926   2.327   4.161  1.00  0.00     0.331 A 
HETATM   13  O7  UNL     1     -23.325   3.194   4.987  1.00  0.00    -0.246 OA
HETATM   14  N4  UNL     1     -22.651   1.060   4.491  1.00  0.00    -0.291 N 
ENDROOT
BRANCH  11  15
HETATM   15  C5  UNL     1     -22.985   3.790   2.195  1.00  0.00     0.170 C 
BRANCH  15  16
HETATM   16  C6  UNL     1     -21.867   4.753   2.195  1.00  0.00     0.168 C 
BRANCH  16  17
HETATM   17  O3  UNL     1     -21.347   4.998   3.482  1.00  0.00    -0.391 OA
ATOM     18  H3  UNL     1     -21.631   5.829   3.846  1.00  0.00     0.210 HD
ENDBRANCH  16  17
BRANCH  16  19
HETATM   19  C7  UNL     1     -20.801   4.616   1.182  1.00  0.00     0.179 C 
BRANCH  19  20
HETATM   20  O4  UNL     1     -21.205   3.810   0.139  1.00  0.00    -0.390 OA
ATOM     21  H4  UNL     1     -21.828   3.156   0.431  1.00  0.00     0.210 HD
ENDBRANCH  19  20
BRANCH  19  22
HETATM   22  C8  UNL     1     -19.422   4.397   1.690  1.00  0.00     0.173 C 
BRANCH  22  23
HETATM   23  O5  UNL     1     -18.865   5.674   1.939  1.00  0.00    -0.391 OA
ATOM     24  H5  UNL     1     -17.952   5.634   1.681  1.00  0.00     0.210 HD
ENDBRANCH  22  23
BRANCH  22  25
HETATM   25  C9  UNL     1     -18.486   3.641   0.810  1.00  0.00     0.198 C 
BRANCH  25  26
HETATM   26  O6  UNL     1     -18.176   4.466  -0.298  1.00  0.00    -0.398 OA
ATOM     27  H6  UNL     1     -17.256   4.698  -0.236  1.00  0.00     0.209 HD
ENDBRANCH  25  26
ENDBRANCH  22  25
ENDBRANCH  19  22
ENDBRANCH  16  19
ENDBRANCH  15  16
ENDBRANCH  11  15
BRANCH  14  28
HETATM   28  C11 UNL     1     -22.764   0.493   5.830  1.00  0.00     0.134 C 
BRANCH  28  29
HETATM   29  C12 UNL     1     -24.153  -0.125   5.932  1.00  0.00     0.020 C 
BRANCH  29  30
HETATM   30  C13 UNL     1     -25.067   0.756   6.759  1.00  0.00     0.004 C 
BRANCH  30  31
HETATM   31  C14 UNL     1     -24.286   1.428   7.868  1.00  0.00     0.027 C 
BRANCH  31  32
HETATM   32  C15 UNL     1     -25.263   2.296   8.633  1.00  0.00     0.182 C 
BRANCH  32  33
HETATM   33  O8  UNL     1     -25.626   3.352   7.843  1.00  0.00    -0.283 OA
BRANCH  33  34
HETATM   34  P1  UNL     1     -27.163   3.832   8.065  1.00  0.00     0.422 P 
HETATM   35  O9  UNL     1     -26.958   5.106   7.243  1.00  0.00    -0.617 OA
HETATM   36  O10 UNL     1     -27.541   2.559   8.829  1.00  0.00    -0.617 OA
HETATM   37  O11 UNL     1     -28.344   3.398   6.948  1.00  0.00    -0.617 OA
ENDBRANCH  33  34
ENDBRANCH  32  33
ENDBRANCH  31  32
ENDBRANCH  30  31
ENDBRANCH  29  30
ENDBRANCH  28  29
ENDBRANCH  14  28
TORSDOF 16
ENDMDL
