MODEL 18
REMARK VINA RESULT: -8.566795479      3.796      8.594
REMARK  15 active torsions:
REMARK  status: ('A' for Active; 'I' for Inactive)
REMARK    1  A    between atoms: N3_11  and  C5_12 
REMARK    2  A    between atoms: C5_12  and  C6_13 
REMARK    3  A    between atoms: C6_13  and  O3_14 
REMARK    4  A    between atoms: C6_13  and  C7_16 
REMARK    5  A    between atoms: C7_16  and  O4_17 
REMARK    6  A    between atoms: C7_16  and  C8_19 
REMARK    7  A    between atoms: C8_19  and  O5_20 
REMARK    8  A    between atoms: C8_19  and  C9_22 
REMARK    9  A    between atoms: C9_22  and  O6_23 
REMARK   10  A    between atoms: N4_27  and  C11_28 
REMARK   11  A    between atoms: C11_28  and  C12_29 
REMARK   12  A    between atoms: C12_29  and  C13_30 
REMARK   13  A    between atoms: C13_30  and  C14_31 
REMARK   14  A    between atoms: C14_31  and  C15_32 
REMARK   15  A    between atoms: C15_32  and  P1_35 
ROOT
HETATM    1  O1  UNL     1      44.830  -0.976  -0.974  1.00  0.00    -0.247 OA
HETATM    2  C1  UNL     1      44.603  -0.714   0.232  1.00  0.00     0.328 A 
HETATM    3  N1  UNL     1      44.352  -1.733   1.083  1.00  0.00    -0.273 N 
ATOM      4  H1  UNL     1      44.351  -2.690   0.729  1.00  0.00     0.173 HD
HETATM    5  C2  UNL     1      44.102  -1.517   2.386  1.00  0.00     0.280 A 
HETATM    6  O2  UNL     1      43.864  -2.446   3.199  1.00  0.00    -0.265 OA
HETATM    7  C3  UNL     1      44.108  -0.225   2.849  1.00  0.00     0.152 A 
HETATM    8  C4  UNL     1      44.371   0.793   1.949  1.00  0.00     0.148 A 
HETATM    9  N2  UNL     1      44.621   0.569   0.639  1.00  0.00    -0.292 N 
ATOM     10  H2  UNL     1      44.814   1.333  -0.008  1.00  0.00     0.172 HD
HETATM   11  N3  UNL     1      44.311   1.927   2.672  1.00  0.00    -0.280 N 
HETATM   12  C10 UNL     1      44.027   1.616   3.948  1.00  0.00     0.331 A 
HETATM   13  O7  UNL     1      43.892   2.420   4.910  1.00  0.00    -0.246 OA
HETATM   14  N4  UNL     1      43.895   0.284   4.086  1.00  0.00    -0.291 N 
ENDROOT
BRANCH  11  15
HETATM   15  C5  UNL     1      44.529   3.264   2.115  1.00  0.00     0.170 C 
BRANCH  15  16
HETATM   16  C6  UNL     1      45.970   3.519   1.844  1.00  0.00     0.168 C 
BRANCH  16  17
HETATM   17  O3  UNL     1      46.798   2.428   2.086  1.00  0.00    -0.391 OA
ATOM     18  H3  UNL     1      46.957   2.256   3.007  1.00  0.00     0.210 HD
ENDBRANCH  16  17
BRANCH  16  19
HETATM   19  C7  UNL     1      46.221   4.063   0.475  1.00  0.00     0.179 C 
BRANCH  19  20
HETATM   20  O4  UNL     1      45.121   4.528  -0.204  1.00  0.00    -0.390 OA
ATOM     21  H4  UNL     1      44.589   3.872  -0.639  1.00  0.00     0.210 HD
ENDBRANCH  19  20
BRANCH  19  22
HETATM   22  C8  UNL     1      47.130   3.312  -0.423  1.00  0.00     0.173 C 
BRANCH  22  23
HETATM   23  O5  UNL     1      48.240   4.163  -0.725  1.00  0.00    -0.391 OA
ATOM     24  H5  UNL     1      48.290   4.245  -1.671  1.00  0.00     0.210 HD
ENDBRANCH  22  23
BRANCH  22  25
HETATM   25  C9  UNL     1      46.518   3.017  -1.799  1.00  0.00     0.198 C 
BRANCH  25  26
HETATM   26  O6  UNL     1      45.624   1.943  -1.624  1.00  0.00    -0.398 OA
ATOM     27  H6  UNL     1      45.596   1.473  -2.449  1.00  0.00     0.209 HD
ENDBRANCH  25  26
ENDBRANCH  22  25
ENDBRANCH  19  22
ENDBRANCH  16  19
ENDBRANCH  15  16
ENDBRANCH  11  15
BRANCH  14  28
HETATM   28  C11 UNL     1      43.595  -0.501   5.265  1.00  0.00     0.134 C 
BRANCH  28  29
HETATM   29  C12 UNL     1      42.118  -0.485   5.622  1.00  0.00     0.020 C 
BRANCH  29  30
HETATM   30  C13 UNL     1      41.859   0.179   6.956  1.00  0.00     0.008 C 
BRANCH  30  31
HETATM   31  C14 UNL     1      40.800   1.254   6.679  1.00  0.00     0.095 C 
BRANCH  31  32
HETATM   32  C15 UNL     1      40.254   1.633   8.063  1.00  0.00     0.353 C 
HETATM   33  F1  UNL     1      41.205   2.471   8.617  1.00  0.00    -0.191 F 
HETATM   34  F2  UNL     1      40.385   0.452   8.814  1.00  0.00    -0.191 F 
BRANCH  32  35
HETATM   35  P1  UNL     1      38.642   2.236   7.848  1.00  0.00     0.334 P 
HETATM   36  O8  UNL     1      37.367   1.144   7.459  1.00  0.00    -0.636 OA
HETATM   37  O9  UNL     1      38.708   2.500   6.344  1.00  0.00    -0.636 OA
HETATM   38  O10 UNL     1      38.204   3.744   8.258  1.00  0.00    -0.636 OA
ENDBRANCH  32  35
ENDBRANCH  31  32
ENDBRANCH  30  31
ENDBRANCH  29  30
ENDBRANCH  28  29
ENDBRANCH  14  28
TORSDOF 15
ENDMDL
