MODEL 17
REMARK VINA RESULT: -8.739435901      3.995      8.245
REMARK  15 active torsions:
REMARK  status: ('A' for Active; 'I' for Inactive)
REMARK    1  A    between atoms: N3_11  and  C5_12 
REMARK    2  A    between atoms: C5_12  and  C6_13 
REMARK    3  A    between atoms: C6_13  and  O3_14 
REMARK    4  A    between atoms: C6_13  and  C7_16 
REMARK    5  A    between atoms: C7_16  and  O4_17 
REMARK    6  A    between atoms: C7_16  and  C8_19 
REMARK    7  A    between atoms: C8_19  and  O5_20 
REMARK    8  A    between atoms: C8_19  and  C9_22 
REMARK    9  A    between atoms: C9_22  and  O6_23 
REMARK   10  A    between atoms: N4_27  and  C11_28 
REMARK   11  A    between atoms: C11_28  and  C12_29 
REMARK   12  A    between atoms: C12_29  and  C13_30 
REMARK   13  A    between atoms: C13_30  and  C14_31 
REMARK   14  A    between atoms: C14_31  and  C15_32 
REMARK   15  A    between atoms: C15_32  and  P1_35 
ROOT
HETATM    1  O1  UNL     1      41.390  -3.208   6.430  1.00  0.00    -0.247 OA
HETATM    2  C1  UNL     1      41.696  -1.992   6.394  1.00  0.00     0.328 A 
HETATM    3  N1  UNL     1      41.409  -1.217   7.464  1.00  0.00    -0.273 N 
ATOM      4  H1  UNL     1      40.952  -1.636   8.274  1.00  0.00     0.173 HD
HETATM    5  C2  UNL     1      41.711   0.092   7.486  1.00  0.00     0.280 A 
HETATM    6  O2  UNL     1      41.455   0.836   8.467  1.00  0.00    -0.265 OA
HETATM    7  C3  UNL     1      42.328   0.642   6.389  1.00  0.00     0.152 A 
HETATM    8  C4  UNL     1      42.606  -0.182   5.313  1.00  0.00     0.148 A 
HETATM    9  N2  UNL     1      42.300  -1.499   5.297  1.00  0.00    -0.292 N 
ATOM     10  H2  UNL     1      42.515  -2.089   4.494  1.00  0.00     0.172 HD
HETATM   11  N3  UNL     1      43.199   0.614   4.403  1.00  0.00    -0.280 N 
HETATM   12  C10 UNL     1      43.277   1.861   4.900  1.00  0.00     0.331 A 
HETATM   13  O7  UNL     1      43.769   2.873   4.331  1.00  0.00    -0.246 OA
HETATM   14  N4  UNL     1      42.742   1.905   6.134  1.00  0.00    -0.291 N 
ENDROOT
BRANCH  11  15
HETATM   15  C5  UNL     1      43.667   0.154   3.094  1.00  0.00     0.170 C 
BRANCH  15  16
HETATM   16  C6  UNL     1      44.969  -0.561   3.197  1.00  0.00     0.168 C 
BRANCH  16  17
HETATM   17  O3  UNL     1      45.078  -1.672   2.368  1.00  0.00    -0.391 OA
ATOM     18  H3  UNL     1      44.540  -2.410   2.630  1.00  0.00     0.210 HD
ENDBRANCH  16  17
BRANCH  16  19
HETATM   19  C7  UNL     1      46.147   0.338   3.013  1.00  0.00     0.179 C 
BRANCH  19  20
HETATM   20  O4  UNL     1      46.511   1.092   4.102  1.00  0.00    -0.390 OA
ATOM     21  H4  UNL     1      47.360   1.516   4.055  1.00  0.00     0.210 HD
ENDBRANCH  19  20
BRANCH  19  22
HETATM   22  C8  UNL     1      46.241   1.124   1.759  1.00  0.00     0.173 C 
BRANCH  22  23
HETATM   23  O5  UNL     1      46.676   0.236   0.724  1.00  0.00    -0.391 OA
ATOM     24  H5  UNL     1      46.953  -0.574   1.138  1.00  0.00     0.210 HD
ENDBRANCH  22  23
BRANCH  22  25
HETATM   25  C9  UNL     1      47.336   2.198   1.795  1.00  0.00     0.198 C 
BRANCH  25  26
HETATM   26  O6  UNL     1      48.544   1.535   2.087  1.00  0.00    -0.398 OA
ATOM     27  H6  UNL     1      48.849   1.151   1.274  1.00  0.00     0.209 HD
ENDBRANCH  25  26
ENDBRANCH  22  25
ENDBRANCH  19  22
ENDBRANCH  16  19
ENDBRANCH  15  16
ENDBRANCH  11  15
BRANCH  14  28
HETATM   28  C11 UNL     1      42.607   3.022   7.047  1.00  0.00     0.134 C 
BRANCH  28  29
HETATM   29  C12 UNL     1      41.299   3.773   6.867  1.00  0.00     0.020 C 
BRANCH  29  30
HETATM   30  C13 UNL     1      40.644   4.105   8.190  1.00  0.00     0.008 C 
BRANCH  30  31
HETATM   31  C14 UNL     1      39.204   4.507   7.845  1.00  0.00     0.095 C 
BRANCH  31  32
HETATM   32  C15 UNL     1      38.327   3.441   8.518  1.00  0.00     0.353 C 
HETATM   33  F1  UNL     1      37.529   4.132   9.412  1.00  0.00    -0.191 F 
HETATM   34  F2  UNL     1      39.219   2.745   9.350  1.00  0.00    -0.191 F 
BRANCH  32  35
HETATM   35  P1  UNL     1      37.562   2.518   7.264  1.00  0.00     0.334 P 
HETATM   36  O8  UNL     1      36.497   1.230   7.681  1.00  0.00    -0.636 OA
HETATM   37  O9  UNL     1      38.625   1.429   7.118  1.00  0.00    -0.636 OA
HETATM   38  O10 UNL     1      37.578   2.969   5.704  1.00  0.00    -0.636 OA
ENDBRANCH  32  35
ENDBRANCH  31  32
ENDBRANCH  30  31
ENDBRANCH  29  30
ENDBRANCH  28  29
ENDBRANCH  14  28
TORSDOF 15
ENDMDL
