MODEL 5
REMARK VINA RESULT: -7.949452766      5.063      7.217
REMARK  6 active torsions:
REMARK  status: ('A' for Active; 'I' for Inactive)
REMARK    1  A    between atoms: C3_7  and  C4_8 
REMARK    2  A    between atoms: C4_8  and  C5_9 
REMARK    3  A    between atoms: C5_9  and  C6_10 
REMARK    4  A    between atoms: C6_10  and  C7_11 
REMARK    5  A    between atoms: C7_11  and  O2_12 
REMARK    6  A    between atoms: O2_12  and  P1_13 
ROOT
HETATM    1  O1  UNL     1     -21.874  -2.254   2.497  1.00  0.00    -0.247 OA
HETATM    2  C1  UNL     1     -22.243  -1.781   3.621  1.00  0.00     0.328 A 
HETATM    3  N1  UNL     1     -23.073  -2.498   4.400  1.00  0.00    -0.298 N 
ATOM      4  H1  UNL     1     -23.382  -3.407   4.056  1.00  0.00     0.171 HD
HETATM    5  C2  UNL     1     -23.518  -2.101   5.586  1.00  0.00     0.119 A 
HETATM    6 CL1  UNL     1     -24.590  -3.004   6.613  1.00  0.00    -0.064 Cl
HETATM    7  C3  UNL     1     -23.087  -0.854   6.042  1.00  0.00     0.049 A 
HETATM    8  C8  UNL     1     -22.223  -0.097   5.245  1.00  0.00     0.258 A 
HETATM    9  O6  UNL     1     -21.826   1.038   5.651  1.00  0.00    -0.267 OA
HETATM   10  N2  UNL     1     -21.827  -0.584   4.057  1.00  0.00    -0.275 N 
ATOM     11  H2  UNL     1     -21.197  -0.031   3.476  1.00  0.00     0.173 HD
ENDROOT
BRANCH   7  12
HETATM   12  C4  UNL     1     -23.550  -0.353   7.361  1.00  0.00     0.048 C 
BRANCH  12  13
HETATM   13  C5  UNL     1     -24.849   0.388   7.278  1.00  0.00     0.007 C 
BRANCH  13  14
HETATM   14  C6  UNL     1     -25.538   0.580   8.580  1.00  0.00     0.027 C 
BRANCH  14  15
HETATM   15  C7  UNL     1     -25.720   1.990   8.997  1.00  0.00     0.182 C 
BRANCH  15  16
HETATM   16  O2  UNL     1     -27.049   2.393   8.878  1.00  0.00    -0.283 OA
BRANCH  16  17
HETATM   17  P1  UNL     1     -27.346   3.744   8.198  1.00  0.00     0.422 P 
HETATM   18  O3  UNL     1     -27.561   5.050   7.433  1.00  0.00    -0.617 OA
HETATM   19  O4  UNL     1     -27.681   4.396   9.671  1.00  0.00    -0.617 OA
HETATM   20  O5  UNL     1     -25.750   3.737   7.696  1.00  0.00    -0.617 OA
ENDBRANCH  16  17
ENDBRANCH  15  16
ENDBRANCH  14  15
ENDBRANCH  13  14
ENDBRANCH  12  13
ENDBRANCH   7  12
TORSDOF 6
ENDMDL
