MODEL 14
REMARK VINA RESULT: -7.493043354      5.265      7.469
REMARK  6 active torsions:
REMARK  status: ('A' for Active; 'I' for Inactive)
REMARK    1  A    between atoms: C3_7  and  C4_8 
REMARK    2  A    between atoms: C4_8  and  C5_9 
REMARK    3  A    between atoms: C5_9  and  C6_10 
REMARK    4  A    between atoms: C6_10  and  C7_11 
REMARK    5  A    between atoms: C7_11  and  O2_12 
REMARK    6  A    between atoms: O2_12  and  P1_13 
ROOT
HETATM    1  O1  UNL     1     -19.816   0.226   3.931  1.00  0.00    -0.247 OA
HETATM    2  C1  UNL     1     -20.919   0.315   4.563  1.00  0.00     0.328 A 
HETATM    3  N1  UNL     1     -21.624  -0.799   4.824  1.00  0.00    -0.298 N 
ATOM      4  H1  UNL     1     -21.244  -1.689   4.500  1.00  0.00     0.171 HD
HETATM    5  C2  UNL     1     -22.782  -0.821   5.474  1.00  0.00     0.119 A 
HETATM    6 CL1  UNL     1     -23.714  -2.244   5.824  1.00  0.00    -0.064 Cl
HETATM    7  C3  UNL     1     -23.289   0.405   5.909  1.00  0.00     0.049 A 
HETATM    8  C8  UNL     1     -22.568   1.574   5.647  1.00  0.00     0.258 A 
HETATM    9  O6  UNL     1     -23.020   2.693   6.039  1.00  0.00    -0.267 OA
HETATM   10  N2  UNL     1     -21.403   1.493   4.981  1.00  0.00    -0.275 N 
ATOM     11  H2  UNL     1     -20.878   2.346   4.789  1.00  0.00     0.173 HD
ENDROOT
BRANCH   7  12
HETATM   12  C4  UNL     1     -24.580   0.449   6.641  1.00  0.00     0.048 C 
BRANCH  12  13
HETATM   13  C5  UNL     1     -24.406   0.443   8.128  1.00  0.00     0.007 C 
BRANCH  13  14
HETATM   14  C6  UNL     1     -25.658   0.652   8.900  1.00  0.00     0.027 C 
BRANCH  14  15
HETATM   15  C7  UNL     1     -25.951   2.061   9.259  1.00  0.00     0.182 C 
BRANCH  15  16
HETATM   16  O2  UNL     1     -27.239   2.431   8.877  1.00  0.00    -0.283 OA
BRANCH  16  17
HETATM   17  P1  UNL     1     -27.430   3.778   8.154  1.00  0.00     0.422 P 
HETATM   18  O3  UNL     1     -27.543   5.072   7.347  1.00  0.00    -0.617 OA
HETATM   19  O4  UNL     1     -27.702   4.502   9.606  1.00  0.00    -0.617 OA
HETATM   20  O5  UNL     1     -25.842   3.625   7.648  1.00  0.00    -0.617 OA
ENDBRANCH  16  17
ENDBRANCH  15  16
ENDBRANCH  14  15
ENDBRANCH  13  14
ENDBRANCH  12  13
ENDBRANCH   7  12
TORSDOF 6
ENDMDL
