MODEL 20
REMARK VINA RESULT: -7.256312631      2.029      2.507
REMARK  6 active torsions:
REMARK  status: ('A' for Active; 'I' for Inactive)
REMARK    1  A    between atoms: C3_7  and  C4_8 
REMARK    2  A    between atoms: C4_8  and  C5_9 
REMARK    3  A    between atoms: C5_9  and  C6_10 
REMARK    4  A    between atoms: C6_10  and  C7_11 
REMARK    5  A    between atoms: C7_11  and  O2_12 
REMARK    6  A    between atoms: O2_12  and  P1_13 
ROOT
HETATM    1  O1  UNL     1     -24.625  -1.505   7.380  1.00  0.00    -0.247 OA
HETATM    2  C1  UNL     1     -24.058  -0.792   6.488  1.00  0.00     0.328 A 
HETATM    3  N1  UNL     1     -23.459  -1.390   5.444  1.00  0.00    -0.298 N 
ATOM      4  H1  UNL     1     -23.481  -2.409   5.402  1.00  0.00     0.171 HD
HETATM    5  C2  UNL     1     -22.842  -0.744   4.462  1.00  0.00     0.119 A 
HETATM    6 CL1  UNL     1     -22.060  -1.490   3.101  1.00  0.00    -0.064 Cl
HETATM    7  C3  UNL     1     -22.820   0.650   4.533  1.00  0.00     0.049 A 
HETATM    8  C8  UNL     1     -23.439   1.288   5.612  1.00  0.00     0.258 A 
HETATM    9  O6  UNL     1     -23.425   2.555   5.686  1.00  0.00    -0.267 OA
HETATM   10  N2  UNL     1     -24.040   0.547   6.558  1.00  0.00    -0.275 N 
ATOM     11  H2  UNL     1     -24.491   1.012   7.346  1.00  0.00     0.173 HD
ENDROOT
BRANCH   7  12
HETATM   12  C4  UNL     1     -22.144   1.431   3.466  1.00  0.00     0.048 C 
BRANCH  12  13
HETATM   13  C5  UNL     1     -20.706   1.711   3.774  1.00  0.00     0.007 C 
BRANCH  13  14
HETATM   14  C6  UNL     1     -19.801   1.675   2.595  1.00  0.00     0.027 C 
BRANCH  14  15
HETATM   15  C7  UNL     1     -20.386   2.190   1.334  1.00  0.00     0.182 C 
BRANCH  15  16
HETATM   16  O2  UNL     1     -20.301   3.579   1.259  1.00  0.00    -0.283 OA
BRANCH  16  17
HETATM   17  P1  UNL     1     -19.059   4.201   0.590  1.00  0.00     0.422 P 
HETATM   18  O3  UNL     1     -17.785   4.843   0.041  1.00  0.00    -0.617 OA
HETATM   19  O4  UNL     1     -19.970   4.559  -0.734  1.00  0.00    -0.617 OA
HETATM   20  O5  UNL     1     -19.049   5.304   1.847  1.00  0.00    -0.617 OA
ENDBRANCH  16  17
ENDBRANCH  15  16
ENDBRANCH  14  15
ENDBRANCH  13  14
ENDBRANCH  12  13
ENDBRANCH   7  12
TORSDOF 6
ENDMDL
