MODEL 2
REMARK VINA RESULT: -8.089360489      4.990      7.112
REMARK  6 active torsions:
REMARK  status: ('A' for Active; 'I' for Inactive)
REMARK    1  A    between atoms: C3_7  and  C4_8 
REMARK    2  A    between atoms: C4_8  and  C5_9 
REMARK    3  A    between atoms: C5_9  and  C6_10 
REMARK    4  A    between atoms: C6_10  and  C7_11 
REMARK    5  A    between atoms: C7_11  and  O2_12 
REMARK    6  A    between atoms: O2_12  and  P1_13 
ROOT
HETATM    1  O1  UNL     1     -22.228  -2.326   2.915  1.00  0.00    -0.247 OA
HETATM    2  C1  UNL     1     -22.628  -1.857   4.030  1.00  0.00     0.328 A 
HETATM    3  N1  UNL     1     -22.438  -0.555   4.307  1.00  0.00    -0.298 N 
ATOM      4  H1  UNL     1     -21.973   0.019   3.603  1.00  0.00     0.171 HD
HETATM    5  C2  UNL     1     -22.814   0.035   5.435  1.00  0.00     0.119 A 
HETATM    6 CL1  UNL     1     -22.582   1.713   5.820  1.00  0.00    -0.064 Cl
HETATM    7  C3  UNL     1     -23.448  -0.763   6.389  1.00  0.00     0.049 A 
HETATM    8  C8  UNL     1     -23.655  -2.119   6.117  1.00  0.00     0.258 A 
HETATM    9  O6  UNL     1     -24.231  -2.852   6.977  1.00  0.00    -0.267 OA
HETATM   10  N2  UNL     1     -23.238  -2.625   4.944  1.00  0.00    -0.275 N 
ATOM     11  H2  UNL     1     -23.388  -3.614   4.746  1.00  0.00     0.173 HD
ENDROOT
BRANCH   7  12
HETATM   12  C4  UNL     1     -23.893  -0.163   7.673  1.00  0.00     0.048 C 
BRANCH  12  13
HETATM   13  C5  UNL     1     -25.360   0.136   7.697  1.00  0.00     0.007 C 
BRANCH  13  14
HETATM   14  C6  UNL     1     -25.737   1.326   8.504  1.00  0.00     0.027 C 
BRANCH  14  15
HETATM   15  C7  UNL     1     -25.011   2.573   8.166  1.00  0.00     0.182 C 
BRANCH  15  16
HETATM   16  O2  UNL     1     -25.761   3.705   8.482  1.00  0.00    -0.283 OA
BRANCH  16  17
HETATM   17  P1  UNL     1     -27.276   3.679   8.208  1.00  0.00     0.422 P 
HETATM   18  O3  UNL     1     -28.754   3.662   7.814  1.00  0.00    -0.617 OA
HETATM   19  O4  UNL     1     -27.542   4.339   9.692  1.00  0.00    -0.617 OA
HETATM   20  O5  UNL     1     -26.971   4.723   6.937  1.00  0.00    -0.617 OA
ENDBRANCH  16  17
ENDBRANCH  15  16
ENDBRANCH  14  15
ENDBRANCH  13  14
ENDBRANCH  12  13
ENDBRANCH   7  12
TORSDOF 6
ENDMDL
