MODEL 6
REMARK VINA RESULT: -7.909586856      1.630      2.054
REMARK  6 active torsions:
REMARK  status: ('A' for Active; 'I' for Inactive)
REMARK    1  A    between atoms: C3_7  and  C4_8 
REMARK    2  A    between atoms: C4_8  and  C5_9 
REMARK    3  A    between atoms: C5_9  and  C6_10 
REMARK    4  A    between atoms: C6_10  and  C7_11 
REMARK    5  A    between atoms: C7_11  and  O2_12 
REMARK    6  A    between atoms: O2_12  and  P1_13 
ROOT
HETATM    1  O1  UNL     1     -24.678  -2.953   6.664  1.00  0.00    -0.247 OA
HETATM    2  C1  UNL     1     -24.003  -2.027   6.106  1.00  0.00     0.328 A 
HETATM    3  N1  UNL     1     -23.340  -2.288   4.966  1.00  0.00    -0.298 N 
ATOM      4  H1  UNL     1     -23.402  -3.231   4.584  1.00  0.00     0.171 HD
HETATM    5  C2  UNL     1     -22.609  -1.399   4.303  1.00  0.00     0.119 A 
HETATM    6 CL1  UNL     1     -21.742  -1.707   2.829  1.00  0.00    -0.064 Cl
HETATM    7  C3  UNL     1     -22.533  -0.113   4.839  1.00  0.00     0.049 A 
HETATM    8  C8  UNL     1     -23.217   0.176   6.024  1.00  0.00     0.258 A 
HETATM    9  O6  UNL     1     -23.154   1.343   6.518  1.00  0.00    -0.267 OA
HETATM   10  N2  UNL     1     -23.932  -0.792   6.622  1.00  0.00    -0.275 N 
ATOM     11  H2  UNL     1     -24.431  -0.582   7.487  1.00  0.00     0.173 HD
ENDROOT
BRANCH   7  12
HETATM   12  C4  UNL     1     -21.730   0.927   4.146  1.00  0.00     0.048 C 
BRANCH  12  13
HETATM   13  C5  UNL     1     -20.299   0.945   4.585  1.00  0.00     0.007 C 
BRANCH  13  14
HETATM   14  C6  UNL     1     -19.311   1.015   3.477  1.00  0.00     0.027 C 
BRANCH  14  15
HETATM   15  C7  UNL     1     -19.693   1.890   2.344  1.00  0.00     0.182 C 
BRANCH  15  16
HETATM   16  O2  UNL     1     -19.233   3.194   2.524  1.00  0.00    -0.283 OA
BRANCH  16  17
HETATM   17  P1  UNL     1     -18.556   3.901   1.334  1.00  0.00     0.422 P 
HETATM   18  O3  UNL     1     -17.799   4.511   0.153  1.00  0.00    -0.617 OA
HETATM   19  O4  UNL     1     -19.125   5.343   1.887  1.00  0.00    -0.617 OA
HETATM   20  O5  UNL     1     -17.102   3.351   1.954  1.00  0.00    -0.617 OA
ENDBRANCH  16  17
ENDBRANCH  15  16
ENDBRANCH  14  15
ENDBRANCH  13  14
ENDBRANCH  12  13
ENDBRANCH   7  12
TORSDOF 6
ENDMDL
