MODEL 3
REMARK VINA RESULT: -8.029181473      2.211      2.635
REMARK  6 active torsions:
REMARK  status: ('A' for Active; 'I' for Inactive)
REMARK    1  A    between atoms: C3_7  and  C4_8 
REMARK    2  A    between atoms: C4_8  and  C5_9 
REMARK    3  A    between atoms: C5_9  and  C6_10 
REMARK    4  A    between atoms: C6_10  and  C7_11 
REMARK    5  A    between atoms: C7_11  and  O2_12 
REMARK    6  A    between atoms: O2_12  and  P1_13 
ROOT
HETATM    1  O1  UNL     1     -24.600  -0.435   8.924  1.00  0.00    -0.247 OA
HETATM    2  C1  UNL     1     -24.095  -0.026   7.827  1.00  0.00     0.328 A 
HETATM    3  N1  UNL     1     -23.771  -0.918   6.875  1.00  0.00    -0.298 N 
ATOM      4  H1  UNL     1     -23.944  -1.905   7.068  1.00  0.00     0.171 HD
HETATM    5  C2  UNL     1     -23.241  -0.602   5.699  1.00  0.00     0.119 A 
HETATM    6 CL1  UNL     1     -22.813  -1.732   4.451  1.00  0.00    -0.064 Cl
HETATM    7  C3  UNL     1     -23.010   0.752   5.450  1.00  0.00     0.049 A 
HETATM    8  C8  UNL     1     -23.342   1.693   6.429  1.00  0.00     0.258 A 
HETATM    9  O6  UNL     1     -23.135   2.926   6.212  1.00  0.00    -0.267 OA
HETATM   10  N2  UNL     1     -23.875   1.274   7.590  1.00  0.00    -0.275 N 
ATOM     11  H2  UNL     1     -24.117   1.961   8.304  1.00  0.00     0.173 HD
ENDROOT
BRANCH   7  12
HETATM   12  C4  UNL     1     -22.418   1.170   4.154  1.00  0.00     0.048 C 
BRANCH  12  13
HETATM   13  C5  UNL     1     -20.923   1.252   4.198  1.00  0.00     0.007 C 
BRANCH  13  14
HETATM   14  C6  UNL     1     -20.262   1.223   2.867  1.00  0.00     0.027 C 
BRANCH  14  15
HETATM   15  C7  UNL     1     -19.072   2.098   2.734  1.00  0.00     0.182 C 
BRANCH  15  16
HETATM   16  O2  UNL     1     -19.425   3.386   2.335  1.00  0.00    -0.283 OA
BRANCH  16  17
HETATM   17  P1  UNL     1     -18.613   4.051   1.207  1.00  0.00     0.422 P 
HETATM   18  O3  UNL     1     -17.732   4.611   0.089  1.00  0.00    -0.617 OA
HETATM   19  O4  UNL     1     -19.089   5.529   1.755  1.00  0.00    -0.617 OA
HETATM   20  O5  UNL     1     -17.257   3.364   1.904  1.00  0.00    -0.617 OA
ENDBRANCH  16  17
ENDBRANCH  15  16
ENDBRANCH  14  15
ENDBRANCH  13  14
ENDBRANCH  12  13
ENDBRANCH   7  12
TORSDOF 6
ENDMDL
