MODEL 9
REMARK VINA RESULT: -7.714244078      2.348      2.856
REMARK  6 active torsions:
REMARK  status: ('A' for Active; 'I' for Inactive)
REMARK    1  A    between atoms: C3_7  and  C4_8 
REMARK    2  A    between atoms: C4_8  and  C5_9 
REMARK    3  A    between atoms: C5_9  and  C6_10 
REMARK    4  A    between atoms: C6_10  and  C7_11 
REMARK    5  A    between atoms: C7_11  and  O2_12 
REMARK    6  A    between atoms: O2_12  and  P1_13 
ROOT
HETATM    1  O1  UNL     1     -24.739  -0.426   8.928  1.00  0.00    -0.247 OA
HETATM    2  C1  UNL     1     -24.250  -0.012   7.827  1.00  0.00     0.328 A 
HETATM    3  N1  UNL     1     -23.948  -0.898   6.861  1.00  0.00    -0.298 N 
ATOM      4  H1  UNL     1     -24.124  -1.885   7.049  1.00  0.00     0.171 HD
HETATM    5  C2  UNL     1     -23.436  -0.575   5.680  1.00  0.00     0.119 A 
HETATM    6 CL1  UNL     1     -23.036  -1.697   4.415  1.00  0.00    -0.064 Cl
HETATM    7  C3  UNL     1     -23.200   0.779   5.438  1.00  0.00     0.049 A 
HETATM    8  C8  UNL     1     -23.508   1.715   6.431  1.00  0.00     0.258 A 
HETATM    9  O6  UNL     1     -23.298   2.948   6.220  1.00  0.00    -0.267 OA
HETATM   10  N2  UNL     1     -24.025   1.289   7.596  1.00  0.00    -0.275 N 
ATOM     11  H2  UNL     1     -24.250   1.971   8.321  1.00  0.00     0.173 HD
ENDROOT
BRANCH   7  12
HETATM   12  C4  UNL     1     -22.627   1.206   4.136  1.00  0.00     0.048 C 
BRANCH  12  13
HETATM   13  C5  UNL     1     -21.142   1.392   4.187  1.00  0.00     0.007 C 
BRANCH  13  14
HETATM   14  C6  UNL     1     -20.507   1.677   2.874  1.00  0.00     0.027 C 
BRANCH  14  15
HETATM   15  C7  UNL     1     -20.085   3.083   2.668  1.00  0.00     0.182 C 
BRANCH  15  16
HETATM   16  O2  UNL     1     -20.195   3.460   1.330  1.00  0.00    -0.283 OA
BRANCH  16  17
HETATM   17  P1  UNL     1     -19.001   4.178   0.673  1.00  0.00     0.422 P 
HETATM   18  O3  UNL     1     -17.777   4.920   0.135  1.00  0.00    -0.617 OA
HETATM   19  O4  UNL     1     -19.921   4.453  -0.664  1.00  0.00    -0.617 OA
HETATM   20  O5  UNL     1     -19.098   5.286   1.923  1.00  0.00    -0.617 OA
ENDBRANCH  16  17
ENDBRANCH  15  16
ENDBRANCH  14  15
ENDBRANCH  13  14
ENDBRANCH  12  13
ENDBRANCH   7  12
TORSDOF 6
ENDMDL
