MODEL 3
REMARK VINA RESULT: -6.115710181      4.463      6.393
REMARK  10 active torsions:
REMARK  status: ('A' for Active; 'I' for Inactive)
REMARK    1  A    between atoms: N1_1  and  C1_5 
REMARK    2  A    between atoms: C1_5  and  C2_6 
REMARK    3  A    between atoms: C1_5  and  C10_23 
REMARK    4  A    between atoms: C2_6  and  C3_7 
REMARK    5  A    between atoms: C3_7  and  C4_8 
REMARK       I    between atoms: C4_8  and  N2_10 
REMARK    6  A    between atoms: N2_10  and  C5_12 
REMARK    7  A    between atoms: C5_12  and  C6_13 
REMARK    8  A    between atoms: C5_12  and  C7_15 
REMARK       I    between atoms: C7_15  and  N3_17 
REMARK    9  A    between atoms: N3_17  and  C8_19 
REMARK   10  A    between atoms: C8_19  and  C9_20 
ROOT
HETATM    1  C4  UNL     1       4.873   9.496  42.830  1.00  0.00     0.218 C 
HETATM    2  O1  UNL     1       5.986   9.214  43.328  1.00  0.00    -0.274 OA
HETATM    3  N2  UNL     1       3.909   8.487  42.708  1.00  0.00    -0.347 N 
ATOM      4  H2  UNL     1       3.006   8.731  42.301  1.00  0.00     0.163 HD
ENDROOT
BRANCH   3   5
HETATM    5  C5  UNL     1       4.125   7.097  43.133  1.00  0.00     0.186 C 
BRANCH   5   6
HETATM    6  C6  UNL     1       3.048   6.876  44.204  1.00  0.00     0.120 C 
HETATM    7  S1  UNL     1       1.652   7.961  43.893  1.00  0.00    -0.095 SA
ENDBRANCH   5   6
BRANCH   5   8
HETATM    8  C7  UNL     1       3.780   6.225  41.984  1.00  0.00     0.241 C 
HETATM    9  O2  UNL     1       3.520   4.993  42.221  1.00  0.00    -0.271 OA
HETATM   10  N3  UNL     1       3.717   6.661  40.635  1.00  0.00    -0.349 N 
ATOM     11  H3  UNL     1       3.910   7.633  40.389  1.00  0.00     0.163 HD
BRANCH  10  12
HETATM   12  C8  UNL     1       3.371   5.691  39.618  1.00  0.00     0.235 C 
BRANCH  12  13
HETATM   13  C9  UNL     1       2.910   6.407  38.407  1.00  0.00     0.191 C 
HETATM   14  O3  UNL     1       3.690   6.599  37.439  1.00  0.00    -0.647 OA
HETATM   15  O4  UNL     1       1.585   6.878  38.332  1.00  0.00    -0.647 OA
ENDBRANCH  12  13
ENDBRANCH  10  12
ENDBRANCH   5   8
ENDBRANCH   3   5
BRANCH   1  16
HETATM   16  C3  UNL     1       4.554  10.868  42.369  1.00  0.00     0.105 C 
BRANCH  16  17
HETATM   17  C2  UNL     1       4.667  11.795  43.549  1.00  0.00     0.053 C 
BRANCH  17  18
HETATM   18  C1  UNL     1       3.329  11.782  44.288  1.00  0.00     0.283 C 
BRANCH  18  19
HETATM   19  N1  UNL     1       3.573  12.424  45.566  1.00  0.00    -0.065 N 
ATOM     20  H13 UNL     1       3.531  11.784  46.358  1.00  0.00     0.275 HD
ATOM     21  H12 UNL     1       4.541  12.718  45.696  1.00  0.00     0.275 HD
ATOM     22  H11 UNL     1       2.903  13.191  45.627  1.00  0.00     0.275 HD
ENDBRANCH  18  19
BRANCH  18  23
HETATM   23  C10 UNL     1       2.370  12.528  43.461  1.00  0.00     0.204 C 
HETATM   24  O5  UNL     1       2.644  13.685  43.075  1.00  0.00    -0.646 OA
HETATM   25  O6  UNL     1       1.154  11.984  43.088  1.00  0.00    -0.646 OA
ENDBRANCH  18  23
ENDBRANCH  17  18
ENDBRANCH  16  17
ENDBRANCH   1  16
TORSDOF 10
ENDMDL
