MODEL 16
REMARK VINA RESULT: -5.791375477      5.273      8.539
REMARK  10 active torsions:
REMARK  status: ('A' for Active; 'I' for Inactive)
REMARK    1  A    between atoms: N1_1  and  C1_5 
REMARK    2  A    between atoms: C1_5  and  C2_6 
REMARK    3  A    between atoms: C1_5  and  C10_23 
REMARK    4  A    between atoms: C2_6  and  C3_7 
REMARK    5  A    between atoms: C3_7  and  C4_8 
REMARK       I    between atoms: C4_8  and  N2_10 
REMARK    6  A    between atoms: N2_10  and  C5_12 
REMARK    7  A    between atoms: C5_12  and  C6_13 
REMARK    8  A    between atoms: C5_12  and  C7_15 
REMARK       I    between atoms: C7_15  and  N3_17 
REMARK    9  A    between atoms: N3_17  and  C8_19 
REMARK   10  A    between atoms: C8_19  and  C9_20 
ROOT
HETATM    1  C4  UNL     1       5.704   9.992  42.546  1.00  0.00     0.218 C 
HETATM    2  O1  UNL     1       5.342   8.794  42.516  1.00  0.00    -0.274 OA
HETATM    3  N2  UNL     1       6.899  10.356  41.914  1.00  0.00    -0.347 N 
ATOM      4  H2  UNL     1       7.181  11.336  41.945  1.00  0.00     0.163 HD
ENDROOT
BRANCH   3   5
HETATM    5  C5  UNL     1       7.771   9.407  41.207  1.00  0.00     0.186 C 
BRANCH   5   6
HETATM    6  C6  UNL     1       7.192   9.375  39.786  1.00  0.00     0.120 C 
HETATM    7  S1  UNL     1       7.002   7.673  39.248  1.00  0.00    -0.095 SA
ENDBRANCH   5   6
BRANCH   5   8
HETATM    8  C7  UNL     1       9.116  10.026  41.114  1.00  0.00     0.241 C 
HETATM    9  O2  UNL     1       9.190  11.304  41.126  1.00  0.00    -0.271 OA
HETATM   10  N3  UNL     1      10.330   9.298  41.014  1.00  0.00    -0.349 N 
ATOM     11  H3  UNL     1      10.330   8.278  41.004  1.00  0.00     0.163 HD
BRANCH  10  12
HETATM   12  C8  UNL     1      11.567  10.043  40.926  1.00  0.00     0.235 C 
BRANCH  12  13
HETATM   13  C9  UNL     1      12.302   9.910  42.204  1.00  0.00     0.191 C 
HETATM   14  O3  UNL     1      13.414  10.475  42.367  1.00  0.00    -0.647 OA
HETATM   15  O4  UNL     1      11.755   9.143  43.252  1.00  0.00    -0.647 OA
ENDBRANCH  12  13
ENDBRANCH  10  12
ENDBRANCH   5   8
ENDBRANCH   3   5
BRANCH   1  16
HETATM   16  C3  UNL     1       4.897  11.029  43.232  1.00  0.00     0.105 C 
BRANCH  16  17
HETATM   17  C2  UNL     1       3.510  10.482  43.437  1.00  0.00     0.053 C 
BRANCH  17  18
HETATM   18  C1  UNL     1       2.760  11.438  44.363  1.00  0.00     0.283 C 
BRANCH  18  19
HETATM   19  N1  UNL     1       3.778  12.226  45.033  1.00  0.00    -0.065 N 
ATOM     20  H13 UNL     1       4.567  11.672  45.364  1.00  0.00     0.275 HD
ATOM     21  H12 UNL     1       4.306  12.829  44.403  1.00  0.00     0.275 HD
ATOM     22  H11 UNL     1       3.296  12.733  45.776  1.00  0.00     0.275 HD
ENDBRANCH  18  19
BRANCH  18  23
HETATM   23  C10 UNL     1       1.884  12.261  43.517  1.00  0.00     0.204 C 
HETATM   24  O5  UNL     1       0.669  11.981  43.414  1.00  0.00    -0.646 OA
HETATM   25  O6  UNL     1       2.365  13.354  42.819  1.00  0.00    -0.646 OA
ENDBRANCH  18  23
ENDBRANCH  17  18
ENDBRANCH  16  17
ENDBRANCH   1  16
TORSDOF 10
ENDMDL
