MODEL 2
REMARK VINA RESULT: -7.379994200      1.656      1.744
REMARK  8 active torsions:
REMARK  status: ('A' for Active; 'I' for Inactive)
REMARK       I    between atoms: C2_2  and  N1_4 
REMARK    1  A    between atoms: N1_4  and  C3_6 
REMARK    2  A    between atoms: N2_8  and  O2_10 
REMARK    3  A    between atoms: O2_10  and  C5_11 
REMARK       I    between atoms: C5_11  and  N3_13 
REMARK    4  A    between atoms: N3_13  and  C6_15 
REMARK    5  A    between atoms: C12_22  and  C13_23 
REMARK    6  A    between atoms: C13_23  and  O5_24 
REMARK    7  A    between atoms: C14_26  and  O6_27 
REMARK    8  A    between atoms: C15_29  and  O7_30 
ROOT
HETATM    1  C3  UNL     1      29.559  40.641  21.208  1.00  0.00     0.192 C 
HETATM    2  C4  UNL     1      30.707  40.829  20.288  1.00  0.00     0.165 C 
HETATM    3  N2  UNL     1      30.680  40.249  19.142  1.00  0.00    -0.236 N 
ATOM      4  H2  UNL     1      29.865  39.681  18.914  1.00  0.00     0.197 HD
HETATM    5  O4  UNL     1      31.739  41.613  20.709  1.00  0.00    -0.326 OA
HETATM    6  C12 UNL     1      31.909  42.124  22.003  1.00  0.00     0.185 C 
HETATM    7  C14 UNL     1      31.040  41.524  23.039  1.00  0.00     0.180 C 
HETATM    8  C15 UNL     1      30.140  40.435  22.591  1.00  0.00     0.180 C 
ENDROOT
BRANCH   1   9
HETATM    9  N1  UNL     1      28.742  41.852  21.286  1.00  0.00    -0.347 N 
HETATM   10  C2  UNL     1      27.690  42.127  20.383  1.00  0.00     0.214 C 
HETATM   11  C1  UNL     1      26.846  43.340  20.434  1.00  0.00     0.117 C 
HETATM   12  O1  UNL     1      27.482  41.250  19.478  1.00  0.00    -0.274 OA
ATOM     13  H1  UNL     1      28.941  42.527  22.024  1.00  0.00     0.163 HD
ENDBRANCH   1   9
BRANCH   3  14
HETATM   14  O2  UNL     1      31.669  40.345  18.214  1.00  0.00    -0.179 OA
BRANCH  14  15
HETATM   15  C5  UNL     1      31.751  39.297  17.257  1.00  0.00     0.387 C 
HETATM   16  O3  UNL     1      30.943  38.348  17.366  1.00  0.00    -0.236 OA
HETATM   17  N3  UNL     1      32.706  39.355  16.251  1.00  0.00    -0.301 N 
ATOM     18  H3  UNL     1      33.325  40.165  16.243  1.00  0.00     0.171 HD
BRANCH  17  19
HETATM   19  C6  UNL     1      32.889  38.401  15.251  1.00  0.00     0.036 A 
HETATM   20  C7  UNL     1      34.079  37.669  15.283  1.00  0.00     0.029 A 
HETATM   21  C8  UNL     1      34.332  36.727  14.323  1.00  0.00     0.002 A 
HETATM   22  C9  UNL     1      33.410  36.503  13.326  1.00  0.00     0.000 A 
HETATM   23  C10 UNL     1      32.238  37.215  13.285  1.00  0.00     0.002 A 
HETATM   24  C11 UNL     1      31.978  38.179  14.266  1.00  0.00     0.029 A 
ENDBRANCH  17  19
ENDBRANCH  14  15
ENDBRANCH   3  14
BRANCH   8  25
HETATM   25  O7  UNL     1      30.731  39.181  22.614  1.00  0.00    -0.390 OA
ATOM     26  H7  UNL     1      31.145  39.075  23.462  1.00  0.00     0.210 HD
ENDBRANCH   8  25
BRANCH   6  27
HETATM   27  C13 UNL     1      33.387  41.919  22.358  1.00  0.00     0.199 C 
BRANCH  27  28
HETATM   28  O5  UNL     1      33.578  40.749  23.063  1.00  0.00    -0.398 OA
ATOM     29  H5  UNL     1      34.422  40.740  23.499  1.00  0.00     0.209 HD
ENDBRANCH  27  28
ENDBRANCH   6  27
BRANCH   7  30
HETATM   30  O6  UNL     1      30.298  42.566  23.641  1.00  0.00    -0.390 OA
ATOM     31  H6  UNL     1      30.886  43.299  23.780  1.00  0.00     0.210 HD
ENDBRANCH   7  30
TORSDOF 8
ENDMDL
