MODEL 5
REMARK VINA RESULT: -6.720917400      2.962      8.124
REMARK  8 active torsions:
REMARK  status: ('A' for Active; 'I' for Inactive)
REMARK       I    between atoms: C2_2  and  N1_4 
REMARK    1  A    between atoms: N1_4  and  C3_6 
REMARK    2  A    between atoms: N2_8  and  O2_10 
REMARK    3  A    between atoms: O2_10  and  C5_11 
REMARK       I    between atoms: C5_11  and  N3_13 
REMARK    4  A    between atoms: N3_13  and  C6_15 
REMARK    5  A    between atoms: C12_22  and  C13_23 
REMARK    6  A    between atoms: C13_23  and  O5_24 
REMARK    7  A    between atoms: C14_26  and  O6_27 
REMARK    8  A    between atoms: C15_29  and  O7_30 
ROOT
HETATM    1  C3  UNL     1      32.442  37.320  14.452  1.00  0.00     0.192 C 
HETATM    2  C4  UNL     1      32.799  38.456  15.335  1.00  0.00     0.165 C 
HETATM    3  N2  UNL     1      31.865  39.237  15.745  1.00  0.00    -0.236 N 
ATOM      4  H2  UNL     1      30.911  39.040  15.441  1.00  0.00     0.197 HD
HETATM    5  O4  UNL     1      34.111  38.615  15.670  1.00  0.00    -0.326 OA
HETATM    6  C12 UNL     1      35.191  37.912  15.120  1.00  0.00     0.185 C 
HETATM    7  C14 UNL     1      34.886  37.147  13.890  1.00  0.00     0.180 C 
HETATM    8  C15 UNL     1      33.502  37.258  13.374  1.00  0.00     0.180 C 
ENDROOT
BRANCH   1   9
HETATM    9  N1  UNL     1      32.518  36.049  15.172  1.00  0.00    -0.347 N 
HETATM   10  C2  UNL     1      31.373  35.351  15.620  1.00  0.00     0.214 C 
HETATM   11  C1  UNL     1      31.415  34.066  16.349  1.00  0.00     0.117 C 
HETATM   12  O1  UNL     1      30.246  35.895  15.362  1.00  0.00    -0.274 OA
ATOM     13  H1  UNL     1      33.437  35.648  15.358  1.00  0.00     0.163 HD
ENDBRANCH   1   9
BRANCH   3  14
HETATM   14  O2  UNL     1      32.066  40.309  16.556  1.00  0.00    -0.179 OA
BRANCH  14  15
HETATM   15  C5  UNL     1      31.511  40.235  17.863  1.00  0.00     0.387 C 
HETATM   16  O3  UNL     1      30.705  39.307  18.098  1.00  0.00    -0.236 OA
HETATM   17  N3  UNL     1      31.873  41.173  18.820  1.00  0.00    -0.301 N 
ATOM     18  H3  UNL     1      32.534  41.896  18.538  1.00  0.00     0.171 HD
BRANCH  17  19
HETATM   19  C6  UNL     1      31.408  41.210  20.134  1.00  0.00     0.036 A 
HETATM   20  C7  UNL     1      32.363  41.098  21.148  1.00  0.00     0.029 A 
HETATM   21  C8  UNL     1      31.976  41.112  22.460  1.00  0.00     0.002 A 
HETATM   22  C9  UNL     1      30.643  41.235  22.778  1.00  0.00     0.000 A 
HETATM   23  C10 UNL     1      29.697  41.346  21.791  1.00  0.00     0.002 A 
HETATM   24  C11 UNL     1      30.090  41.333  20.448  1.00  0.00     0.029 A 
ENDBRANCH  17  19
ENDBRANCH  14  15
ENDBRANCH   3  14
BRANCH   8  25
HETATM   25  O7  UNL     1      33.309  38.343  12.533  1.00  0.00    -0.390 OA
ATOM     26  H7  UNL     1      33.373  38.028  11.639  1.00  0.00     0.210 HD
ENDBRANCH   8  25
BRANCH   6  27
HETATM   27  C13 UNL     1      36.289  38.948  14.849  1.00  0.00     0.199 C 
BRANCH  27  28
HETATM   28  O5  UNL     1      37.525  38.490  15.256  1.00  0.00    -0.398 OA
ATOM     29  H5  UNL     1      38.197  39.150  15.135  1.00  0.00     0.209 HD
ENDBRANCH  27  28
ENDBRANCH   6  27
BRANCH   7  30
HETATM   30  O6  UNL     1      35.223  35.794  14.125  1.00  0.00    -0.390 OA
ATOM     31  H6  UNL     1      34.473  35.262  13.889  1.00  0.00     0.210 HD
ENDBRANCH   7  30
TORSDOF 8
ENDMDL
