MODEL 7
REMARK VINA RESULT: -6.601466922      2.620      7.149
REMARK  8 active torsions:
REMARK  status: ('A' for Active; 'I' for Inactive)
REMARK       I    between atoms: C2_2  and  N1_4 
REMARK    1  A    between atoms: N1_4  and  C3_6 
REMARK    2  A    between atoms: N2_8  and  O2_10 
REMARK    3  A    between atoms: O2_10  and  C5_11 
REMARK       I    between atoms: C5_11  and  N3_13 
REMARK    4  A    between atoms: N3_13  and  C6_15 
REMARK    5  A    between atoms: C12_22  and  C13_23 
REMARK    6  A    between atoms: C13_23  and  O5_24 
REMARK    7  A    between atoms: C14_26  and  O6_27 
REMARK    8  A    between atoms: C15_29  and  O7_30 
ROOT
HETATM    1  C3  UNL     1      30.710  42.026  20.267  1.00  0.00     0.192 C 
HETATM    2  C4  UNL     1      29.333  41.599  20.614  1.00  0.00     0.165 C 
HETATM    3  N2  UNL     1      28.344  42.160  20.016  1.00  0.00    -0.236 N 
ATOM      4  H2  UNL     1      28.551  42.880  19.324  1.00  0.00     0.197 HD
HETATM    5  O4  UNL     1      29.186  40.625  21.557  1.00  0.00    -0.326 OA
HETATM    6  C12 UNL     1      30.204  40.104  22.366  1.00  0.00     0.185 C 
HETATM    7  C14 UNL     1      31.465  40.880  22.374  1.00  0.00     0.180 C 
HETATM    8  C15 UNL     1      31.475  42.124  21.570  1.00  0.00     0.180 C 
ENDROOT
BRANCH   1   9
HETATM    9  N1  UNL     1      31.392  41.007  19.469  1.00  0.00    -0.347 N 
HETATM   10  C2  UNL     1      31.051  40.729  18.126  1.00  0.00     0.214 C 
HETATM   11  C1  UNL     1      31.720  39.708  17.292  1.00  0.00     0.117 C 
HETATM   12  O1  UNL     1      30.099  41.424  17.632  1.00  0.00    -0.274 OA
ATOM     13  H1  UNL     1      32.147  40.475  19.901  1.00  0.00     0.163 HD
ENDBRANCH   1   9
BRANCH   3  14
HETATM   14  O2  UNL     1      27.039  41.855  20.247  1.00  0.00    -0.179 OA
BRANCH  14  15
HETATM   15  C5  UNL     1      26.075  42.805  19.813  1.00  0.00     0.387 C 
HETATM   16  O3  UNL     1      25.193  42.414  19.015  1.00  0.00    -0.236 OA
HETATM   17  N3  UNL     1      26.137  44.112  20.276  1.00  0.00    -0.301 N 
ATOM     18  H3  UNL     1      26.892  44.343  20.921  1.00  0.00     0.171 HD
BRANCH  17  19
HETATM   19  C6  UNL     1      25.254  45.136  19.935  1.00  0.00     0.036 A 
HETATM   20  C7  UNL     1      25.609  45.945  18.851  1.00  0.00     0.029 A 
HETATM   21  C8  UNL     1      24.797  46.979  18.472  1.00  0.00     0.002 A 
HETATM   22  C9  UNL     1      23.630  47.220  19.160  1.00  0.00     0.000 A 
HETATM   23  C10 UNL     1      23.272  46.433  20.225  1.00  0.00     0.002 A 
HETATM   24  C11 UNL     1      24.101  45.374  20.615  1.00  0.00     0.029 A 
ENDBRANCH  17  19
ENDBRANCH  14  15
ENDBRANCH   3  14
BRANCH   8  25
HETATM   25  O7  UNL     1      30.999  43.231  22.253  1.00  0.00    -0.390 OA
ATOM     26  H7  UNL     1      30.968  43.008  23.176  1.00  0.00     0.210 HD
ENDBRANCH   8  25
BRANCH   6  27
HETATM   27  C13 UNL     1      29.625  40.008  23.783  1.00  0.00     0.199 C 
BRANCH  27  28
HETATM   28  O5  UNL     1      29.863  41.159  24.504  1.00  0.00    -0.398 OA
ATOM     29  H5  UNL     1      29.085  41.700  24.562  1.00  0.00     0.209 HD
ENDBRANCH  27  28
ENDBRANCH   6  27
BRANCH   7  30
HETATM   30  O6  UNL     1      32.509  40.016  21.969  1.00  0.00    -0.390 OA
ATOM     31  H6  UNL     1      33.110  40.517  21.432  1.00  0.00     0.210 HD
ENDBRANCH   7  30
TORSDOF 8
ENDMDL
