MODEL 9
REMARK VINA RESULT: -5.300114418      6.890      8.174
REMARK  4 active torsions:
REMARK  status: ('A' for Active; 'I' for Inactive)
REMARK    1  A    between atoms: O1_1  and  C1_3 
REMARK    2  A    between atoms: C5_8  and  O2_9 
REMARK    3  A    between atoms: C7_12  and  O3_13 
REMARK    4  A    between atoms: C8_15  and  O4_16 
ROOT
HETATM    1  C1  UNL     1      -3.207   8.052  15.781  1.00  0.00     0.177 C 
HETATM    2  C2  UNL     1      -2.089   7.678  14.848  1.00  0.00     0.307 C 
HETATM    3  N1  UNL     1      -1.079   6.927  15.554  1.00  0.00     0.101 N 
HETATM    4  C3  UNL     1       0.042   6.609  14.724  1.00  0.00     0.276 C 
HETATM    5  C4  UNL     1      -0.012   5.149  14.397  1.00  0.00     0.064 C 
HETATM    6  C5  UNL     1      -0.895   4.565  15.476  1.00  0.00     0.155 C 
HETATM    7  C6  UNL     1      -1.556   5.732  16.166  1.00  0.00     0.282 C 
HETATM    8  C7  UNL     1      -3.065   5.618  16.178  1.00  0.00     0.185 C 
HETATM    9  C8  UNL     1      -3.614   6.935  16.696  1.00  0.00     0.179 C 
ENDROOT
BRANCH   1  10
HETATM   10  O1  UNL     1      -2.844   9.149  16.583  1.00  0.00    -0.391 OA
ATOM     11  H1  UNL     1      -3.146   9.964  16.199  1.00  0.00     0.210 HD
ENDBRANCH   1  10
BRANCH   9  12
HETATM   12  O4  UNL     1      -5.005   6.900  16.813  1.00  0.00    -0.390 OA
ATOM     13  H4  UNL     1      -5.367   7.760  16.633  1.00  0.00     0.210 HD
ENDBRANCH   9  12
BRANCH   8  14
HETATM   14  O3  UNL     1      -3.444   4.642  17.117  1.00  0.00    -0.391 OA
ATOM     15  H3  UNL     1      -3.192   3.786  16.791  1.00  0.00     0.210 HD
ENDBRANCH   8  14
BRANCH   6  16
HETATM   16  O2  UNL     1      -1.808   3.648  14.971  1.00  0.00    -0.393 OA
ATOM     17  H2  UNL     1      -1.506   2.752  15.064  1.00  0.00     0.210 HD
ENDBRANCH   6  16
TORSDOF 4
ENDMDL
