MODEL 8
REMARK VINA RESULT: -5.312379297      2.994      4.526
REMARK  4 active torsions:
REMARK  status: ('A' for Active; 'I' for Inactive)
REMARK    1  A    between atoms: O1_1  and  C1_3 
REMARK    2  A    between atoms: C5_8  and  O2_9 
REMARK    3  A    between atoms: C7_12  and  O3_13 
REMARK    4  A    between atoms: C8_15  and  O4_16 
ROOT
HETATM    1  C1  UNL     1      -1.980   8.303  13.169  1.00  0.00     0.177 C 
HETATM    2  C2  UNL     1      -2.660   8.757  11.908  1.00  0.00     0.307 C 
HETATM    3  N1  UNL     1      -1.815   9.680  11.190  1.00  0.00     0.101 N 
HETATM    4  C3  UNL     1      -2.449  10.198  10.017  1.00  0.00     0.276 C 
HETATM    5  C4  UNL     1      -1.813   9.563   8.818  1.00  0.00     0.064 C 
HETATM    6  C5  UNL     1      -0.477   9.073   9.330  1.00  0.00     0.155 C 
HETATM    7  C6  UNL     1      -0.539   9.155  10.834  1.00  0.00     0.282 C 
HETATM    8  C7  UNL     1      -0.222   7.833  11.500  1.00  0.00     0.185 C 
HETATM    9  C8  UNL     1      -0.525   7.987  12.979  1.00  0.00     0.179 C 
ENDROOT
BRANCH   1  10
HETATM   10  O1  UNL     1      -2.074   9.286  14.172  1.00  0.00    -0.391 OA
ATOM     11  H1  UNL     1      -2.806   9.110  14.751  1.00  0.00     0.210 HD
ENDBRANCH   1  10
BRANCH   9  12
HETATM   12  O4  UNL     1      -0.192   6.833  13.693  1.00  0.00    -0.390 OA
ATOM     13  H4  UNL     1       0.476   6.345  13.225  1.00  0.00     0.210 HD
ENDBRANCH   9  12
BRANCH   8  14
HETATM   14  O3  UNL     1       1.162   7.595  11.409  1.00  0.00    -0.391 OA
ATOM     15  H3  UNL     1       1.449   7.778  10.522  1.00  0.00     0.210 HD
ENDBRANCH   8  14
BRANCH   6  16
HETATM   16  O2  UNL     1      -0.173   7.798   8.870  1.00  0.00    -0.393 OA
ATOM     17  H2  UNL     1       0.691   7.754   8.478  1.00  0.00     0.210 HD
ENDBRANCH   6  16
TORSDOF 4
ENDMDL
