MODEL 1
REMARK VINA RESULT: -7.004186999      0.000      0.000
REMARK  4 active torsions:
REMARK  status: ('A' for Active; 'I' for Inactive)
REMARK    1  A    between atoms: O1_1  and  C1_3 
REMARK    2  A    between atoms: C5_8  and  O2_9 
REMARK    3  A    between atoms: C7_12  and  O3_13 
REMARK    4  A    between atoms: C8_15  and  O4_16 
ROOT
HETATM    1  C1  UNL     1       0.309  11.324   9.441  1.00  0.00     0.177 C 
HETATM    2  C2  UNL     1      -0.050  10.300  10.481  1.00  0.00     0.307 C 
HETATM    3  N1  UNL     1      -1.436  10.435  10.857  1.00  0.00     0.101 N 
HETATM    4  C3  UNL     1      -1.809   9.527  11.898  1.00  0.00     0.276 C 
HETATM    5  C4  UNL     1      -2.660   8.449  11.302  1.00  0.00     0.064 C 
HETATM    6  C5  UNL     1      -3.171   9.056  10.016  1.00  0.00     0.155 C 
HETATM    7  C6  UNL     1      -2.354  10.300   9.775  1.00  0.00     0.282 C 
HETATM    8  C7  UNL     1      -1.691  10.302   8.414  1.00  0.00     0.185 C 
HETATM    9  C8  UNL     1      -0.738  11.483   8.378  1.00  0.00     0.179 C 
ENDROOT
BRANCH   1  10
HETATM   10  O1  UNL     1       0.513  12.586  10.029  1.00  0.00    -0.391 OA
ATOM     11  H1  UNL     1       1.041  13.140   9.467  1.00  0.00     0.210 HD
ENDBRANCH   1  10
BRANCH   9  12
HETATM   12  O4  UNL     1      -0.129  11.611   7.127  1.00  0.00    -0.390 OA
ATOM     13  H4  UNL     1      -0.623  11.128   6.476  1.00  0.00     0.210 HD
ENDBRANCH   9  12
BRANCH   8  14
HETATM   14  O3  UNL     1      -2.664  10.557   7.431  1.00  0.00    -0.391 OA
ATOM     15  H3  UNL     1      -3.486  10.165   7.702  1.00  0.00     0.210 HD
ENDBRANCH   8  14
BRANCH   6  16
HETATM   16  O2  UNL     1      -3.121   8.161   8.955  1.00  0.00    -0.393 OA
ATOM     17  H2  UNL     1      -3.831   7.531   8.981  1.00  0.00     0.210 HD
ENDBRANCH   6  16
TORSDOF 4
ENDMDL
