MODEL 5
REMARK VINA RESULT: -5.604655594      5.330      7.010
REMARK  4 active torsions:
REMARK  status: ('A' for Active; 'I' for Inactive)
REMARK    1  A    between atoms: O1_1  and  C1_3 
REMARK    2  A    between atoms: C5_8  and  O2_9 
REMARK    3  A    between atoms: C7_12  and  O3_13 
REMARK    4  A    between atoms: C8_15  and  O4_16 
ROOT
HETATM    1  C1  UNL     1      -3.530   7.499  16.579  1.00  0.00     0.177 C 
HETATM    2  C2  UNL     1      -2.838   6.308  15.979  1.00  0.00     0.307 C 
HETATM    3  N1  UNL     1      -3.001   6.305  14.545  1.00  0.00     0.101 N 
HETATM    4  C3  UNL     1      -2.420   5.150  13.933  1.00  0.00     0.276 C 
HETATM    5  C4  UNL     1      -1.170   5.570  13.224  1.00  0.00     0.064 C 
HETATM    6  C5  UNL     1      -1.344   7.059  13.027  1.00  0.00     0.155 C 
HETATM    7  C6  UNL     1      -2.505   7.473  13.895  1.00  0.00     0.282 C 
HETATM    8  C7  UNL     1      -2.145   8.590  14.850  1.00  0.00     0.185 C 
HETATM    9  C8  UNL     1      -3.313   8.765  15.803  1.00  0.00     0.179 C 
ENDROOT
BRANCH   1  10
HETATM   10  O1  UNL     1      -4.918   7.284  16.662  1.00  0.00    -0.391 OA
ATOM     11  H1  UNL     1      -5.300   7.804  17.359  1.00  0.00     0.210 HD
ENDBRANCH   1  10
BRANCH   9  12
HETATM   12  O4  UNL     1      -3.102   9.830  16.682  1.00  0.00    -0.390 OA
ATOM     13  H4  UNL     1      -3.170  10.654  16.214  1.00  0.00     0.210 HD
ENDBRANCH   9  12
BRANCH   8  14
HETATM   14  O3  UNL     1      -2.047   9.794  14.130  1.00  0.00    -0.391 OA
ATOM     15  H3  UNL     1      -1.403  10.353  14.549  1.00  0.00     0.210 HD
ENDBRANCH   8  14
BRANCH   6  16
HETATM   16  O2  UNL     1      -0.182   7.767  13.304  1.00  0.00    -0.393 OA
ATOM     17  H2  UNL     1      -0.304   8.705  13.223  1.00  0.00     0.210 HD
ENDBRANCH   6  16
TORSDOF 4
ENDMDL
