MODEL 2
REMARK VINA RESULT: -6.616233530      7.450      8.971
REMARK  4 active torsions:
REMARK  status: ('A' for Active; 'I' for Inactive)
REMARK    1  A    between atoms: O1_1  and  C1_3 
REMARK    2  A    between atoms: C5_7  and  O2_8 
REMARK    3  A    between atoms: C6_13  and  O3_14 
REMARK    4  A    between atoms: C7_16  and  O4_17 
ROOT
HETATM    1  C1  UNL     1      -1.042   7.042  15.878  1.00  0.00     0.180 C 
HETATM    2  C2  UNL     1      -2.084   7.758  15.065  1.00  0.00     0.221 C 
HETATM    3  C3  UNL     1      -2.765   6.818  14.104  1.00  0.00     0.041 C 
HETATM    4  C4  UNL     1      -3.970   6.309  14.860  1.00  0.00     0.073 C 
HETATM    5  C5  UNL     1      -3.822   6.921  16.222  1.00  0.00     0.253 C 
HETATM    6  N1  UNL     1      -3.164   8.179  15.929  1.00  0.00    -0.034 N 
ATOM      7  H11 UNL     1      -3.769   8.903  15.543  1.00  0.00     0.281 HD
ATOM      8  H12 UNL     1      -2.878   8.717  16.747  1.00  0.00     0.281 HD
HETATM    9  C6  UNL     1      -2.919   6.135  17.135  1.00  0.00     0.212 C 
HETATM   10  C7  UNL     1      -1.650   5.762  16.418  1.00  0.00     0.182 C 
ENDROOT
BRANCH   1  11
HETATM   11  O1  UNL     1       0.060   6.699  15.110  1.00  0.00    -0.391 OA
ATOM     12  H1  UNL     1       0.380   5.830  15.325  1.00  0.00     0.210 HD
ENDBRANCH   1  11
BRANCH  10  13
HETATM   13  O4  UNL     1      -0.759   5.181  17.335  1.00  0.00    -0.390 OA
ATOM     14  H4  UNL     1       0.102   5.124  16.938  1.00  0.00     0.210 HD
ENDBRANCH  10  13
BRANCH   9  15
HETATM   15  O3  UNL     1      -3.594   5.058  17.667  1.00  0.00    -0.388 OA
ATOM     16  H3  UNL     1      -3.300   4.250  17.262  1.00  0.00     0.210 HD
ENDBRANCH   9  15
BRANCH   5  17
HETATM   17  O2  UNL     1      -5.026   7.205  16.832  1.00  0.00    -0.363 OA
ATOM     18  H2  UNL     1      -5.551   6.434  17.014  1.00  0.00     0.212 HD
ENDBRANCH   5  17
TORSDOF 4
ENDMDL
