MODEL 4
REMARK VINA RESULT: -6.177651850      6.656      7.853
REMARK  4 active torsions:
REMARK  status: ('A' for Active; 'I' for Inactive)
REMARK    1  A    between atoms: O1_1  and  C1_3 
REMARK    2  A    between atoms: C5_7  and  O2_8 
REMARK    3  A    between atoms: C6_13  and  O3_14 
REMARK    4  A    between atoms: C7_16  and  O4_17 
ROOT
HETATM    1  C1  UNL     1      -2.394   6.773  13.762  1.00  0.00     0.180 C 
HETATM    2  C2  UNL     1      -3.079   5.641  14.477  1.00  0.00     0.221 C 
HETATM    3  C3  UNL     1      -2.307   5.225  15.702  1.00  0.00     0.041 C 
HETATM    4  C4  UNL     1      -2.900   6.047  16.823  1.00  0.00     0.073 C 
HETATM    5  C5  UNL     1      -3.889   6.936  16.129  1.00  0.00     0.253 C 
HETATM    6  N1  UNL     1      -4.333   6.108  15.026  1.00  0.00    -0.034 N 
ATOM      7  H11 UNL     1      -4.995   5.374  15.276  1.00  0.00     0.281 HD
ATOM      8  H12 UNL     1      -4.951   6.571  14.359  1.00  0.00     0.281 HD
HETATM    9  C6  UNL     1      -3.269   8.179  15.547  1.00  0.00     0.212 C 
HETATM   10  C7  UNL     1      -2.021   7.830  14.784  1.00  0.00     0.182 C 
ENDROOT
BRANCH   1  11
HETATM   11  O1  UNL     1      -1.230   6.354  13.139  1.00  0.00    -0.391 OA
ATOM     12  H1  UNL     1      -0.711   7.089  12.833  1.00  0.00     0.210 HD
ENDBRANCH   1  11
BRANCH  10  13
HETATM   13  O4  UNL     1      -1.558   8.974  14.113  1.00  0.00    -0.390 OA
ATOM     14  H4  UNL     1      -1.459   9.683  14.739  1.00  0.00     0.210 HD
ENDBRANCH  10  13
BRANCH   9  15
HETATM   15  O3  UNL     1      -3.074   9.124  16.530  1.00  0.00    -0.388 OA
ATOM     16  H3  UNL     1      -3.274   8.760  17.384  1.00  0.00     0.210 HD
ENDBRANCH   9  15
BRANCH   5  17
HETATM   17  O2  UNL     1      -4.991   7.241  16.900  1.00  0.00    -0.363 OA
ATOM     18  H2  UNL     1      -5.705   6.621  16.804  1.00  0.00     0.212 HD
ENDBRANCH   5  17
TORSDOF 4
ENDMDL
