MODEL 5
REMARK VINA RESULT: -5.979211180      6.823      8.217
REMARK  4 active torsions:
REMARK  status: ('A' for Active; 'I' for Inactive)
REMARK    1  A    between atoms: O1_1  and  C1_3 
REMARK    2  A    between atoms: C5_7  and  O2_8 
REMARK    3  A    between atoms: C6_13  and  O3_14 
REMARK    4  A    between atoms: C7_16  and  O4_17 
ROOT
HETATM    1  C1  UNL     1      -0.309   6.903  14.971  1.00  0.00     0.180 C 
HETATM    2  C2  UNL     1      -1.344   7.562  14.103  1.00  0.00     0.221 C 
HETATM    3  C3  UNL     1      -2.392   6.573  13.660  1.00  0.00     0.041 C 
HETATM    4  C4  UNL     1      -3.475   6.669  14.708  1.00  0.00     0.073 C 
HETATM    5  C5  UNL     1      -2.913   7.629  15.715  1.00  0.00     0.253 C 
HETATM    6  N1  UNL     1      -2.104   8.506  14.893  1.00  0.00    -0.034 N 
ATOM      7  H11 UNL     1      -2.626   9.198  14.355  1.00  0.00     0.281 HD
ATOM      8  H12 UNL     1      -1.545   9.187  15.408  1.00  0.00     0.281 HD
HETATM    9  C6  UNL     1      -2.001   6.975  16.720  1.00  0.00     0.212 C 
HETATM   10  C7  UNL     1      -1.020   6.072  16.023  1.00  0.00     0.182 C 
ENDROOT
BRANCH   1  11
HETATM   11  O1  UNL     1       0.507   6.054  14.240  1.00  0.00    -0.391 OA
ATOM     12  H1  UNL     1       1.104   5.572  14.800  1.00  0.00     0.210 HD
ENDBRANCH   1  11
BRANCH  10  13
HETATM   13  O4  UNL     1      -0.079   5.609  16.957  1.00  0.00    -0.390 OA
ATOM     14  H4  UNL     1      -0.532   5.344  17.749  1.00  0.00     0.210 HD
ENDBRANCH  10  13
BRANCH   9  15
HETATM   15  O3  UNL     1      -2.739   6.344  17.698  1.00  0.00    -0.388 OA
ATOM     16  H3  UNL     1      -3.104   5.533  17.365  1.00  0.00     0.210 HD
ENDBRANCH   9  15
BRANCH   5  17
HETATM   17  O2  UNL     1      -3.873   8.399  16.338  1.00  0.00    -0.363 OA
ATOM     18  H2  UNL     1      -3.641   8.650  17.225  1.00  0.00     0.212 HD
ENDBRANCH   5  17
TORSDOF 4
ENDMDL
