MODEL 1
REMARK VINA RESULT: -7.549244707      0.000      0.000
REMARK  4 active torsions:
REMARK  status: ('A' for Active; 'I' for Inactive)
REMARK    1  A    between atoms: O1_1  and  C1_3 
REMARK    2  A    between atoms: C5_7  and  O2_8 
REMARK    3  A    between atoms: C6_13  and  O3_14 
REMARK    4  A    between atoms: C7_16  and  O4_17 
ROOT
HETATM    1  C1  UNL     1      -2.361  10.065   8.874  1.00  0.00     0.180 C 
HETATM    2  C2  UNL     1      -1.717   9.845  10.215  1.00  0.00     0.221 C 
HETATM    3  C3  UNL     1      -0.489   8.978  10.094  1.00  0.00     0.041 C 
HETATM    4  C4  UNL     1       0.649   9.955   9.913  1.00  0.00     0.073 C 
HETATM    5  C5  UNL     1      -0.033  11.290   9.845  1.00  0.00     0.253 C 
HETATM    6  N1  UNL     1      -1.184  11.097  10.704  1.00  0.00    -0.034 N 
ATOM      7  H11 UNL     1      -0.985  11.121  11.704  1.00  0.00     0.281 HD
ATOM      8  H12 UNL     1      -1.846  11.872  10.719  1.00  0.00     0.281 HD
HETATM    9  C6  UNL     1      -0.541  11.631   8.469  1.00  0.00     0.212 C 
HETATM   10  C7  UNL     1      -1.282  10.461   7.883  1.00  0.00     0.182 C 
ENDROOT
BRANCH   1  11
HETATM   11  O1  UNL     1      -2.968   8.912   8.403  1.00  0.00    -0.391 OA
ATOM     12  H1  UNL     1      -3.571   9.098   7.693  1.00  0.00     0.210 HD
ENDBRANCH   1  11
BRANCH  10  13
HETATM   13  O4  UNL     1      -1.888  10.858   6.680  1.00  0.00    -0.390 OA
ATOM     14  H4  UNL     1      -1.316  10.633   5.955  1.00  0.00     0.210 HD
ENDBRANCH  10  13
BRANCH   9  15
HETATM   15  O3  UNL     1       0.488  12.090   7.677  1.00  0.00    -0.388 OA
ATOM     16  H3  UNL     1       0.374  11.795   6.782  1.00  0.00     0.210 HD
ENDBRANCH   9  15
BRANCH   5  17
HETATM   17  O2  UNL     1       0.719  12.320  10.370  1.00  0.00    -0.363 OA
ATOM     18  H2  UNL     1       1.184  12.824   9.712  1.00  0.00     0.212 HD
ENDBRANCH   5  17
TORSDOF 4
ENDMDL
