MODEL 1
REMARK VINA RESULT: -5.084893886      0.000      0.000
REMARK  0 active torsions:
REMARK  status: ('A' for Active; 'I' for Inactive)
ROOT
HETATM    1  C1  UNL     1      -0.865  20.037  -6.336  1.00  0.00     0.049 C 
HETATM    2  C2  UNL     1      -0.126  18.802  -6.704  1.00  0.00    -0.054 A 
HETATM    3  C3  UNL     1       0.948  18.817  -7.581  1.00  0.00     0.039 A 
HETATM    4  C4  UNL     1       1.628  17.661  -7.916  1.00  0.00     0.061 A 
HETATM    5  N1  UNL     1       2.679  17.660  -8.771  1.00  0.00    -0.339 N 
ATOM      6  H1  UNL     1       2.980  18.544  -9.182  1.00  0.00     0.167 HD
HETATM    7  C5  UNL     1       3.340  16.534  -9.097  1.00  0.00     0.142 A 
HETATM    8  N2  UNL     1       4.386  16.506  -9.942  1.00  0.00    -0.292 N 
ATOM      9  H2  UNL     1       4.702  17.380 -10.363  1.00  0.00     0.172 HD
HETATM   10  C6  UNL     1       5.034  15.362 -10.253  1.00  0.00     0.328 A 
HETATM   11  O1  UNL     1       6.017  15.398 -11.060  1.00  0.00    -0.247 OA
HETATM   12  N3  UNL     1       4.651  14.181  -9.720  1.00  0.00    -0.273 N 
ATOM     13  H3  UNL     1       5.133  13.312  -9.950  1.00  0.00     0.173 HD
HETATM   14  C7  UNL     1       3.605  14.198  -8.873  1.00  0.00     0.280 A 
HETATM   15  O2  UNL     1       3.230  13.121  -8.366  1.00  0.00    -0.265 OA
HETATM   16  C8  UNL     1       2.922  15.341  -8.532  1.00  0.00     0.146 A 
HETATM   17  N4  UNL     1       1.876  15.351  -7.685  1.00  0.00    -0.347 N 
ATOM     18  H4  UNL     1       1.574  14.467  -7.275  1.00  0.00     0.166 HD
HETATM   19  C9  UNL     1       1.207  16.474  -7.351  1.00  0.00     0.060 A 
HETATM   20  C10 UNL     1       0.135  16.475  -6.480  1.00  0.00     0.039 A 
HETATM   21  C11 UNL     1      -0.554  17.621  -6.134  1.00  0.00    -0.054 A 
HETATM   22  C12 UNL     1      -1.709  17.615  -5.194  1.00  0.00     0.049 C 
ENDROOT
TORSDOF 0
ENDMDL
