MODEL 2
REMARK VINA RESULT: -5.000749570      8.065      9.176
REMARK  0 active torsions:
REMARK  status: ('A' for Active; 'I' for Inactive)
ROOT
HETATM    1  C1  UNL     1       2.264  23.227  -0.071  1.00  0.00     0.049 C 
HETATM    2  C2  UNL     1       1.822  21.824  -0.280  1.00  0.00    -0.054 A 
HETATM    3  C3  UNL     1       2.239  20.788   0.543  1.00  0.00     0.039 A 
HETATM    4  C4  UNL     1       1.821  19.487   0.339  1.00  0.00     0.061 A 
HETATM    5  N1  UNL     1       2.219  18.464   1.135  1.00  0.00    -0.339 N 
ATOM      6  H1  UNL     1       2.850  18.663   1.912  1.00  0.00     0.167 HD
HETATM    7  C5  UNL     1       1.813  17.198   0.935  1.00  0.00     0.142 A 
HETATM    8  N2  UNL     1       2.193  16.166   1.710  1.00  0.00    -0.292 N 
ATOM      9  H2  UNL     1       2.823  16.344   2.492  1.00  0.00     0.172 HD
HETATM   10  C6  UNL     1       1.771  14.901   1.489  1.00  0.00     0.328 A 
HETATM   11  O1  UNL     1       2.165  13.966   2.256  1.00  0.00    -0.247 OA
HETATM   12  N3  UNL     1       0.936  14.618   0.465  1.00  0.00    -0.273 N 
ATOM     13  H3  UNL     1       0.613  13.667   0.290  1.00  0.00     0.173 HD
HETATM   14  C7  UNL     1       0.550  15.644  -0.316  1.00  0.00     0.280 A 
HETATM   15  O2  UNL     1      -0.221  15.409  -1.270  1.00  0.00    -0.265 OA
HETATM   16  C8  UNL     1       0.958  16.942  -0.123  1.00  0.00     0.146 A 
HETATM   17  N4  UNL     1       0.568  17.962  -0.909  1.00  0.00    -0.347 N 
ATOM     18  H4  UNL     1      -0.061  17.764  -1.687  1.00  0.00     0.166 HD
HETATM   19  C9  UNL     1       0.969  19.237  -0.717  1.00  0.00     0.060 A 
HETATM   20  C10 UNL     1       0.563  20.278  -1.529  1.00  0.00     0.039 A 
HETATM   21  C11 UNL     1       0.970  21.584  -1.338  1.00  0.00    -0.054 A 
HETATM   22  C12 UNL     1       0.529  22.703  -2.217  1.00  0.00     0.049 C 
ENDROOT
TORSDOF 0
ENDMDL
