MODEL 3
REMARK VINA RESULT: -4.921765703      8.885     10.366
REMARK  0 active torsions:
REMARK  status: ('A' for Active; 'I' for Inactive)
ROOT
HETATM    1  C1  UNL     1      -0.359  20.288  -2.835  1.00  0.00     0.049 C 
HETATM    2  C2  UNL     1       0.555  20.233  -1.665  1.00  0.00    -0.054 A 
HETATM    3  C3  UNL     1       0.952  19.034  -1.094  1.00  0.00     0.039 A 
HETATM    4  C4  UNL     1       1.804  18.995  -0.006  1.00  0.00     0.061 A 
HETATM    5  N1  UNL     1       2.201  17.831   0.563  1.00  0.00    -0.339 N 
ATOM      6  H1  UNL     1       1.860  16.952   0.174  1.00  0.00     0.167 HD
HETATM    7  C5  UNL     1       3.029  17.794   1.622  1.00  0.00     0.142 A 
HETATM    8  N2  UNL     1       3.439  16.653   2.205  1.00  0.00    -0.292 N 
ATOM      9  H2  UNL     1       3.109  15.763   1.830  1.00  0.00     0.172 HD
HETATM   10  C6  UNL     1       4.271  16.642   3.269  1.00  0.00     0.328 A 
HETATM   11  O1  UNL     1       4.623  15.531   3.777  1.00  0.00    -0.247 OA
HETATM   12  N3  UNL     1       4.734  17.795   3.799  1.00  0.00    -0.273 N 
ATOM     13  H3  UNL     1       5.363  17.797   4.602  1.00  0.00     0.173 HD
HETATM   14  C7  UNL     1       4.331  18.943   3.223  1.00  0.00     0.280 A 
HETATM   15  O2  UNL     1       4.744  20.024   3.693  1.00  0.00    -0.265 OA
HETATM   16  C8  UNL     1       3.486  18.994   2.141  1.00  0.00     0.146 A 
HETATM   17  N4  UNL     1       3.085  20.146   1.570  1.00  0.00    -0.347 N 
ATOM     18  H4  UNL     1       3.425  21.025   1.960  1.00  0.00     0.166 HD
HETATM   19  C9  UNL     1       2.255  20.194   0.507  1.00  0.00     0.060 A 
HETATM   20  C10 UNL     1       1.851  21.381  -0.072  1.00  0.00     0.039 A 
HETATM   21  C11 UNL     1       1.001  21.437  -1.160  1.00  0.00    -0.054 A 
HETATM   22  C12 UNL     1       0.568  22.720  -1.779  1.00  0.00     0.049 C 
ENDROOT
TORSDOF 0
ENDMDL
