MODEL 3
REMARK VINA RESULT: -8.637390483      5.263      7.437
REMARK  0 active torsions:
REMARK  status: ('A' for Active; 'I' for Inactive)
ROOT
HETATM    1  C1  UNL     1       0.701  21.959  -0.777  1.00  0.00     0.049 C 
HETATM    2  C2  UNL     1      -0.077  20.749  -1.151  1.00  0.00    -0.054 A 
HETATM    3  C3  UNL     1      -0.131  20.280  -2.455  1.00  0.00     0.039 A 
HETATM    4  C4  UNL     1      -0.858  19.153  -2.791  1.00  0.00     0.061 A 
HETATM    5  N1  UNL     1      -0.920  18.682  -4.059  1.00  0.00    -0.339 N 
ATOM      6  H1  UNL     1      -0.411  19.176  -4.793  1.00  0.00     0.167 HD
HETATM    7  C5  UNL     1      -1.628  17.586  -4.385  1.00  0.00     0.142 A 
HETATM    8  N2  UNL     1      -1.706  17.097  -5.637  1.00  0.00    -0.292 N 
ATOM      9  H2  UNL     1      -1.204  17.577  -6.384  1.00  0.00     0.172 HD
HETATM   10  C6  UNL     1      -2.424  15.993  -5.939  1.00  0.00     0.328 A 
HETATM   11  O1  UNL     1      -2.460  15.579  -7.141  1.00  0.00    -0.247 OA
HETATM   12  N3  UNL     1      -3.105  15.325  -4.982  1.00  0.00    -0.273 N 
ATOM     13  H3  UNL     1      -3.650  14.492  -5.201  1.00  0.00     0.173 HD
HETATM   14  C7  UNL     1      -3.033  15.806  -3.727  1.00  0.00     0.280 A 
HETATM   15  O2  UNL     1      -3.653  15.207  -2.823  1.00  0.00    -0.265 OA
HETATM   16  C8  UNL     1      -2.314  16.924  -3.381  1.00  0.00     0.146 A 
HETATM   17  N4  UNL     1      -2.248  17.399  -2.123  1.00  0.00    -0.347 N 
ATOM     18  H4  UNL     1      -2.757  16.906  -1.390  1.00  0.00     0.166 HD
HETATM   19  C9  UNL     1      -1.540  18.498  -1.786  1.00  0.00     0.060 A 
HETATM   20  C10 UNL     1      -1.477  18.978  -0.492  1.00  0.00     0.039 A 
HETATM   21  C11 UNL     1      -0.755  20.101  -0.139  1.00  0.00    -0.054 A 
HETATM   22  C12 UNL     1      -0.692  20.614   1.257  1.00  0.00     0.049 C 
ENDROOT
TORSDOF 0
ENDMDL
