MODEL 1
REMARK VINA RESULT: -8.647675276      0.000      0.000
REMARK  0 active torsions:
REMARK  status: ('A' for Active; 'I' for Inactive)
ROOT
HETATM    1  C1  UNL     1      -0.111  23.764  -2.819  1.00  0.00     0.049 C 
HETATM    2  C2  UNL     1       0.385  22.598  -2.042  1.00  0.00    -0.054 A 
HETATM    3  C3  UNL     1       1.173  22.747  -0.910  1.00  0.00     0.039 A 
HETATM    4  C4  UNL     1       1.629  21.655  -0.196  1.00  0.00     0.061 A 
HETATM    5  N1  UNL     1       2.398  21.783   0.912  1.00  0.00    -0.339 N 
ATOM      6  H1  UNL     1       2.650  22.719   1.230  1.00  0.00     0.167 HD
HETATM    7  C5  UNL     1       2.842  20.720   1.606  1.00  0.00     0.142 A 
HETATM    8  N2  UNL     1       3.607  20.820   2.708  1.00  0.00    -0.292 N 
ATOM      9  H2  UNL     1       3.868  21.747   3.043  1.00  0.00     0.172 HD
HETATM   10  C6  UNL     1       4.041  19.736   3.389  1.00  0.00     0.328 A 
HETATM   11  O1  UNL     1       4.762  19.894   4.425  1.00  0.00    -0.247 OA
HETATM   12  N3  UNL     1       3.719  18.488   2.983  1.00  0.00    -0.273 N 
ATOM     13  H3  UNL     1       4.042  17.664   3.491  1.00  0.00     0.173 HD
HETATM   14  C7  UNL     1       2.954  18.377   1.881  1.00  0.00     0.280 A 
HETATM   15  O2  UNL     1       2.642  17.235   1.484  1.00  0.00    -0.265 OA
HETATM   16  C8  UNL     1       2.494  19.455   1.164  1.00  0.00     0.146 A 
HETATM   17  N4  UNL     1       1.730  19.336   0.062  1.00  0.00    -0.347 N 
ATOM     18  H4  UNL     1       1.480  18.400  -0.258  1.00  0.00     0.166 HD
HETATM   19  C9  UNL     1       1.280  20.396  -0.642  1.00  0.00     0.060 A 
HETATM   20  C10 UNL     1       0.495  20.264  -1.771  1.00  0.00     0.039 A 
HETATM   21  C11 UNL     1       0.031  21.345  -2.496  1.00  0.00    -0.054 A 
HETATM   22  C12 UNL     1      -0.814  21.196  -3.713  1.00  0.00     0.049 C 
ENDROOT
TORSDOF 0
ENDMDL
