MODEL 9
REMARK VINA RESULT: -8.407014306      3.290      6.048
REMARK  0 active torsions:
REMARK  status: ('A' for Active; 'I' for Inactive)
ROOT
HETATM    1  C1  UNL     1       4.042  19.832   3.238  1.00  0.00     0.049 C 
HETATM    2  C2  UNL     1       3.198  19.597   2.038  1.00  0.00    -0.054 A 
HETATM    3  C3  UNL     1       2.651  20.639   1.304  1.00  0.00     0.039 A 
HETATM    4  C4  UNL     1       1.867  20.408   0.189  1.00  0.00     0.061 A 
HETATM    5  N1  UNL     1       1.326  21.415  -0.538  1.00  0.00    -0.339 N 
ATOM      6  H1  UNL     1       1.504  22.379  -0.253  1.00  0.00     0.167 HD
HETATM    7  C5  UNL     1       0.562  21.190  -1.621  1.00  0.00     0.142 A 
HETATM    8  N2  UNL     1       0.014  22.171  -2.361  1.00  0.00    -0.292 N 
ATOM      9  H2  UNL     1       0.181  23.141  -2.092  1.00  0.00     0.172 HD
HETATM   10  C6  UNL     1      -0.750  21.919  -3.446  1.00  0.00     0.328 A 
HETATM   11  O1  UNL     1      -1.242  22.889  -4.105  1.00  0.00    -0.247 OA
HETATM   12  N3  UNL     1      -0.998  20.651  -3.840  1.00  0.00    -0.273 N 
ATOM     13  H3  UNL     1      -1.574  20.451  -4.658  1.00  0.00     0.173 HD
HETATM   14  C7  UNL     1      -0.454  19.661  -3.108  1.00  0.00     0.280 A 
HETATM   15  O2  UNL     1      -0.667  18.479  -3.449  1.00  0.00    -0.265 OA
HETATM   16  C8  UNL     1       0.328  19.878  -1.999  1.00  0.00     0.146 A 
HETATM   17  N4  UNL     1       0.868  18.883  -1.270  1.00  0.00    -0.347 N 
ATOM     18  H4  UNL     1       0.689  17.920  -1.554  1.00  0.00     0.166 HD
HETATM   19  C9  UNL     1       1.636  19.099  -0.181  1.00  0.00     0.060 A 
HETATM   20  C10 UNL     1       2.187  18.071   0.560  1.00  0.00     0.039 A 
HETATM   21  C11 UNL     1       2.973  18.285   1.675  1.00  0.00    -0.054 A 
HETATM   22  C12 UNL     1       3.564  17.173   2.470  1.00  0.00     0.049 C 
ENDROOT
TORSDOF 0
ENDMDL
