MODEL 4
REMARK VINA RESULT: -8.636358194      2.953      3.896
REMARK  0 active torsions:
REMARK  status: ('A' for Active; 'I' for Inactive)
ROOT
HETATM    1  C1  UNL     1      -0.841  21.850   0.738  1.00  0.00     0.049 C 
HETATM    2  C2  UNL     1      -0.040  20.659   1.123  1.00  0.00    -0.054 A 
HETATM    3  C3  UNL     1       0.032  20.210   2.433  1.00  0.00     0.039 A 
HETATM    4  C4  UNL     1       0.781  19.101   2.779  1.00  0.00     0.061 A 
HETATM    5  N1  UNL     1       0.861  18.649   4.054  1.00  0.00    -0.339 N 
ATOM      6  H1  UNL     1       0.350  19.145   4.784  1.00  0.00     0.167 HD
HETATM    7  C5  UNL     1       1.591  17.571   4.390  1.00  0.00     0.142 A 
HETATM    8  N2  UNL     1       1.686  17.102   5.647  1.00  0.00    -0.292 N 
ATOM      9  H2  UNL     1       1.182  17.583   6.392  1.00  0.00     0.172 HD
HETATM   10  C6  UNL     1       2.426  16.015   5.960  1.00  0.00     0.328 A 
HETATM   11  O1  UNL     1       2.479  15.619   7.167  1.00  0.00    -0.247 OA
HETATM   12  N3  UNL     1       3.110  15.344   5.007  1.00  0.00    -0.273 N 
ATOM     13  H3  UNL     1       3.672  14.524   5.234  1.00  0.00     0.173 HD
HETATM   14  C7  UNL     1       3.021  15.805   3.745  1.00  0.00     0.280 A 
HETATM   15  O2  UNL     1       3.644  15.204   2.846  1.00  0.00    -0.265 OA
HETATM   16  C8  UNL     1       2.279  16.906   3.389  1.00  0.00     0.146 A 
HETATM   17  N4  UNL     1       2.196  17.362   2.126  1.00  0.00    -0.347 N 
ATOM     18  H4  UNL     1       2.708  16.867   1.395  1.00  0.00     0.166 HD
HETATM   19  C9  UNL     1       1.466  18.443   1.778  1.00  0.00     0.060 A 
HETATM   20  C10 UNL     1       1.385  18.903   0.478  1.00  0.00     0.039 A 
HETATM   21  C11 UNL     1       0.641  20.009   0.115  1.00  0.00    -0.054 A 
HETATM   22  C12 UNL     1       0.558  20.500  -1.288  1.00  0.00     0.049 C 
ENDROOT
TORSDOF 0
ENDMDL
