MODEL 2
REMARK VINA RESULT: -6.263243200      1.117      1.387
REMARK  9 active torsions:
REMARK  status: ('A' for Active; 'I' for Inactive)
REMARK    1  A    between atoms: N4_17  and  C9_18 
REMARK    2  A    between atoms: C9_18  and  C10_19 
REMARK    3  A    between atoms: C10_19  and  O3_20 
REMARK    4  A    between atoms: C10_19  and  C11_22 
REMARK    5  A    between atoms: C11_22  and  O4_23 
REMARK    6  A    between atoms: C11_22  and  C12_25 
REMARK    7  A    between atoms: C12_25  and  O5_26 
REMARK    8  A    between atoms: C12_25  and  C13_28 
REMARK    9  A    between atoms: C13_28  and  O6_29 
ROOT
HETATM    1  C1  UNL     1       0.379  22.676  -2.792  1.00  0.00     0.049 C 
HETATM    2  C2  UNL     1       0.718  21.539  -1.885  1.00  0.00    -0.054 A 
HETATM    3  C3  UNL     1       1.473  21.744  -0.769  1.00  0.00     0.039 A 
HETATM    4  C4  UNL     1       1.791  20.699   0.076  1.00  0.00     0.060 A 
HETATM    5  N1  UNL     1       2.534  20.919   1.171  1.00  0.00    -0.347 N 
ATOM      6  H1  UNL     1       2.873  21.856   1.390  1.00  0.00     0.166 HD
HETATM    7  C5  UNL     1       2.822  19.880   1.973  1.00  0.00     0.146 A 
HETATM    8  C6  UNL     1       3.579  20.006   3.123  1.00  0.00     0.280 A 
HETATM    9  O1  UNL     1       4.031  21.144   3.453  1.00  0.00    -0.265 OA
HETATM   10  N2  UNL     1       3.802  18.898   3.847  1.00  0.00    -0.273 N 
ATOM     11  H2  UNL     1       4.359  18.978   4.698  1.00  0.00     0.173 HD
HETATM   12  C7  UNL     1       3.328  17.687   3.505  1.00  0.00     0.328 A 
HETATM   13  O2  UNL     1       3.604  16.724   4.264  1.00  0.00    -0.247 OA
HETATM   14  N3  UNL     1       2.576  17.486   2.390  1.00  0.00    -0.292 N 
ATOM     15  H3  UNL     1       2.223  16.560   2.146  1.00  0.00     0.172 HD
HETATM   16  C8  UNL     1       2.318  18.558   1.623  1.00  0.00     0.145 A 
HETATM   17  N4  UNL     1       1.566  18.354   0.509  1.00  0.00    -0.327 N 
HETATM   18  C14 UNL     1       1.306  19.424  -0.258  1.00  0.00     0.063 A 
HETATM   19  C15 UNL     1       0.543  19.234  -1.390  1.00  0.00     0.039 A 
HETATM   20  C16 UNL     1       0.234  20.298  -2.229  1.00  0.00    -0.054 A 
HETATM   21  C17 UNL     1      -0.582  20.092  -3.437  1.00  0.00     0.049 C 
ENDROOT
BRANCH  17  22
HETATM   22  C9  UNL     1       1.080  17.070   0.178  1.00  0.00     0.165 C 
BRANCH  22  23
HETATM   23  C10 UNL     1      -0.208  16.660   0.816  1.00  0.00     0.167 C 
BRANCH  23  24
HETATM   24  O3  UNL     1      -0.669  17.408   1.845  1.00  0.00    -0.391 OA
ATOM     25  H3  UNL     1      -1.197  16.976   2.507  1.00  0.00     0.210 HD
ENDBRANCH  23  24
BRANCH  23  26
HETATM   26  C11 UNL     1      -0.078  15.176   1.165  1.00  0.00     0.179 C 
BRANCH  26  27
HETATM   27  O4  UNL     1       0.889  14.985   2.148  1.00  0.00    -0.390 OA
ATOM     28  H4  UNL     1       1.244  15.817   2.436  1.00  0.00     0.210 HD
ENDBRANCH  26  27
BRANCH  26  29
HETATM   29  C12 UNL     1       0.170  14.334  -0.048  1.00  0.00     0.173 C 
BRANCH  29  30
HETATM   30  O5  UNL     1      -0.933  14.481  -0.888  1.00  0.00    -0.391 OA
ATOM     31  H5  UNL     1      -1.688  14.132  -0.427  1.00  0.00     0.210 HD
ENDBRANCH  29  30
BRANCH  29  32
HETATM   32  C13 UNL     1       0.325  12.867   0.293  1.00  0.00     0.198 C 
BRANCH  32  33
HETATM   33  O6  UNL     1       1.637  12.666   0.745  1.00  0.00    -0.398 OA
ATOM     34  H6  UNL     1       2.193  12.547  -0.016  1.00  0.00     0.209 HD
ENDBRANCH  32  33
ENDBRANCH  29  32
ENDBRANCH  26  29
ENDBRANCH  23  26
ENDBRANCH  22  23
ENDBRANCH  17  22
TORSDOF 9
ENDMDL
