MODEL 1
REMARK VINA RESULT: -6.534103331      0.000      0.000
REMARK  9 active torsions:
REMARK  status: ('A' for Active; 'I' for Inactive)
REMARK    1  A    between atoms: N4_17  and  C9_18 
REMARK    2  A    between atoms: C9_18  and  C10_19 
REMARK    3  A    between atoms: C10_19  and  O3_20 
REMARK    4  A    between atoms: C10_19  and  C11_22 
REMARK    5  A    between atoms: C11_22  and  O4_23 
REMARK    6  A    between atoms: C11_22  and  C12_25 
REMARK    7  A    between atoms: C12_25  and  O5_26 
REMARK    8  A    between atoms: C12_25  and  C13_28 
REMARK    9  A    between atoms: C13_28  and  O6_29 
ROOT
HETATM    1  C1  UNL     1       1.124  24.179  -2.121  1.00  0.00     0.049 C 
HETATM    2  C2  UNL     1       1.267  22.859  -1.438  1.00  0.00    -0.054 A 
HETATM    3  C3  UNL     1       1.998  22.747  -0.292  1.00  0.00     0.039 A 
HETATM    4  C4  UNL     1       2.135  21.531   0.347  1.00  0.00     0.060 A 
HETATM    5  N1  UNL     1       2.857  21.440   1.474  1.00  0.00    -0.347 N 
ATOM      6  H1  UNL     1       3.312  22.263   1.869  1.00  0.00     0.166 HD
HETATM    7  C5  UNL     1       2.967  20.241   2.072  1.00  0.00     0.146 A 
HETATM    8  C6  UNL     1       3.688  20.046   3.235  1.00  0.00     0.280 A 
HETATM    9  O1  UNL     1       4.277  21.028   3.778  1.00  0.00    -0.265 OA
HETATM   10  N2  UNL     1       3.728  18.803   3.743  1.00  0.00    -0.273 N 
ATOM     11  H2  UNL     1       4.255  18.646   4.602  1.00  0.00     0.173 HD
HETATM   12  C7  UNL     1       3.106  17.755   3.174  1.00  0.00     0.328 A 
HETATM   13  O2  UNL     1       3.217  16.640   3.744  1.00  0.00    -0.247 OA
HETATM   14  N3  UNL     1       2.379  17.870   2.031  1.00  0.00    -0.292 N 
ATOM     15  H3  UNL     1       1.912  17.064   1.614  1.00  0.00     0.172 HD
HETATM   16  C8  UNL     1       2.301  19.090   1.474  1.00  0.00     0.145 A 
HETATM   17  N4  UNL     1       1.574  19.202   0.331  1.00  0.00    -0.327 N 
HETATM   18  C14 UNL     1       1.494  20.420  -0.226  1.00  0.00     0.063 A 
HETATM   19  C15 UNL     1       0.759  20.551  -1.384  1.00  0.00     0.039 A 
HETATM   20  C16 UNL     1       0.632  21.783  -2.014  1.00  0.00    -0.054 A 
HETATM   21  C17 UNL     1      -0.155  21.920  -3.251  1.00  0.00     0.049 C 
ENDROOT
BRANCH  17  22
HETATM   22  C9  UNL     1       0.931  18.082  -0.241  1.00  0.00     0.165 C 
BRANCH  22  23
HETATM   23  C10 UNL     1      -0.426  17.751   0.291  1.00  0.00     0.167 C 
BRANCH  23  24
HETATM   24  O3  UNL     1      -0.681  18.027   1.591  1.00  0.00    -0.391 OA
ATOM     25  H3  UNL     1      -1.144  18.832   1.791  1.00  0.00     0.210 HD
ENDBRANCH  23  24
BRANCH  23  26
HETATM   26  C11 UNL     1      -0.701  16.290  -0.076  1.00  0.00     0.179 C 
BRANCH  26  27
HETATM   27  O4  UNL     1      -1.690  15.755   0.745  1.00  0.00    -0.390 OA
ATOM     28  H4  UNL     1      -1.465  14.871   1.008  1.00  0.00     0.210 HD
ENDBRANCH  26  27
BRANCH  26  29
HETATM   29  C12 UNL     1       0.548  15.466  -0.073  1.00  0.00     0.173 C 
BRANCH  29  30
HETATM   30  O5  UNL     1       0.562  14.728  -1.257  1.00  0.00    -0.391 OA
ATOM     31  H5  UNL     1       0.054  15.213  -1.897  1.00  0.00     0.210 HD
ENDBRANCH  29  30
BRANCH  29  32
HETATM   32  C13 UNL     1       0.599  14.505   1.095  1.00  0.00     0.198 C 
BRANCH  32  33
HETATM   33  O6  UNL     1       0.830  15.253   2.259  1.00  0.00    -0.398 OA
ATOM     34  H6  UNL     1       0.832  14.653   2.996  1.00  0.00     0.209 HD
ENDBRANCH  32  33
ENDBRANCH  29  32
ENDBRANCH  26  29
ENDBRANCH  23  26
ENDBRANCH  22  23
ENDBRANCH  17  22
TORSDOF 9
ENDMDL
