MODEL 16
REMARK VINA RESULT: -5.879818908      4.439      8.275
REMARK  9 active torsions:
REMARK  status: ('A' for Active; 'I' for Inactive)
REMARK    1  A    between atoms: N4_17  and  C9_18 
REMARK    2  A    between atoms: C9_18  and  C10_19 
REMARK    3  A    between atoms: C10_19  and  O3_20 
REMARK    4  A    between atoms: C10_19  and  C11_22 
REMARK    5  A    between atoms: C11_22  and  O4_23 
REMARK    6  A    between atoms: C11_22  and  C12_25 
REMARK    7  A    between atoms: C12_25  and  O5_26 
REMARK    8  A    between atoms: C12_25  and  C13_28 
REMARK    9  A    between atoms: C13_28  and  O6_29 
ROOT
HETATM    1  C1  UNL     1       2.988  18.345   2.114  1.00  0.00     0.049 C 
HETATM    2  C2  UNL     1       2.520  19.475   1.257  1.00  0.00    -0.054 A 
HETATM    3  C3  UNL     1       1.784  19.236   0.135  1.00  0.00     0.039 A 
HETATM    4  C4  UNL     1       1.347  20.275  -0.663  1.00  0.00     0.060 A 
HETATM    5  N1  UNL     1       0.623  20.021  -1.762  1.00  0.00    -0.347 N 
ATOM      6  H1  UNL     1       0.389  19.062  -2.022  1.00  0.00     0.166 HD
HETATM    7  C5  UNL     1       0.210  21.056  -2.515  1.00  0.00     0.146 A 
HETATM    8  C6  UNL     1      -0.540  20.897  -3.664  1.00  0.00     0.280 A 
HETATM    9  O1  UNL     1      -0.865  19.731  -4.043  1.00  0.00    -0.265 OA
HETATM   10  N2  UNL     1      -0.896  22.004  -4.336  1.00  0.00    -0.273 N 
ATOM     11  H2  UNL     1      -1.450  21.900  -5.185  1.00  0.00     0.173 HD
HETATM   12  C7  UNL     1      -0.555  23.244  -3.942  1.00  0.00     0.328 A 
HETATM   13  O2  UNL     1      -0.947  24.203  -4.654  1.00  0.00    -0.247 OA
HETATM   14  N3  UNL     1       0.180  23.479  -2.823  1.00  0.00    -0.292 N 
ATOM     15  H3  UNL     1       0.428  24.427  -2.538  1.00  0.00     0.172 HD
HETATM   16  C8  UNL     1       0.567  22.410  -2.108  1.00  0.00     0.145 A 
HETATM   17  N4  UNL     1       1.302  22.647  -0.989  1.00  0.00    -0.327 N 
HETATM   18  C14 UNL     1       1.688  21.580  -0.273  1.00  0.00     0.063 A 
HETATM   19  C15 UNL     1       2.432  21.804   0.865  1.00  0.00     0.039 A 
HETATM   20  C16 UNL     1       2.864  20.746   1.656  1.00  0.00    -0.054 A 
HETATM   21  C17 UNL     1       3.658  20.990   2.871  1.00  0.00     0.049 C 
ENDROOT
BRANCH  17  22
HETATM   22  C9  UNL     1       1.641  23.962  -0.601  1.00  0.00     0.165 C 
BRANCH  22  23
HETATM   23  C10 UNL     1       2.735  24.624  -1.376  1.00  0.00     0.167 C 
BRANCH  23  24
HETATM   24  O3  UNL     1       4.004  24.485  -0.924  1.00  0.00    -0.391 OA
ATOM     25  H3  UNL     1       4.402  23.624  -0.977  1.00  0.00     0.210 HD
ENDBRANCH  23  24
BRANCH  23  26
HETATM   26  C11 UNL     1       2.323  26.086  -1.565  1.00  0.00     0.179 C 
BRANCH  26  27
HETATM   27  O4  UNL     1       0.937  26.210  -1.559  1.00  0.00    -0.390 OA
ATOM     28  H4  UNL     1       0.682  27.125  -1.562  1.00  0.00     0.210 HD
ENDBRANCH  26  27
BRANCH  26  29
HETATM   29  C12 UNL     1       2.943  26.690  -2.786  1.00  0.00     0.173 C 
BRANCH  29  30
HETATM   30  O5  UNL     1       2.390  27.960  -2.947  1.00  0.00    -0.391 OA
ATOM     31  H5  UNL     1       2.425  28.392  -2.102  1.00  0.00     0.210 HD
ENDBRANCH  29  30
BRANCH  29  32
HETATM   32  C13 UNL     1       2.662  25.880  -4.034  1.00  0.00     0.198 C 
BRANCH  32  33
HETATM   33  O6  UNL     1       1.315  26.067  -4.375  1.00  0.00    -0.398 OA
ATOM     34  H6  UNL     1       0.832  25.301  -4.088  1.00  0.00     0.209 HD
ENDBRANCH  32  33
ENDBRANCH  29  32
ENDBRANCH  26  29
ENDBRANCH  23  26
ENDBRANCH  22  23
ENDBRANCH  17  22
TORSDOF 9
ENDMDL
