MODEL 3
REMARK VINA RESULT: -6.208136006      3.402      6.689
REMARK  9 active torsions:
REMARK  status: ('A' for Active; 'I' for Inactive)
REMARK    1  A    between atoms: N4_17  and  C9_18 
REMARK    2  A    between atoms: C9_18  and  C10_19 
REMARK    3  A    between atoms: C10_19  and  O3_20 
REMARK    4  A    between atoms: C10_19  and  C11_22 
REMARK    5  A    between atoms: C11_22  and  O4_23 
REMARK    6  A    between atoms: C11_22  and  C12_25 
REMARK    7  A    between atoms: C12_25  and  O5_26 
REMARK    8  A    between atoms: C12_25  and  C13_28 
REMARK    9  A    between atoms: C13_28  and  O6_29 
ROOT
HETATM    1  C1  UNL     1      -1.154  19.582  -4.663  1.00  0.00     0.049 C 
HETATM    2  C2  UNL     1      -0.429  20.172  -3.498  1.00  0.00    -0.054 A 
HETATM    3  C3  UNL     1       0.144  19.367  -2.559  1.00  0.00     0.039 A 
HETATM    4  C4  UNL     1       0.816  19.905  -1.478  1.00  0.00     0.060 A 
HETATM    5  N1  UNL     1       1.375  19.098  -0.565  1.00  0.00    -0.347 N 
ATOM      6  H1  UNL     1       1.309  18.084  -0.655  1.00  0.00     0.166 HD
HETATM    7  C5  UNL     1       2.025  19.653   0.473  1.00  0.00     0.146 A 
HETATM    8  C6  UNL     1       2.634  18.907   1.464  1.00  0.00     0.280 A 
HETATM    9  O1  UNL     1       2.589  17.641   1.411  1.00  0.00    -0.265 OA
HETATM   10  N2  UNL     1       3.254  19.572   2.453  1.00  0.00    -0.273 N 
ATOM     11  H2  UNL     1       3.708  19.032   3.190  1.00  0.00     0.173 HD
HETATM   12  C7  UNL     1       3.306  20.914   2.518  1.00  0.00     0.328 A 
HETATM   13  O2  UNL     1       3.916  21.420   3.493  1.00  0.00    -0.247 OA
HETATM   14  N3  UNL     1       2.731  21.713   1.580  1.00  0.00    -0.292 N 
ATOM     15  H3  UNL     1       2.782  22.730   1.644  1.00  0.00     0.172 HD
HETATM   16  C8  UNL     1       2.095  21.107   0.564  1.00  0.00     0.145 A 
HETATM   17  N4  UNL     1       1.521  21.908  -0.372  1.00  0.00    -0.327 N 
HETATM   18  C14 UNL     1       0.886  21.304  -1.388  1.00  0.00     0.063 A 
HETATM   19  C15 UNL     1       0.301  22.102  -2.347  1.00  0.00     0.039 A 
HETATM   20  C16 UNL     1      -0.371  21.545  -3.427  1.00  0.00    -0.054 A 
HETATM   21  C17 UNL     1      -0.995  22.401  -4.450  1.00  0.00     0.049 C 
ENDROOT
BRANCH  17  22
HETATM   22  C9  UNL     1       1.595  23.315  -0.277  1.00  0.00     0.165 C 
BRANCH  22  23
HETATM   23  C10 UNL     1       2.634  23.986  -1.116  1.00  0.00     0.167 C 
BRANCH  23  24
HETATM   24  O3  UNL     1       3.934  23.756  -0.817  1.00  0.00    -0.391 OA
ATOM     25  H3  UNL     1       4.592  24.264  -1.277  1.00  0.00     0.210 HD
ENDBRANCH  23  24
BRANCH  23  26
HETATM   26  C11 UNL     1       2.282  25.475  -1.153  1.00  0.00     0.179 C 
BRANCH  26  27
HETATM   27  O4  UNL     1       0.959  25.657  -1.547  1.00  0.00    -0.390 OA
ATOM     28  H4  UNL     1       0.694  26.561  -1.423  1.00  0.00     0.210 HD
ENDBRANCH  26  27
BRANCH  26  29
HETATM   29  C12 UNL     1       3.240  26.258  -1.995  1.00  0.00     0.173 C 
BRANCH  29  30
HETATM   30  O5  UNL     1       4.418  26.399  -1.262  1.00  0.00    -0.391 OA
ATOM     31  H5  UNL     1       4.501  25.630  -0.710  1.00  0.00     0.210 HD
ENDBRANCH  29  30
BRANCH  29  32
HETATM   32  C13 UNL     1       2.713  27.636  -2.333  1.00  0.00     0.198 C 
BRANCH  32  33
HETATM   33  O6  UNL     1       3.647  28.260  -3.173  1.00  0.00    -0.398 OA
ATOM     34  H6  UNL     1       3.363  29.156  -3.310  1.00  0.00     0.209 HD
ENDBRANCH  32  33
ENDBRANCH  29  32
ENDBRANCH  26  29
ENDBRANCH  23  26
ENDBRANCH  22  23
ENDBRANCH  17  22
TORSDOF 9
ENDMDL
