MODEL 1
REMARK VINA RESULT: -8.744352987      0.000      0.000
REMARK  0 active torsions:
REMARK  status: ('A' for Active; 'I' for Inactive)
ROOT
HETATM    1  C1  UNL     1       0.511  24.459  -1.935  1.00  0.00     0.049 C 
HETATM    2  C2  UNL     1       0.785  23.066  -1.528  1.00  0.00    -0.054 A 
HETATM    3  C3  UNL     1       1.568  22.870  -0.410  1.00  0.00     0.039 A 
HETATM    4  C4  UNL     1       1.874  21.596   0.039  1.00  0.00     0.060 A 
HETATM    5  N1  UNL     1       2.655  21.445   1.148  1.00  0.00    -0.347 N 
ATOM      6  H1  UNL     1       3.018  22.251   1.656  1.00  0.00     0.166 HD
HETATM    7  C5  UNL     1       2.922  20.201   1.540  1.00  0.00     0.146 A 
HETATM    8  C6  UNL     1       3.727  20.077   2.677  1.00  0.00     0.280 A 
HETATM    9  O1  UNL     1       4.166  21.083   3.291  1.00  0.00    -0.265 OA
HETATM   10  N2  UNL     1       4.026  18.838   3.108  1.00  0.00    -0.273 N 
ATOM     11  H2  UNL     1       4.610  18.703   3.933  1.00  0.00     0.173 HD
HETATM   12  C7  UNL     1       3.544  17.783   2.433  1.00  0.00     0.328 A 
HETATM   13  O2  UNL     1       3.801  16.589   2.804  1.00  0.00    -0.247 OA
HETATM   14  N3  UNL     1       2.763  17.884   1.331  1.00  0.00    -0.292 N 
ATOM     15  H3  UNL     1       2.427  17.044   0.861  1.00  0.00     0.172 HD
HETATM   16  C8  UNL     1       2.433  19.110   0.857  1.00  0.00     0.144 A 
HETATM   17  N4  UNL     1       1.649  19.242  -0.255  1.00  0.00    -0.334 N 
HETATM   18  C9  UNL     1       1.201  18.039  -0.863  1.00  0.00     0.158 C 
HETATM   19  C10 UNL     1       1.377  20.502  -0.655  1.00  0.00     0.063 A 
HETATM   20  C11 UNL     1       0.592  20.653  -1.775  1.00  0.00     0.039 A 
HETATM   21  C12 UNL     1       0.317  21.959  -2.182  1.00  0.00    -0.054 A 
HETATM   22  C13 UNL     1      -0.519  22.129  -3.374  1.00  0.00     0.049 C 
ENDROOT
TORSDOF 0
ENDMDL
