MODEL 2
REMARK VINA RESULT: -8.736538522      4.897      6.355
REMARK  0 active torsions:
REMARK  status: ('A' for Active; 'I' for Inactive)
ROOT
HETATM    1  C1  UNL     1      -0.449  24.399   1.966  1.00  0.00     0.049 C 
HETATM    2  C2  UNL     1      -0.741  23.013   1.551  1.00  0.00    -0.054 A 
HETATM    3  C3  UNL     1      -1.528  22.833   0.432  1.00  0.00     0.039 A 
HETATM    4  C4  UNL     1      -1.849  21.566  -0.024  1.00  0.00     0.060 A 
HETATM    5  N1  UNL     1      -2.634  21.430  -1.132  1.00  0.00    -0.347 N 
ATOM      6  H1  UNL     1      -2.988  22.244  -1.635  1.00  0.00     0.166 HD
HETATM    7  C5  UNL     1      -2.917  20.192  -1.531  1.00  0.00     0.146 A 
HETATM    8  C6  UNL     1      -3.725  20.084  -2.668  1.00  0.00     0.280 A 
HETATM    9  O1  UNL     1      -4.152  21.100  -3.275  1.00  0.00    -0.265 OA
HETATM   10  N2  UNL     1      -4.040  18.852  -3.105  1.00  0.00    -0.273 N 
ATOM     11  H2  UNL     1      -4.626  18.729  -3.930  1.00  0.00     0.173 HD
HETATM   12  C7  UNL     1      -3.569  17.787  -2.438  1.00  0.00     0.328 A 
HETATM   13  O2  UNL     1      -3.841  16.599  -2.815  1.00  0.00    -0.247 OA
HETATM   14  N3  UNL     1      -2.785  17.872  -1.336  1.00  0.00    -0.292 N 
ATOM     15  H3  UNL     1      -2.459  17.025  -0.872  1.00  0.00     0.172 HD
HETATM   16  C8  UNL     1      -2.440  19.091  -0.855  1.00  0.00     0.144 A 
HETATM   17  N4  UNL     1      -1.653  19.207   0.257  1.00  0.00    -0.334 N 
HETATM   18  C9  UNL     1      -1.218  17.995   0.856  1.00  0.00     0.158 C 
HETATM   19  C10 UNL     1      -1.364  20.461   0.663  1.00  0.00     0.063 A 
HETATM   20  C11 UNL     1      -0.576  20.596   1.783  1.00  0.00     0.039 A 
HETATM   21  C12 UNL     1      -0.285  21.896   2.197  1.00  0.00    -0.054 A 
HETATM   22  C13 UNL     1       0.555  22.049   3.389  1.00  0.00     0.049 C 
ENDROOT
TORSDOF 0
ENDMDL
