MODEL 6
REMARK VINA RESULT: -8.510110252      3.216      6.308
REMARK  0 active torsions:
REMARK  status: ('A' for Active; 'I' for Inactive)
ROOT
HETATM    1  C1  UNL     1       3.628  17.037   2.445  1.00  0.00     0.049 C 
HETATM    2  C2  UNL     1       3.077  18.183   1.695  1.00  0.00    -0.054 A 
HETATM    3  C3  UNL     1       2.272  17.909   0.609  1.00  0.00     0.039 A 
HETATM    4  C4  UNL     1       1.715  18.925  -0.148  1.00  0.00     0.060 A 
HETATM    5  N1  UNL     1       0.926  18.612  -1.217  1.00  0.00    -0.347 N 
ATOM      6  H1  UNL     1       0.736  17.642  -1.471  1.00  0.00     0.166 HD
HETATM    7  C5  UNL     1       0.416  19.624  -1.915  1.00  0.00     0.146 A 
HETATM    8  C6  UNL     1      -0.385  19.272  -3.007  1.00  0.00     0.280 A 
HETATM    9  O1  UNL     1      -0.609  18.070  -3.304  1.00  0.00    -0.265 OA
HETATM   10  N2  UNL     1      -0.921  20.262  -3.744  1.00  0.00    -0.273 N 
ATOM     11  H2  UNL     1      -1.511  20.049  -4.548  1.00  0.00     0.173 HD
HETATM   12  C7  UNL     1      -0.665  21.534  -3.403  1.00  0.00     0.328 A 
HETATM   13  O2  UNL     1      -1.150  22.507  -4.072  1.00  0.00    -0.247 OA
HETATM   14  N3  UNL     1       0.108  21.894  -2.350  1.00  0.00    -0.292 N 
ATOM     15  H3  UNL     1       0.266  22.880  -2.142  1.00  0.00     0.172 HD
HETATM   16  C8  UNL     1       0.670  20.934  -1.576  1.00  0.00     0.144 A 
HETATM   17  N4  UNL     1       1.457  21.267  -0.509  1.00  0.00    -0.334 N 
HETATM   18  C9  UNL     1       1.634  22.654  -0.260  1.00  0.00     0.158 C 
HETATM   19  C10 UNL     1       1.976  20.243   0.200  1.00  0.00     0.063 A 
HETATM   20  C11 UNL     1       2.774  20.561   1.276  1.00  0.00     0.039 A 
HETATM   21  C12 UNL     1       3.308  19.497   2.002  1.00  0.00    -0.054 A 
HETATM   22  C13 UNL     1       4.159  19.826   3.150  1.00  0.00     0.049 C 
ENDROOT
TORSDOF 0
ENDMDL
