MODEL 3
REMARK VINA RESULT: -8.668137590      3.296      4.652
REMARK  0 active torsions:
REMARK  status: ('A' for Active; 'I' for Inactive)
ROOT
HETATM    1  C1  UNL     1      -1.636  19.887  -0.462  1.00  0.00     0.049 C 
HETATM    2  C2  UNL     1      -0.560  19.473   0.460  1.00  0.00    -0.054 A 
HETATM    3  C3  UNL     1      -0.922  18.763   1.587  1.00  0.00     0.039 A 
HETATM    4  C4  UNL     1       0.025  18.337   2.502  1.00  0.00     0.060 A 
HETATM    5  N1  UNL     1      -0.374  17.641   3.606  1.00  0.00    -0.347 N 
ATOM      6  H1  UNL     1      -1.358  17.425   3.771  1.00  0.00     0.166 HD
HETATM    7  C5  UNL     1       0.572  17.255   4.458  1.00  0.00     0.146 A 
HETATM    8  C6  UNL     1       0.132  16.546   5.582  1.00  0.00     0.280 A 
HETATM    9  O1  UNL     1      -1.085  16.288   5.768  1.00  0.00    -0.265 OA
HETATM   10  N2  UNL     1       1.054  16.138   6.472  1.00  0.00    -0.273 N 
ATOM     11  H2  UNL     1       0.776  15.618   7.305  1.00  0.00     0.173 HD
HETATM   12  C7  UNL     1       2.345  16.426   6.247  1.00  0.00     0.328 A 
HETATM   13  O2  UNL     1       3.255  16.060   7.065  1.00  0.00    -0.247 OA
HETATM   14  N3  UNL     1       2.789  17.111   5.166  1.00  0.00    -0.292 N 
ATOM     15  H3  UNL     1       3.785  17.300   5.051  1.00  0.00     0.172 HD
HETATM   16  C8  UNL     1       1.900  17.544   4.240  1.00  0.00     0.144 A 
HETATM   17  N4  UNL     1       2.319  18.240   3.140  1.00  0.00    -0.334 N 
HETATM   18  C9  UNL     1       3.717  18.465   3.026  1.00  0.00     0.158 C 
HETATM   19  C10 UNL     1       1.362  18.633   2.275  1.00  0.00     0.063 A 
HETATM   20  C11 UNL     1       1.766  19.338   1.164  1.00  0.00     0.039 A 
HETATM   21  C12 UNL     1       0.769  19.742   0.275  1.00  0.00    -0.054 A 
HETATM   22  C13 UNL     1       1.191  20.494  -0.911  1.00  0.00     0.049 C 
ENDROOT
TORSDOF 0
ENDMDL
