MODEL 3
REMARK VINA RESULT: -11.159369034      1.203      4.085
REMARK  15 active torsions:
REMARK  status: ('A' for Active; 'I' for Inactive)
REMARK    1  A    between atoms: O1_2  and  C2_3 
REMARK       I    between atoms: C2_3  and  N1_5 
REMARK    2  A    between atoms: N1_5  and  C3_7 
REMARK    3  A    between atoms: C3_7  and  C4_8 
REMARK    4  A    between atoms: C3_7  and  C31_47 
REMARK       I    between atoms: C4_8  and  N2_10 
REMARK    5  A    between atoms: N2_10  and  N3_12 
REMARK    6  A    between atoms: N3_12  and  C5_13 
REMARK    7  A    between atoms: N3_12  and  C12_21 
REMARK    8  A    between atoms: C5_13  and  C6_14 
REMARK    9  A    between atoms: C12_21  and  C13_22 
REMARK   10  A    between atoms: C13_22  and  O4_23 
REMARK   11  A    between atoms: C13_22  and  C14_25 
REMARK   12  A    between atoms: C13_22  and  C21_32 
REMARK   13  A    between atoms: C14_25  and  C15_26 
REMARK       I    between atoms: C21_32  and  N4_34 
REMARK   14  A    between atoms: N4_34  and  C22_36 
REMARK   15  A    between atoms: C30_44  and  O6_45 
ROOT
HETATM    1  C12 UNL     1      12.268  21.925   6.702  1.00  0.00     0.162 C 
ENDROOT
BRANCH   1   2
HETATM    2  N3  UNL     1      13.633  22.045   6.393  1.00  0.00    -0.221 NA
BRANCH   2   3
HETATM    3  N2  UNL     1      14.294  20.941   5.907  1.00  0.00    -0.287 N 
HETATM    4  C4  UNL     1      15.105  21.079   4.750  1.00  0.00     0.255 C 
HETATM    5  O3  UNL     1      15.162  22.232   4.242  1.00  0.00    -0.270 OA
ATOM      6  H2  UNL     1      14.204  20.038   6.371  1.00  0.00     0.184 HD
BRANCH   4   7
HETATM    7  C3  UNL     1      15.859  19.988   4.125  1.00  0.00     0.187 C 
BRANCH   7   8
HETATM    8  N1  UNL     1      16.292  19.081   5.173  1.00  0.00    -0.323 N 
HETATM    9  C2  UNL     1      17.610  18.982   5.659  1.00  0.00     0.360 C 
HETATM   10  O2  UNL     1      18.457  19.766   5.111  1.00  0.00    -0.239 OA
ATOM     11  H1  UNL     1      15.588  18.469   5.588  1.00  0.00     0.165 HD
BRANCH   9  12
HETATM   12  O1  UNL     1      18.008  18.110   6.661  1.00  0.00    -0.309 OA
HETATM   13  C1  UNL     1      18.432  16.773   6.367  1.00  0.00     0.215 C 
ENDBRANCH   9  12
ENDBRANCH   7   8
BRANCH   7  14
HETATM   14  C31 UNL     1      15.099  19.161   3.132  1.00  0.00    -0.022 C 
HETATM   15  C32 UNL     1      14.396  17.991   3.774  1.00  0.00     0.017 C 
HETATM   16  C33 UNL     1      14.199  19.972   2.225  1.00  0.00     0.017 C 
HETATM   17  C34 UNL     1      16.133  18.525   2.182  1.00  0.00     0.017 C 
ENDBRANCH   7  14
ENDBRANCH   4   7
ENDBRANCH   2   3
BRANCH   2  18
HETATM   18  C5  UNL     1      14.468  22.678   7.400  1.00  0.00     0.152 C 
BRANCH  18  19
HETATM   19  C6  UNL     1      15.235  21.731   8.214  1.00  0.00    -0.043 A 
HETATM   20  C7  UNL     1      14.640  20.825   9.060  1.00  0.00     0.010 A 
HETATM   21  C8  UNL     1      15.447  19.981   9.783  1.00  0.00     0.019 A 
HETATM   22  C9  UNL     1      16.820  19.999   9.701  1.00  0.00     0.011 A 
HETATM   23 BR1  UNL     1      17.807  18.772  10.761  1.00  0.00    -0.051 Br
HETATM   24  C10 UNL     1      17.389  20.916   8.846  1.00  0.00     0.019 A 
HETATM   25  C11 UNL     1      16.614  21.780   8.103  1.00  0.00     0.010 A 
ENDBRANCH  18  19
ENDBRANCH   2  18
ENDBRANCH   1   2
BRANCH   1  26
HETATM   26  C13 UNL     1      11.319  23.018   6.461  1.00  0.00     0.155 C 
BRANCH  26  27
HETATM   27  O4  UNL     1      10.223  23.090   7.312  1.00  0.00    -0.378 OA
ATOM     28  H4  UNL     1       9.560  23.736   7.098  1.00  0.00     0.211 HD
ENDBRANCH  26  27
BRANCH  26  29
HETATM   29  C14 UNL     1      11.925  24.398   6.316  1.00  0.00     0.087 C 
BRANCH  29  30
HETATM   30  C15 UNL     1      11.271  25.354   7.277  1.00  0.00    -0.055 A 
HETATM   31  C16 UNL     1      10.142  26.063   6.928  1.00  0.00     0.007 A 
HETATM   32  C17 UNL     1       9.529  26.938   7.779  1.00  0.00     0.001 A 
HETATM   33  C18 UNL     1      10.027  27.148   9.041  1.00  0.00     0.000 A 
HETATM   34  C19 UNL     1      11.170  26.446   9.430  1.00  0.00     0.001 A 
HETATM   35  C20 UNL     1      11.765  25.568   8.546  1.00  0.00     0.007 A 
ENDBRANCH  29  30
ENDBRANCH  26  29
BRANCH  26  36
HETATM   36  C21 UNL     1      10.722  22.732   5.103  1.00  0.00     0.254 C 
HETATM   37  O5  UNL     1      10.867  21.582   4.661  1.00  0.00    -0.270 OA
HETATM   38  N4  UNL     1      10.030  23.687   4.336  1.00  0.00    -0.347 N 
ATOM     39  H4  UNL     1       9.933  24.622   4.733  1.00  0.00     0.163 HD
BRANCH  38  40
HETATM   40  C22 UNL     1       9.448  23.457   3.038  1.00  0.00     0.147 C 
HETATM   41  C23 UNL     1       8.362  24.418   2.824  1.00  0.00    -0.027 A 
HETATM   42  C24 UNL     1       7.364  24.924   3.656  1.00  0.00     0.010 A 
HETATM   43  C28 UNL     1       8.401  24.875   1.511  1.00  0.00    -0.047 A 
HETATM   44  C25 UNL     1       6.441  25.844   3.208  1.00  0.00     0.001 A 
HETATM   45  C26 UNL     1       6.476  26.300   1.910  1.00  0.00     0.001 A 
HETATM   46  C27 UNL     1       7.476  25.792   1.081  1.00  0.00     0.008 A 
HETATM   47  C29 UNL     1       9.531  24.228   0.777  1.00  0.00     0.073 C 
HETATM   48  C30 UNL     1      10.412  23.770   1.916  1.00  0.00     0.149 C 
BRANCH  48  49
HETATM   49  O6  UNL     1      11.370  24.709   2.274  1.00  0.00    -0.393 OA
ATOM     50  H6  UNL     1      12.186  24.314   2.558  1.00  0.00     0.210 HD
ENDBRANCH  48  49
ENDBRANCH  38  40
ENDBRANCH  26  36
ENDBRANCH   1  26
TORSDOF 15
ENDMDL
