MODEL 2
REMARK VINA RESULT: -11.221061383      1.529      8.331
REMARK  15 active torsions:
REMARK  status: ('A' for Active; 'I' for Inactive)
REMARK    1  A    between atoms: O1_2  and  C2_3 
REMARK       I    between atoms: C2_3  and  N1_5 
REMARK    2  A    between atoms: N1_5  and  C3_7 
REMARK    3  A    between atoms: C3_7  and  C4_8 
REMARK    4  A    between atoms: C3_7  and  C31_47 
REMARK       I    between atoms: C4_8  and  N2_10 
REMARK    5  A    between atoms: N2_10  and  N3_12 
REMARK    6  A    between atoms: N3_12  and  C5_13 
REMARK    7  A    between atoms: N3_12  and  C12_21 
REMARK    8  A    between atoms: C5_13  and  C6_14 
REMARK    9  A    between atoms: C12_21  and  C13_22 
REMARK   10  A    between atoms: C13_22  and  O4_23 
REMARK   11  A    between atoms: C13_22  and  C14_25 
REMARK   12  A    between atoms: C13_22  and  C21_32 
REMARK   13  A    between atoms: C14_25  and  C15_26 
REMARK       I    between atoms: C21_32  and  N4_34 
REMARK   14  A    between atoms: N4_34  and  C22_36 
REMARK   15  A    between atoms: C30_44  and  O6_45 
ROOT
HETATM    1  C12 UNL     1      12.587  23.521   4.870  1.00  0.00     0.162 C 
ENDROOT
BRANCH   1   2
HETATM    2  N3  UNL     1      12.507  24.041   6.173  1.00  0.00    -0.221 NA
BRANCH   2   3
HETATM    3  N2  UNL     1      11.682  25.116   6.400  1.00  0.00    -0.287 N 
HETATM    4  C4  UNL     1      10.428  24.900   7.030  1.00  0.00     0.255 C 
HETATM    5  O3  UNL     1      10.159  23.709   7.344  1.00  0.00    -0.270 OA
ATOM      6  H2  UNL     1      11.965  26.056   6.121  1.00  0.00     0.184 HD
BRANCH   4   7
HETATM    7  C3  UNL     1       9.451  25.951   7.328  1.00  0.00     0.187 C 
BRANCH   7   8
HETATM    8  N1  UNL     1       8.264  25.704   6.527  1.00  0.00    -0.323 N 
HETATM    9  C2  UNL     1       7.846  26.500   5.442  1.00  0.00     0.360 C 
HETATM   10  O2  UNL     1       8.592  27.502   5.176  1.00  0.00    -0.239 OA
ATOM     11  H1  UNL     1       7.692  24.894   6.768  1.00  0.00     0.165 HD
BRANCH   9  12
HETATM   12  O1  UNL     1       6.710  26.250   4.686  1.00  0.00    -0.309 OA
HETATM   13  C1  UNL     1       5.438  26.811   5.036  1.00  0.00     0.215 C 
ENDBRANCH   9  12
ENDBRANCH   7   8
BRANCH   7  14
HETATM   14  C31 UNL     1       8.993  26.025   8.754  1.00  0.00    -0.022 C 
HETATM   15  C32 UNL     1       7.952  24.985   9.081  1.00  0.00     0.017 C 
HETATM   16  C33 UNL     1      10.127  26.069   9.755  1.00  0.00     0.017 C 
HETATM   17  C34 UNL     1       8.270  27.375   8.930  1.00  0.00     0.017 C 
ENDBRANCH   7  14
ENDBRANCH   4   7
ENDBRANCH   2   3
BRANCH   2  18
HETATM   18  C5  UNL     1      13.772  24.278   6.849  1.00  0.00     0.152 C 
BRANCH  18  19
HETATM   19  C6  UNL     1      14.303  23.101   7.541  1.00  0.00    -0.043 A 
HETATM   20  C7  UNL     1      13.497  22.107   8.044  1.00  0.00     0.010 A 
HETATM   21  C8  UNL     1      14.092  21.044   8.680  1.00  0.00     0.019 A 
HETATM   22  C9  UNL     1      15.453  20.928   8.839  1.00  0.00     0.011 A 
HETATM   23 BR1  UNL     1      16.133  19.403   9.740  1.00  0.00    -0.051 Br
HETATM   24  C10 UNL     1      16.237  21.939   8.327  1.00  0.00     0.019 A 
HETATM   25  C11 UNL     1      15.679  23.021   7.681  1.00  0.00     0.010 A 
ENDBRANCH  18  19
ENDBRANCH   2  18
ENDBRANCH   1   2
BRANCH   1  26
HETATM   26  C13 UNL     1      11.732  22.417   4.422  1.00  0.00     0.155 C 
BRANCH  26  27
HETATM   27  O4  UNL     1      10.514  22.269   5.074  1.00  0.00    -0.378 OA
ATOM     28  H4  UNL     1       9.868  21.716   4.649  1.00  0.00     0.211 HD
ENDBRANCH  26  27
BRANCH  26  29
HETATM   29  C14 UNL     1      11.509  22.319   2.928  1.00  0.00     0.087 C 
BRANCH  29  30
HETATM   30  C15 UNL     1      10.439  23.287   2.499  1.00  0.00    -0.055 A 
HETATM   31  C16 UNL     1       9.118  23.096   2.844  1.00  0.00     0.007 A 
HETATM   32  C17 UNL     1       8.127  23.956   2.467  1.00  0.00     0.001 A 
HETATM   33  C18 UNL     1       8.416  25.067   1.715  1.00  0.00     0.000 A 
HETATM   34  C19 UNL     1       9.745  25.294   1.347  1.00  0.00     0.001 A 
HETATM   35  C20 UNL     1      10.723  24.405   1.744  1.00  0.00     0.007 A 
ENDBRANCH  29  30
ENDBRANCH  26  29
BRANCH  26  36
HETATM   36  C21 UNL     1      12.497  21.160   4.765  1.00  0.00     0.254 C 
HETATM   37  O5  UNL     1      11.951  20.371   5.551  1.00  0.00    -0.270 OA
HETATM   38  N4  UNL     1      13.769  20.853   4.247  1.00  0.00    -0.347 N 
ATOM     39  H4  UNL     1      14.186  21.526   3.604  1.00  0.00     0.163 HD
BRANCH  38  40
HETATM   40  C22 UNL     1      14.531  19.667   4.548  1.00  0.00     0.147 C 
HETATM   41  C23 UNL     1      15.009  19.075   3.295  1.00  0.00    -0.027 A 
HETATM   42  C24 UNL     1      14.418  18.896   2.044  1.00  0.00     0.010 A 
HETATM   43  C28 UNL     1      16.315  18.628   3.462  1.00  0.00    -0.047 A 
HETATM   44  C25 UNL     1      15.092  18.300   1.000  1.00  0.00     0.001 A 
HETATM   45  C26 UNL     1      16.385  17.857   1.160  1.00  0.00     0.001 A 
HETATM   46  C27 UNL     1      16.972  18.037   2.413  1.00  0.00     0.008 A 
HETATM   47  C29 UNL     1      16.777  18.905   4.857  1.00  0.00     0.073 C 
HETATM   48  C30 UNL     1      15.812  19.986   5.288  1.00  0.00     0.149 C 
BRANCH  48  49
HETATM   49  O6  UNL     1      16.280  21.267   5.030  1.00  0.00    -0.393 OA
ATOM     50  H6  UNL     1      17.142  21.426   5.397  1.00  0.00     0.210 HD
ENDBRANCH  48  49
ENDBRANCH  38  40
ENDBRANCH  26  36
ENDBRANCH   1  26
TORSDOF 15
ENDMDL
