MODEL 1
REMARK VINA RESULT: -11.331600214      0.000      0.000
REMARK  15 active torsions:
REMARK  status: ('A' for Active; 'I' for Inactive)
REMARK    1  A    between atoms: O1_2  and  C2_3 
REMARK       I    between atoms: C2_3  and  N1_5 
REMARK    2  A    between atoms: N1_5  and  C3_7 
REMARK    3  A    between atoms: C3_7  and  C4_8 
REMARK    4  A    between atoms: C3_7  and  C31_47 
REMARK       I    between atoms: C4_8  and  N2_10 
REMARK    5  A    between atoms: N2_10  and  N3_12 
REMARK    6  A    between atoms: N3_12  and  C5_13 
REMARK    7  A    between atoms: N3_12  and  C12_21 
REMARK    8  A    between atoms: C5_13  and  C6_14 
REMARK    9  A    between atoms: C12_21  and  C13_22 
REMARK   10  A    between atoms: C13_22  and  O4_23 
REMARK   11  A    between atoms: C13_22  and  C14_25 
REMARK   12  A    between atoms: C13_22  and  C21_32 
REMARK   13  A    between atoms: C14_25  and  C15_26 
REMARK       I    between atoms: C21_32  and  N4_34 
REMARK   14  A    between atoms: N4_34  and  C22_36 
REMARK   15  A    between atoms: C30_44  and  O6_45 
ROOT
HETATM    1  C12 UNL     1      12.360  22.410   6.043  1.00  0.00     0.162 C 
ENDROOT
BRANCH   1   2
HETATM    2  N3  UNL     1      13.765  22.373   6.054  1.00  0.00    -0.221 NA
BRANCH   2   3
HETATM    3  N2  UNL     1      14.392  21.202   5.701  1.00  0.00    -0.287 N 
HETATM    4  C4  UNL     1      15.204  21.180   4.536  1.00  0.00     0.255 C 
HETATM    5  O3  UNL     1      15.292  22.264   3.898  1.00  0.00    -0.270 OA
ATOM      6  H2  UNL     1      14.277  20.361   6.267  1.00  0.00     0.184 HD
BRANCH   4   7
HETATM    7  C3  UNL     1      15.924  20.003   4.042  1.00  0.00     0.187 C 
BRANCH   7   8
HETATM    8  N1  UNL     1      16.274  19.177   5.184  1.00  0.00    -0.323 N 
HETATM    9  C2  UNL     1      17.578  19.012   5.690  1.00  0.00     0.360 C 
HETATM   10  O2  UNL     1      18.493  19.654   5.070  1.00  0.00    -0.239 OA
ATOM     11  H1  UNL     1      15.518  18.678   5.655  1.00  0.00     0.165 HD
BRANCH   9  12
HETATM   12  O1  UNL     1      17.896  18.219   6.783  1.00  0.00    -0.309 OA
HETATM   13  C1  UNL     1      18.304  16.855   6.625  1.00  0.00     0.215 C 
ENDBRANCH   9  12
ENDBRANCH   7   8
BRANCH   7  14
HETATM   14  C31 UNL     1      15.160  19.124   3.099  1.00  0.00    -0.022 C 
HETATM   15  C32 UNL     1      14.498  17.963   3.799  1.00  0.00     0.017 C 
HETATM   16  C33 UNL     1      14.222  19.882   2.185  1.00  0.00     0.017 C 
HETATM   17  C34 UNL     1      16.185  18.476   2.148  1.00  0.00     0.017 C 
ENDBRANCH   7  14
ENDBRANCH   4   7
ENDBRANCH   2   3
BRANCH   2  18
HETATM   18  C5  UNL     1      14.412  22.904   7.242  1.00  0.00     0.152 C 
BRANCH  18  19
HETATM   19  C6  UNL     1      15.143  21.898   8.018  1.00  0.00    -0.043 A 
HETATM   20  C7  UNL     1      14.512  20.916   8.744  1.00  0.00     0.010 A 
HETATM   21  C8  UNL     1      15.287  20.021   9.441  1.00  0.00     0.019 A 
HETATM   22  C9  UNL     1      16.661  20.061   9.449  1.00  0.00     0.011 A 
HETATM   23 BR1  UNL     1      17.600  18.758  10.459  1.00  0.00    -0.051 Br
HETATM   24  C10 UNL     1      17.267  21.057   8.714  1.00  0.00     0.019 A 
HETATM   25  C11 UNL     1      16.526  21.973   8.000  1.00  0.00     0.010 A 
ENDBRANCH  18  19
ENDBRANCH   2  18
ENDBRANCH   1   2
BRANCH   1  26
HETATM   26  C13 UNL     1      11.614  23.195   5.054  1.00  0.00     0.155 C 
BRANCH  26  27
HETATM   27  O4  UNL     1      12.222  24.357   4.594  1.00  0.00    -0.378 OA
ATOM     28  H4  UNL     1      11.721  25.160   4.672  1.00  0.00     0.211 HD
ENDBRANCH  26  27
BRANCH  26  29
HETATM   29  C14 UNL     1      11.066  22.421   3.874  1.00  0.00     0.087 C 
BRANCH  29  30
HETATM   30  C15 UNL     1      10.393  23.359   2.908  1.00  0.00    -0.055 A 
HETATM   31  C16 UNL     1      11.121  24.110   2.010  1.00  0.00     0.007 A 
HETATM   32  C17 UNL     1      10.537  24.970   1.124  1.00  0.00     0.001 A 
HETATM   33  C18 UNL     1       9.173  25.121   1.096  1.00  0.00     0.000 A 
HETATM   34  C19 UNL     1       8.402  24.376   1.992  1.00  0.00     0.001 A 
HETATM   35  C20 UNL     1       9.023  23.515   2.874  1.00  0.00     0.007 A 
ENDBRANCH  29  30
ENDBRANCH  26  29
BRANCH  26  36
HETATM   36  C21 UNL     1      10.381  23.680   5.782  1.00  0.00     0.254 C 
HETATM   37  O5  UNL     1       9.759  22.837   6.447  1.00  0.00    -0.270 OA
HETATM   38  N4  UNL     1       9.919  25.008   5.738  1.00  0.00    -0.347 N 
ATOM     39  H4  UNL     1      10.456  25.671   5.179  1.00  0.00     0.163 HD
BRANCH  38  40
HETATM   40  C22 UNL     1       8.750  25.510   6.415  1.00  0.00     0.147 C 
HETATM   41  C23 UNL     1       9.148  26.050   7.719  1.00  0.00    -0.027 A 
HETATM   42  C24 UNL     1      10.050  25.616   8.690  1.00  0.00     0.010 A 
HETATM   43  C28 UNL     1       8.449  27.226   7.967  1.00  0.00    -0.047 A 
HETATM   44  C25 UNL     1      10.254  26.318   9.858  1.00  0.00     0.001 A 
HETATM   45  C26 UNL     1       9.565  27.483  10.107  1.00  0.00     0.001 A 
HETATM   46  C27 UNL     1       8.663  27.913   9.134  1.00  0.00     0.008 A 
HETATM   47  C29 UNL     1       7.536  27.530   6.821  1.00  0.00     0.073 C 
HETATM   48  C30 UNL     1       8.156  26.711   5.713  1.00  0.00     0.149 C 
BRANCH  48  49
HETATM   49  O6  UNL     1       9.091  27.420   4.971  1.00  0.00    -0.393 OA
ATOM     50  H6  UNL     1       8.806  27.587   4.080  1.00  0.00     0.210 HD
ENDBRANCH  48  49
ENDBRANCH  38  40
ENDBRANCH  26  36
ENDBRANCH   1  26
TORSDOF 15
ENDMDL
