MODEL 10
REMARK VINA RESULT: -10.345829675      3.030     10.120
REMARK  15 active torsions:
REMARK  status: ('A' for Active; 'I' for Inactive)
REMARK    1  A    between atoms: O1_2  and  C2_3 
REMARK       I    between atoms: C2_3  and  N1_5 
REMARK    2  A    between atoms: N1_5  and  C3_7 
REMARK    3  A    between atoms: C3_7  and  C4_8 
REMARK    4  A    between atoms: C3_7  and  C31_47 
REMARK       I    between atoms: C4_8  and  N2_10 
REMARK    5  A    between atoms: N2_10  and  N3_12 
REMARK    6  A    between atoms: N3_12  and  C5_13 
REMARK    7  A    between atoms: N3_12  and  C12_21 
REMARK    8  A    between atoms: C5_13  and  C6_14 
REMARK    9  A    between atoms: C12_21  and  C13_22 
REMARK   10  A    between atoms: C13_22  and  O4_23 
REMARK   11  A    between atoms: C13_22  and  C14_25 
REMARK   12  A    between atoms: C13_22  and  C21_32 
REMARK   13  A    between atoms: C14_25  and  C15_26 
REMARK       I    between atoms: C21_32  and  N4_34 
REMARK   14  A    between atoms: N4_34  and  C22_36 
REMARK   15  A    between atoms: C30_44  and  O6_45 
ROOT
HETATM    1  C12 UNL     1      12.030  22.164   4.809  1.00  0.00     0.162 C 
ENDROOT
BRANCH   1   2
HETATM    2  N3  UNL     1      11.664  23.439   4.348  1.00  0.00    -0.221 NA
BRANCH   2   3
HETATM    3  N2  UNL     1      10.658  24.109   5.003  1.00  0.00    -0.287 N 
HETATM    4  C4  UNL     1      10.999  25.139   5.920  1.00  0.00     0.255 C 
HETATM    5  O3  UNL     1      12.230  25.370   6.066  1.00  0.00    -0.270 OA
ATOM      6  H2  UNL     1       9.681  23.870   4.834  1.00  0.00     0.184 HD
BRANCH   4   7
HETATM    7  C3  UNL     1      10.031  25.927   6.687  1.00  0.00     0.187 C 
BRANCH   7   8
HETATM    8  N1  UNL     1       8.701  25.611   6.196  1.00  0.00    -0.323 N 
HETATM    9  C2  UNL     1       7.914  26.463   5.396  1.00  0.00     0.360 C 
HETATM   10  O2  UNL     1       8.446  27.588   5.104  1.00  0.00    -0.239 OA
ATOM     11  H1  UNL     1       8.308  24.704   6.449  1.00  0.00     0.165 HD
BRANCH   9  12
HETATM   12  O1  UNL     1       6.645  26.146   4.934  1.00  0.00    -0.309 OA
HETATM   13  C1  UNL     1       5.547  27.056   5.075  1.00  0.00     0.215 C 
ENDBRANCH   9  12
ENDBRANCH   7   8
BRANCH   7  14
HETATM   14  C31 UNL     1      10.011  25.670   8.164  1.00  0.00    -0.022 C 
HETATM   15  C32 UNL     1       8.882  24.760   8.577  1.00  0.00     0.017 C 
HETATM   16  C33 UNL     1      11.351  25.249   8.727  1.00  0.00     0.017 C 
HETATM   17  C34 UNL     1       9.707  27.013   8.856  1.00  0.00     0.017 C 
ENDBRANCH   7  14
ENDBRANCH   4   7
ENDBRANCH   2   3
BRANCH   2  18
HETATM   18  C5  UNL     1      11.450  23.570   2.917  1.00  0.00     0.152 C 
BRANCH  18  19
HETATM   19  C6  UNL     1      10.093  23.986   2.556  1.00  0.00    -0.043 A 
HETATM   20  C7  UNL     1       8.970  23.328   2.999  1.00  0.00     0.010 A 
HETATM   21  C8  UNL     1       7.741  23.796   2.603  1.00  0.00     0.019 A 
HETATM   22  C9  UNL     1       7.580  24.889   1.784  1.00  0.00     0.011 A 
HETATM   23 BR1  UNL     1       5.818  25.421   1.318  1.00  0.00    -0.051 Br
HETATM   24  C10 UNL     1       8.721  25.529   1.354  1.00  0.00     0.019 A 
HETATM   25  C11 UNL     1       9.973  25.092   1.730  1.00  0.00     0.010 A 
ENDBRANCH  18  19
ENDBRANCH   2  18
ENDBRANCH   1   2
BRANCH   1  26
HETATM   26  C13 UNL     1      13.291  21.928   5.519  1.00  0.00     0.155 C 
BRANCH  26  27
HETATM   27  O4  UNL     1      13.837  23.012   6.195  1.00  0.00    -0.378 OA
ATOM     28  H4  UNL     1      14.565  23.454   5.774  1.00  0.00     0.211 HD
ENDBRANCH  26  27
BRANCH  26  29
HETATM   29  C14 UNL     1      13.323  20.714   6.424  1.00  0.00     0.087 C 
BRANCH  29  30
HETATM   30  C15 UNL     1      14.403  20.870   7.460  1.00  0.00    -0.055 A 
HETATM   31  C16 UNL     1      14.105  21.203   8.764  1.00  0.00     0.007 A 
HETATM   32  C17 UNL     1      15.064  21.352   9.724  1.00  0.00     0.001 A 
HETATM   33  C18 UNL     1      16.390  21.173   9.419  1.00  0.00     0.000 A 
HETATM   34  C19 UNL     1      16.731  20.833   8.107  1.00  0.00     0.001 A 
HETATM   35  C20 UNL     1      15.737  20.690   7.160  1.00  0.00     0.007 A 
ENDBRANCH  29  30
ENDBRANCH  26  29
BRANCH  26  36
HETATM   36  C21 UNL     1      14.301  21.611   4.440  1.00  0.00     0.254 C 
HETATM   37  O5  UNL     1      15.060  22.531   4.099  1.00  0.00    -0.270 OA
HETATM   38  N4  UNL     1      14.413  20.353   3.820  1.00  0.00    -0.347 N 
ATOM     39  H4  UNL     1      13.771  19.622   4.127  1.00  0.00     0.163 HD
BRANCH  38  40
HETATM   40  C22 UNL     1      15.359  20.010   2.788  1.00  0.00     0.147 C 
HETATM   41  C23 UNL     1      16.385  19.129   3.354  1.00  0.00    -0.027 A 
HETATM   42  C24 UNL     1      17.062  19.121   4.574  1.00  0.00     0.010 A 
HETATM   43  C28 UNL     1      16.691  18.126   2.440  1.00  0.00    -0.047 A 
HETATM   44  C25 UNL     1      18.002  18.161   4.877  1.00  0.00     0.001 A 
HETATM   45  C26 UNL     1      18.308  17.166   3.977  1.00  0.00     0.001 A 
HETATM   46  C27 UNL     1      17.629  17.178   2.758  1.00  0.00     0.008 A 
HETATM   47  C29 UNL     1      15.871  18.296   1.202  1.00  0.00     0.073 C 
HETATM   48  C30 UNL     1      14.737  19.160   1.703  1.00  0.00     0.149 C 
BRANCH  48  49
HETATM   49  O6  UNL     1      13.649  18.424   2.152  1.00  0.00    -0.393 OA
ATOM     50  H6  UNL     1      13.243  17.909   1.464  1.00  0.00     0.210 HD
ENDBRANCH  48  49
ENDBRANCH  38  40
ENDBRANCH  26  36
ENDBRANCH   1  26
TORSDOF 15
ENDMDL
