MODEL 4
REMARK VINA RESULT: -11.155725381      2.720     10.148
REMARK  15 active torsions:
REMARK  status: ('A' for Active; 'I' for Inactive)
REMARK    1  A    between atoms: O1_2  and  C2_3 
REMARK       I    between atoms: C2_3  and  N1_5 
REMARK    2  A    between atoms: N1_5  and  C3_7 
REMARK    3  A    between atoms: C3_7  and  C4_8 
REMARK    4  A    between atoms: C3_7  and  C31_47 
REMARK       I    between atoms: C4_8  and  N2_10 
REMARK    5  A    between atoms: N2_10  and  N3_12 
REMARK    6  A    between atoms: N3_12  and  C5_13 
REMARK    7  A    between atoms: N3_12  and  C12_21 
REMARK    8  A    between atoms: C5_13  and  C6_14 
REMARK    9  A    between atoms: C12_21  and  C13_22 
REMARK   10  A    between atoms: C13_22  and  O4_23 
REMARK   11  A    between atoms: C13_22  and  C14_25 
REMARK   12  A    between atoms: C13_22  and  C21_32 
REMARK   13  A    between atoms: C14_25  and  C15_26 
REMARK       I    between atoms: C21_32  and  N4_34 
REMARK   14  A    between atoms: N4_34  and  C22_36 
REMARK   15  A    between atoms: C30_44  and  O6_45 
ROOT
HETATM    1  C12 UNL     1      12.655  22.457   5.896  1.00  0.00     0.162 C 
ENDROOT
BRANCH   1   2
HETATM    2  N3  UNL     1      11.683  23.171   5.176  1.00  0.00    -0.221 NA
BRANCH   2   3
HETATM    3  N2  UNL     1      10.706  23.838   5.876  1.00  0.00    -0.287 N 
HETATM    4  C4  UNL     1      10.969  25.152   6.344  1.00  0.00     0.255 C 
HETATM    5  O3  UNL     1      12.108  25.623   6.073  1.00  0.00    -0.270 OA
ATOM      6  H2  UNL     1       9.805  23.396   6.057  1.00  0.00     0.184 HD
BRANCH   4   7
HETATM    7  C3  UNL     1      10.023  25.973   7.105  1.00  0.00     0.187 C 
BRANCH   7   8
HETATM    8  N1  UNL     1       8.685  25.685   6.620  1.00  0.00    -0.323 N 
HETATM    9  C2  UNL     1       7.961  26.498   5.725  1.00  0.00     0.360 C 
HETATM   10  O2  UNL     1       8.561  27.557   5.337  1.00  0.00    -0.239 OA
ATOM     11  H1  UNL     1       8.236  24.831   6.951  1.00  0.00     0.165 HD
BRANCH   9  12
HETATM   12  O1  UNL     1       6.683  26.209   5.270  1.00  0.00    -0.309 OA
HETATM   13  C1  UNL     1       6.127  26.871   4.128  1.00  0.00     0.215 C 
ENDBRANCH   9  12
ENDBRANCH   7   8
BRANCH   7  14
HETATM   14  C31 UNL     1      10.001  25.732   8.584  1.00  0.00    -0.022 C 
HETATM   15  C32 UNL     1       8.842  24.866   9.011  1.00  0.00     0.017 C 
HETATM   16  C33 UNL     1      11.327  25.271   9.147  1.00  0.00     0.017 C 
HETATM   17  C34 UNL     1       9.745  27.092   9.264  1.00  0.00     0.017 C 
ENDBRANCH   7  14
ENDBRANCH   4   7
ENDBRANCH   2   3
BRANCH   2  18
HETATM   18  C5  UNL     1      11.058  22.468   4.067  1.00  0.00     0.152 C 
BRANCH  18  19
HETATM   19  C6  UNL     1      10.168  23.307   3.260  1.00  0.00    -0.043 A 
HETATM   20  C7  UNL     1       8.806  23.339   3.446  1.00  0.00     0.010 A 
HETATM   21  C8  UNL     1       8.057  24.157   2.635  1.00  0.00     0.019 A 
HETATM   22  C9  UNL     1       8.603  24.943   1.648  1.00  0.00     0.011 A 
HETATM   23 BR1  UNL     1       7.444  26.023   0.604  1.00  0.00    -0.051 Br
HETATM   24  C10 UNL     1       9.970  24.890   1.483  1.00  0.00     0.019 A 
HETATM   25  C11 UNL     1      10.757  24.083   2.276  1.00  0.00     0.010 A 
ENDBRANCH  18  19
ENDBRANCH   2  18
ENDBRANCH   1   2
BRANCH   1  26
HETATM   26  C13 UNL     1      14.063  22.434   5.486  1.00  0.00     0.155 C 
BRANCH  26  27
HETATM   27  O4  UNL     1      14.349  22.921   4.216  1.00  0.00    -0.378 OA
ATOM     28  H4  UNL     1      15.232  23.240   4.072  1.00  0.00     0.211 HD
ENDBRANCH  26  27
BRANCH  26  29
HETATM   29  C14 UNL     1      15.048  23.022   6.475  1.00  0.00     0.087 C 
BRANCH  29  30
HETATM   30  C15 UNL     1      15.118  22.162   7.708  1.00  0.00    -0.055 A 
HETATM   31  C16 UNL     1      16.273  21.496   8.054  1.00  0.00     0.007 A 
HETATM   32  C17 UNL     1      16.365  20.707   9.166  1.00  0.00     0.001 A 
HETATM   33  C18 UNL     1      15.284  20.547   9.998  1.00  0.00     0.000 A 
HETATM   34  C19 UNL     1      14.095  21.208   9.679  1.00  0.00     0.001 A 
HETATM   35  C20 UNL     1      14.036  21.997   8.548  1.00  0.00     0.007 A 
ENDBRANCH  29  30
ENDBRANCH  26  29
BRANCH  26  36
HETATM   36  C21 UNL     1      14.433  20.971   5.421  1.00  0.00     0.254 C 
HETATM   37  O5  UNL     1      13.526  20.155   5.648  1.00  0.00    -0.270 OA
HETATM   38  N4  UNL     1      15.727  20.504   5.123  1.00  0.00    -0.347 N 
ATOM     39  H4  UNL     1      16.446  21.205   4.943  1.00  0.00     0.163 HD
BRANCH  38  40
HETATM   40  C22 UNL     1      16.121  19.120   5.052  1.00  0.00     0.147 C 
HETATM   41  C23 UNL     1      16.066  18.679   3.655  1.00  0.00    -0.027 A 
HETATM   42  C24 UNL     1      15.164  18.920   2.618  1.00  0.00     0.010 A 
HETATM   43  C28 UNL     1      17.161  17.867   3.381  1.00  0.00    -0.047 A 
HETATM   44  C25 UNL     1      15.339  18.380   1.363  1.00  0.00     0.001 A 
HETATM   45  C26 UNL     1      16.421  17.577   1.087  1.00  0.00     0.001 A 
HETATM   46  C27 UNL     1      17.321  17.338   2.127  1.00  0.00     0.008 A 
HETATM   47  C29 UNL     1      18.011  17.726   4.604  1.00  0.00     0.073 C 
HETATM   48  C30 UNL     1      17.576  18.922   5.418  1.00  0.00     0.149 C 
BRANCH  48  49
HETATM   49  O6  UNL     1      18.350  20.051   5.183  1.00  0.00    -0.393 OA
ATOM     50  H6  UNL     1      19.041  20.164   5.825  1.00  0.00     0.210 HD
ENDBRANCH  48  49
ENDBRANCH  38  40
ENDBRANCH  26  36
ENDBRANCH   1  26
TORSDOF 15
ENDMDL
