MODEL 6
REMARK VINA RESULT: -5.660010294      6.034      7.672
REMARK  5 active torsions:
REMARK  status: ('A' for Active; 'I' for Inactive)
REMARK    1  A    between atoms: O1_1  and  C1_3 
REMARK    2  A    between atoms: C1_3  and  C2_4 
REMARK    3  A    between atoms: C3_5  and  O2_6 
REMARK    4  A    between atoms: C4_8  and  O3_9 
REMARK    5  A    between atoms: C5_11  and  O4_12 
ROOT
HETATM    1  C2  UNL     1     117.853  43.105  69.243  1.00  0.00     0.145 C 
HETATM    2  C3  UNL     1     118.068  43.619  67.825  1.00  0.00     0.175 C 
HETATM    3  C4  UNL     1     117.933  42.352  66.971  1.00  0.00     0.185 C 
HETATM    4  C5  UNL     1     116.462  42.058  66.907  1.00  0.00     0.217 C 
HETATM    5  C6  UNL     1     115.871  42.209  68.256  1.00  0.00     0.115 A 
HETATM    6  N1  UNL     1     114.594  41.884  68.611  1.00  0.00    -0.352 N 
ATOM      7  H1  UNL     1     113.895  41.494  67.979  1.00  0.00     0.166 HD
HETATM    8  C7  UNL     1     114.391  42.149  69.910  1.00  0.00     0.106 A 
HETATM    9  C8  UNL     1     115.588  42.655  70.364  1.00  0.00     0.110 A 
HETATM   10  N2  UNL     1     116.490  42.687  69.339  1.00  0.00    -0.334 N 
ENDROOT
BRANCH   1  11
HETATM   11  C1  UNL     1     118.319  44.064  70.275  1.00  0.00     0.192 C 
BRANCH  11  12
HETATM   12  O1  UNL     1     119.558  43.643  70.751  1.00  0.00    -0.399 OA
ATOM     13  H1  UNL     1     119.971  44.365  71.209  1.00  0.00     0.209 HD
ENDBRANCH  11  12
ENDBRANCH   1  11
BRANCH   2  14
HETATM   14  O2  UNL     1     119.291  44.224  67.667  1.00  0.00    -0.391 OA
ATOM     15  H2  UNL     1     119.867  43.732  67.093  1.00  0.00     0.210 HD
ENDBRANCH   2  14
BRANCH   3  16
HETATM   16  O3  UNL     1     118.504  42.533  65.720  1.00  0.00    -0.390 OA
ATOM     17  H3  UNL     1     117.850  42.466  65.034  1.00  0.00     0.210 HD
ENDBRANCH   3  16
BRANCH   4  18
HETATM   18  O4  UNL     1     116.256  40.767  66.423  1.00  0.00    -0.385 OA
ATOM     19  H4  UNL     1     115.795  40.802  65.592  1.00  0.00     0.210 HD
ENDBRANCH   4  18
TORSDOF 5
ENDMDL
