MODEL 1
REMARK VINA RESULT: -7.834898394      0.000      0.000
REMARK  5 active torsions:
REMARK  status: ('A' for Active; 'I' for Inactive)
REMARK    1  A    between atoms: O1_1  and  C1_3 
REMARK    2  A    between atoms: C1_3  and  C2_4 
REMARK    3  A    between atoms: C3_5  and  O2_6 
REMARK    4  A    between atoms: C4_8  and  O3_9 
REMARK    5  A    between atoms: C5_11  and  O4_12 
ROOT
HETATM    1  C2  UNL     1     120.437  39.839  62.142  1.00  0.00     0.145 C 
HETATM    2  C3  UNL     1     119.580  39.164  61.080  1.00  0.00     0.175 C 
HETATM    3  C4  UNL     1     119.297  37.783  61.685  1.00  0.00     0.185 C 
HETATM    4  C5  UNL     1     118.253  38.007  62.740  1.00  0.00     0.217 C 
HETATM    5  C6  UNL     1     118.609  39.200  63.541  1.00  0.00     0.115 A 
HETATM    6  N1  UNL     1     117.976  39.622  64.673  1.00  0.00    -0.352 N 
ATOM      7  H1  UNL     1     117.175  39.157  65.101  1.00  0.00     0.166 HD
HETATM    8  C7  UNL     1     118.557  40.736  65.143  1.00  0.00     0.106 A 
HETATM    9  C8  UNL     1     119.583  41.003  64.265  1.00  0.00     0.110 A 
HETATM   10  N2  UNL     1     119.606  40.052  63.284  1.00  0.00    -0.334 N 
ENDROOT
BRANCH   1  11
HETATM   11  C1  UNL     1     121.158  41.028  61.625  1.00  0.00     0.192 C 
BRANCH  11  12
HETATM   12  O1  UNL     1     122.226  40.599  60.842  1.00  0.00    -0.399 OA
ATOM     13  H1  UNL     1     121.889  40.084  60.119  1.00  0.00     0.209 HD
ENDBRANCH  11  12
ENDBRANCH   1  11
BRANCH   2  14
HETATM   14  O2  UNL     1     120.219  39.079  59.867  1.00  0.00    -0.391 OA
ATOM     15  H2  UNL     1     119.805  38.453  59.283  1.00  0.00     0.210 HD
ENDBRANCH   2  14
BRANCH   3  16
HETATM   16  O3  UNL     1     118.895  36.885  60.707  1.00  0.00    -0.390 OA
ATOM     17  H3  UNL     1     118.512  37.339  59.965  1.00  0.00     0.210 HD
ENDBRANCH   3  16
BRANCH   4  18
HETATM   18  O4  UNL     1     118.152  36.881  63.556  1.00  0.00    -0.385 OA
ATOM     19  H4  UNL     1     118.373  37.109  64.452  1.00  0.00     0.210 HD
ENDBRANCH   4  18
TORSDOF 5
ENDMDL
