MODEL 3
REMARK VINA RESULT: -5.895078091      3.113      4.696
REMARK  5 active torsions:
REMARK  status: ('A' for Active; 'I' for Inactive)
REMARK    1  A    between atoms: O1_1  and  C1_3 
REMARK    2  A    between atoms: C1_3  and  C2_4 
REMARK    3  A    between atoms: C3_5  and  O2_6 
REMARK    4  A    between atoms: C4_8  and  O3_9 
REMARK    5  A    between atoms: C5_11  and  O4_12 
ROOT
HETATM    1  C2  UNL     1     116.999  41.336  64.548  1.00  0.00     0.145 C 
HETATM    2  C3  UNL     1     118.324  40.591  64.629  1.00  0.00     0.175 C 
HETATM    3  C4  UNL     1     118.307  39.710  63.374  1.00  0.00     0.185 C 
HETATM    4  C5  UNL     1     118.610  40.629  62.226  1.00  0.00     0.217 C 
HETATM    5  C6  UNL     1     117.822  41.873  62.370  1.00  0.00     0.115 A 
HETATM    6  N1  UNL     1     117.728  42.873  61.446  1.00  0.00    -0.352 N 
ATOM      7  H1  UNL     1     118.197  42.875  60.540  1.00  0.00     0.166 HD
HETATM    8  C7  UNL     1     116.931  43.852  61.899  1.00  0.00     0.106 A 
HETATM    9  C8  UNL     1     116.524  43.434  63.146  1.00  0.00     0.110 A 
HETATM   10  N2  UNL     1     117.077  42.217  63.425  1.00  0.00    -0.334 N 
ENDROOT
BRANCH   1  11
HETATM   11  C1  UNL     1     116.609  41.954  65.839  1.00  0.00     0.192 C 
BRANCH  11  12
HETATM   12  O1  UNL     1     116.064  40.970  66.660  1.00  0.00    -0.399 OA
ATOM     13  H1  UNL     1     116.010  40.158  66.170  1.00  0.00     0.209 HD
ENDBRANCH  11  12
ENDBRANCH   1  11
BRANCH   2  14
HETATM   14  O2  UNL     1     118.440  39.852  65.781  1.00  0.00    -0.391 OA
ATOM     15  H2  UNL     1     119.123  39.194  65.722  1.00  0.00     0.210 HD
ENDBRANCH   2  14
BRANCH   3  16
HETATM   16  O3  UNL     1     119.214  38.666  63.486  1.00  0.00    -0.390 OA
ATOM     17  H3  UNL     1     118.830  37.930  63.949  1.00  0.00     0.210 HD
ENDBRANCH   3  16
BRANCH   4  18
HETATM   18  O4  UNL     1     118.314  39.997  61.019  1.00  0.00    -0.385 OA
ATOM     19  H4  UNL     1     117.481  40.311  60.685  1.00  0.00     0.210 HD
ENDBRANCH   4  18
TORSDOF 5
ENDMDL
