MODEL 1
REMARK VINA RESULT: -8.373897644      0.000      0.000
REMARK  8 active torsions:
REMARK  status: ('A' for Active; 'I' for Inactive)
REMARK    1  A    between atoms: O1_1  and  C1_3 
REMARK    2  A    between atoms: C1_3  and  C2_4 
REMARK    3  A    between atoms: C3_5  and  O2_6 
REMARK    4  A    between atoms: C4_8  and  O3_9 
REMARK    5  A    between atoms: C5_11  and  O4_12 
REMARK    6  A    between atoms: C7_17  and  C8_18 
REMARK    7  A    between atoms: C8_18  and  C9_19 
REMARK    8  A    between atoms: C9_19  and  C10_20 
ROOT
HETATM    1  C2  UNL     1      62.788 -63.646   9.995  1.00  0.00     0.145 C 
HETATM    2  C3  UNL     1      61.530 -62.825  10.132  1.00  0.00     0.175 C 
HETATM    3  C4  UNL     1      61.422 -62.004   8.842  1.00  0.00     0.185 C 
HETATM    4  C5  UNL     1      60.907 -62.978   7.804  1.00  0.00     0.217 C 
HETATM    5  C6  UNL     1      61.896 -64.087   7.752  1.00  0.00     0.116 A 
HETATM    6  N1  UNL     1      62.141 -64.981   6.755  1.00  0.00    -0.346 N 
ATOM      7  H1  UNL     1      61.645 -65.001   5.864  1.00  0.00     0.167 HD
HETATM    8  C7  UNL     1      63.110 -65.822   7.095  1.00  0.00     0.026 A 
HETATM    9  C16 UNL     1      63.497 -65.436   8.377  1.00  0.00     0.118 A 
HETATM   10  N2  UNL     1      62.742 -64.381   8.747  1.00  0.00    -0.333 N 
ENDROOT
BRANCH   8  11
HETATM   11  C8  UNL     1      63.703 -66.946   6.334  1.00  0.00     0.063 C 
BRANCH  11  12
HETATM   12  C9  UNL     1      62.759 -68.154   6.338  1.00  0.00     0.044 C 
BRANCH  12  13
HETATM   13  C10 UNL     1      63.265 -69.197   7.242  1.00  0.00    -0.058 A 
HETATM   14  C11 UNL     1      64.594 -69.112   7.656  1.00  0.00     0.007 A 
HETATM   15  C12 UNL     1      65.072 -70.087   8.503  1.00  0.00     0.001 A 
HETATM   16  C13 UNL     1      64.262 -71.118   8.930  1.00  0.00     0.000 A 
HETATM   17  C14 UNL     1      62.954 -71.180   8.507  1.00  0.00     0.001 A 
HETATM   18  C15 UNL     1      62.445 -70.216   7.657  1.00  0.00     0.007 A 
ENDBRANCH  12  13
ENDBRANCH  11  12
ENDBRANCH   8  11
BRANCH   4  19
HETATM   19  O4  UNL     1      60.736 -62.373   6.568  1.00  0.00    -0.385 OA
ATOM     20  H4  UNL     1      60.117 -62.847   6.025  1.00  0.00     0.210 HD
ENDBRANCH   4  19
BRANCH   1  21
HETATM   21  C1  UNL     1      63.010 -64.568  11.173  1.00  0.00     0.192 C 
BRANCH  21  22
HETATM   22  O1  UNL     1      63.424 -63.819  12.265  1.00  0.00    -0.399 OA
ATOM     23  H1  UNL     1      63.782 -62.994  11.958  1.00  0.00     0.209 HD
ENDBRANCH  21  22
ENDBRANCH   1  21
BRANCH   3  24
HETATM   24  O3  UNL     1      60.628 -60.900   8.999  1.00  0.00    -0.390 OA
ATOM     25  H3  UNL     1      59.993 -60.814   8.297  1.00  0.00     0.210 HD
ENDBRANCH   3  24
BRANCH   2  26
HETATM   26  O2  UNL     1      61.497 -62.050  11.256  1.00  0.00    -0.391 OA
ATOM     27  H2  UNL     1      60.844 -62.322  11.891  1.00  0.00     0.210 HD
ENDBRANCH   2  26
TORSDOF 8
ENDMDL
