MODEL 14
REMARK VINA RESULT: -7.984093529      5.503      7.767
REMARK  8 active torsions:
REMARK  status: ('A' for Active; 'I' for Inactive)
REMARK    1  A    between atoms: O1_1  and  C1_3 
REMARK    2  A    between atoms: C1_3  and  C2_4 
REMARK    3  A    between atoms: C3_5  and  O2_6 
REMARK    4  A    between atoms: C4_8  and  O3_9 
REMARK    5  A    between atoms: C5_11  and  O4_12 
REMARK    6  A    between atoms: C7_17  and  C8_18 
REMARK    7  A    between atoms: C8_18  and  C9_19 
REMARK    8  A    between atoms: C9_19  and  C10_20 
ROOT
HETATM    1  C2  UNL     1      63.524 -70.964   8.202  1.00  0.00     0.145 C 
HETATM    2  C3  UNL     1      64.790 -70.633   8.952  1.00  0.00     0.175 C 
HETATM    3  C4  UNL     1      65.943 -71.064   8.039  1.00  0.00     0.185 C 
HETATM    4  C5  UNL     1      66.042 -69.970   6.997  1.00  0.00     0.217 C 
HETATM    5  C6  UNL     1      64.714 -69.912   6.332  1.00  0.00     0.116 A 
HETATM    6  N1  UNL     1      64.382 -69.424   5.105  1.00  0.00    -0.346 N 
ATOM      7  H1  UNL     1      65.046 -69.011   4.450  1.00  0.00     0.167 HD
HETATM    8  C7  UNL     1      63.081 -69.555   4.875  1.00  0.00     0.026 A 
HETATM    9  C16 UNL     1      62.566 -70.161   6.019  1.00  0.00     0.118 A 
HETATM   10  N2  UNL     1      63.581 -70.364   6.884  1.00  0.00    -0.333 N 
ENDROOT
BRANCH   8  11
HETATM   11  C8  UNL     1      62.283 -69.169   3.689  1.00  0.00     0.063 C 
BRANCH  11  12
HETATM   12  C9  UNL     1      60.849 -68.813   4.101  1.00  0.00     0.044 C 
BRANCH  12  13
HETATM   13  C10 UNL     1      60.096 -68.303   2.945  1.00  0.00    -0.058 A 
HETATM   14  C11 UNL     1      60.787 -68.113   1.749  1.00  0.00     0.007 A 
HETATM   15  C12 UNL     1      60.086 -67.636   0.664  1.00  0.00     0.001 A 
HETATM   16  C13 UNL     1      58.739 -67.352   0.756  1.00  0.00     0.000 A 
HETATM   17  C14 UNL     1      58.079 -67.548   1.948  1.00  0.00     0.001 A 
HETATM   18  C15 UNL     1      58.756 -68.026   3.054  1.00  0.00     0.007 A 
ENDBRANCH  12  13
ENDBRANCH  11  12
ENDBRANCH   8  11
BRANCH   4  19
HETATM   19  O4  UNL     1      67.068 -70.208   6.094  1.00  0.00    -0.385 OA
ATOM     20  H4  UNL     1      67.915 -70.243   6.523  1.00  0.00     0.210 HD
ENDBRANCH   4  19
BRANCH   1  21
HETATM   21  C1  UNL     1      62.279 -70.541   8.949  1.00  0.00     0.192 C 
BRANCH  21  22
HETATM   22  O1  UNL     1      61.993 -69.218   8.641  1.00  0.00    -0.399 OA
ATOM     23  H1  UNL     1      61.407 -68.866   9.300  1.00  0.00     0.209 HD
ENDBRANCH  21  22
ENDBRANCH   1  21
BRANCH   3  24
HETATM   24  O3  UNL     1      67.105 -71.263   8.736  1.00  0.00    -0.390 OA
ATOM     25  H3  UNL     1      67.707 -70.534   8.643  1.00  0.00     0.210 HD
ENDBRANCH   3  24
BRANCH   2  26
HETATM   26  O2  UNL     1      64.859 -71.198  10.194  1.00  0.00    -0.391 OA
ATOM     27  H2  UNL     1      65.736 -71.215  10.559  1.00  0.00     0.210 HD
ENDBRANCH   2  26
TORSDOF 8
ENDMDL
