MODEL 2
REMARK VINA RESULT: -8.352323596      6.128      7.347
REMARK  8 active torsions:
REMARK  status: ('A' for Active; 'I' for Inactive)
REMARK    1  A    between atoms: O1_1  and  C1_3 
REMARK    2  A    between atoms: C1_3  and  C2_4 
REMARK    3  A    between atoms: C3_5  and  O2_6 
REMARK    4  A    between atoms: C4_8  and  O3_9 
REMARK    5  A    between atoms: C5_11  and  O4_12 
REMARK    6  A    between atoms: C7_17  and  C8_18 
REMARK    7  A    between atoms: C8_18  and  C9_19 
REMARK    8  A    between atoms: C9_19  and  C10_20 
ROOT
HETATM    1  C2  UNL     1      59.192 -67.483   1.844  1.00  0.00     0.145 C 
HETATM    2  C3  UNL     1      59.334 -66.842   0.487  1.00  0.00     0.175 C 
HETATM    3  C4  UNL     1      60.327 -65.690   0.669  1.00  0.00     0.185 C 
HETATM    4  C5  UNL     1      61.687 -66.353   0.714  1.00  0.00     0.217 C 
HETATM    5  C6  UNL     1      61.640 -67.314   1.847  1.00  0.00     0.116 A 
HETATM    6  N1  UNL     1      62.662 -67.852   2.567  1.00  0.00    -0.346 N 
ATOM      7  H1  UNL     1      63.649 -67.648   2.409  1.00  0.00     0.167 HD
HETATM    8  C7  UNL     1      62.206 -68.676   3.503  1.00  0.00     0.026 A 
HETATM    9  C16 UNL     1      60.819 -68.655   3.364  1.00  0.00     0.118 A 
HETATM   10  N2  UNL     1      60.507 -67.820   2.351  1.00  0.00    -0.333 N 
ENDROOT
BRANCH   8  11
HETATM   11  C8  UNL     1      62.943 -69.474   4.509  1.00  0.00     0.063 C 
BRANCH  11  12
HETATM   12  C9  UNL     1      62.161 -69.532   5.826  1.00  0.00     0.044 C 
BRANCH  12  13
HETATM   13  C10 UNL     1      63.027 -70.008   6.916  1.00  0.00    -0.058 A 
HETATM   14  C11 UNL     1      64.381 -69.681   6.861  1.00  0.00     0.007 A 
HETATM   15  C12 UNL     1      65.196 -70.126   7.879  1.00  0.00     0.001 A 
HETATM   16  C13 UNL     1      64.688 -70.873   8.922  1.00  0.00     0.000 A 
HETATM   17  C14 UNL     1      63.348 -71.182   8.952  1.00  0.00     0.001 A 
HETATM   18  C15 UNL     1      62.506 -70.751   7.945  1.00  0.00     0.007 A 
ENDBRANCH  12  13
ENDBRANCH  11  12
ENDBRANCH   8  11
BRANCH   4  19
HETATM   19  O4  UNL     1      62.710 -65.426   0.858  1.00  0.00    -0.385 OA
ATOM     20  H4  UNL     1      63.037 -65.128   0.018  1.00  0.00     0.210 HD
ENDBRANCH   4  19
BRANCH   1  21
HETATM   21  C1  UNL     1      58.282 -68.691   1.825  1.00  0.00     0.192 C 
BRANCH  21  22
HETATM   22  O1  UNL     1      58.294 -69.248   0.554  1.00  0.00    -0.399 OA
ATOM     23  H1  UNL     1      57.437 -69.613   0.367  1.00  0.00     0.209 HD
ENDBRANCH  21  22
ENDBRANCH   1  21
BRANCH   3  24
HETATM   24  O3  UNL     1      60.210 -64.747  -0.319  1.00  0.00    -0.390 OA
ATOM     25  H3  UNL     1      61.054 -64.401  -0.585  1.00  0.00     0.210 HD
ENDBRANCH   3  24
BRANCH   2  26
HETATM   26  O2  UNL     1      58.149 -66.438  -0.059  1.00  0.00    -0.391 OA
ATOM     27  H2  UNL     1      58.183 -65.574  -0.454  1.00  0.00     0.210 HD
ENDBRANCH   2  26
TORSDOF 8
ENDMDL
