MODEL 3
REMARK VINA RESULT: -8.332379240      6.140      7.417
REMARK  8 active torsions:
REMARK  status: ('A' for Active; 'I' for Inactive)
REMARK    1  A    between atoms: O1_1  and  C1_3 
REMARK    2  A    between atoms: C1_3  and  C2_4 
REMARK    3  A    between atoms: C3_5  and  O2_6 
REMARK    4  A    between atoms: C4_8  and  O3_9 
REMARK    5  A    between atoms: C5_11  and  O4_12 
REMARK    6  A    between atoms: C7_17  and  C8_18 
REMARK    7  A    between atoms: C8_18  and  C9_19 
REMARK    8  A    between atoms: C9_19  and  C10_20 
ROOT
HETATM    1  C2  UNL     1      59.188 -67.485   1.849  1.00  0.00     0.145 C 
HETATM    2  C3  UNL     1      59.326 -66.848   0.489  1.00  0.00     0.175 C 
HETATM    3  C4  UNL     1      60.331 -65.704   0.661  1.00  0.00     0.185 C 
HETATM    4  C5  UNL     1      61.685 -66.379   0.698  1.00  0.00     0.217 C 
HETATM    5  C6  UNL     1      61.637 -67.338   1.832  1.00  0.00     0.116 A 
HETATM    6  N1  UNL     1      62.660 -67.884   2.546  1.00  0.00    -0.346 N 
ATOM      7  H1  UNL     1      63.648 -67.689   2.380  1.00  0.00     0.167 HD
HETATM    8  C7  UNL     1      62.203 -68.702   3.487  1.00  0.00     0.026 A 
HETATM    9  C16 UNL     1      60.816 -68.669   3.359  1.00  0.00     0.118 A 
HETATM   10  N2  UNL     1      60.504 -67.832   2.346  1.00  0.00    -0.333 N 
ENDROOT
BRANCH   8  11
HETATM   11  C8  UNL     1      62.941 -69.505   4.489  1.00  0.00     0.063 C 
BRANCH  11  12
HETATM   12  C9  UNL     1      62.193 -69.512   5.827  1.00  0.00     0.044 C 
BRANCH  12  13
HETATM   13  C10 UNL     1      63.073 -69.991   6.904  1.00  0.00    -0.058 A 
HETATM   14  C11 UNL     1      62.497 -70.733   7.934  1.00  0.00     0.007 A 
HETATM   15  C12 UNL     1      63.318 -71.183   8.945  1.00  0.00     0.001 A 
HETATM   16  C13 UNL     1      64.670 -70.908   8.939  1.00  0.00     0.000 A 
HETATM   17  C14 UNL     1      65.214 -70.174   7.911  1.00  0.00     0.001 A 
HETATM   18  C15 UNL     1      64.416 -69.708   6.883  1.00  0.00     0.007 A 
ENDBRANCH  12  13
ENDBRANCH  11  12
ENDBRANCH   8  11
BRANCH   4  19
HETATM   19  O4  UNL     1      62.717 -65.461   0.833  1.00  0.00    -0.385 OA
ATOM     20  H4  UNL     1      63.509 -65.866   1.165  1.00  0.00     0.210 HD
ENDBRANCH   4  19
BRANCH   1  21
HETATM   21  C1  UNL     1      58.267 -68.684   1.838  1.00  0.00     0.192 C 
BRANCH  21  22
HETATM   22  O1  UNL     1      58.267 -69.245   0.569  1.00  0.00    -0.399 OA
ATOM     23  H1  UNL     1      58.770 -70.051   0.586  1.00  0.00     0.209 HD
ENDBRANCH  21  22
ENDBRANCH   1  21
BRANCH   3  24
HETATM   24  O3  UNL     1      60.215 -64.762  -0.327  1.00  0.00    -0.390 OA
ATOM     25  H3  UNL     1      59.347 -64.376  -0.353  1.00  0.00     0.210 HD
ENDBRANCH   3  24
BRANCH   2  26
HETATM   26  O2  UNL     1      58.140 -66.434  -0.049  1.00  0.00    -0.391 OA
ATOM     27  H2  UNL     1      58.091 -65.496  -0.192  1.00  0.00     0.210 HD
ENDBRANCH   2  26
TORSDOF 8
ENDMDL
