MODEL 3
REMARK VINA RESULT: -6.253392502      7.420      9.072
REMARK  5 active torsions:
REMARK  status: ('A' for Active; 'I' for Inactive)
REMARK    1  A    between atoms: O1_1  and  C1_3 
REMARK    2  A    between atoms: C1_3  and  C2_4 
REMARK    3  A    between atoms: C3_5  and  O2_6 
REMARK    4  A    between atoms: C4_8  and  O3_9 
REMARK    5  A    between atoms: C5_11  and  O4_12 
ROOT
HETATM    1  C2  UNL     1      -1.079   5.345  16.764  1.00  0.00     0.145 C 
HETATM    2  C3  UNL     1      -1.736   6.550  17.423  1.00  0.00     0.175 C 
HETATM    3  C4  UNL     1      -2.085   7.452  16.232  1.00  0.00     0.185 C 
HETATM    4  C5  UNL     1      -3.293   6.832  15.592  1.00  0.00     0.217 C 
HETATM    5  C6  UNL     1      -3.099   5.368  15.488  1.00  0.00     0.115 A 
HETATM    6  N1  UNL     1      -3.918   4.496  14.833  1.00  0.00    -0.352 N 
ATOM      7  H1  UNL     1      -4.769   4.759  14.334  1.00  0.00     0.166 HD
HETATM    8  C7  UNL     1      -3.447   3.245  14.937  1.00  0.00     0.106 A 
HETATM    9  C8  UNL     1      -2.296   3.358  15.685  1.00  0.00     0.110 A 
HETATM   10  N2  UNL     1      -2.092   4.667  16.018  1.00  0.00    -0.334 N 
ENDROOT
BRANCH   1  11
HETATM   11  C1  UNL     1      -0.309   4.517  17.724  1.00  0.00     0.192 C 
BRANCH  11  12
HETATM   12  O1  UNL     1       0.937   5.106  17.924  1.00  0.00    -0.399 OA
ATOM     13  H1  UNL     1       1.250   5.450  17.096  1.00  0.00     0.209 HD
ENDBRANCH  11  12
ENDBRANCH   1  11
BRANCH   2  14
HETATM   14  O2  UNL     1      -0.905   7.175  18.321  1.00  0.00    -0.391 OA
ATOM     15  H2  UNL     1      -0.395   6.557  18.833  1.00  0.00     0.210 HD
ENDBRANCH   2  14
BRANCH   3  16
HETATM   16  O3  UNL     1      -2.302   8.759  16.645  1.00  0.00    -0.390 OA
ATOM     17  H3  UNL     1      -3.154   9.069  16.362  1.00  0.00     0.210 HD
ENDBRANCH   3  16
BRANCH   4  18
HETATM   18  O4  UNL     1      -3.503   7.390  14.332  1.00  0.00    -0.385 OA
ATOM     19  H4  UNL     1      -3.984   8.205  14.414  1.00  0.00     0.210 HD
ENDBRANCH   4  18
TORSDOF 5
ENDMDL
