MODEL 2
REMARK VINA RESULT: -6.304276295      6.887      9.267
REMARK  5 active torsions:
REMARK  status: ('A' for Active; 'I' for Inactive)
REMARK    1  A    between atoms: O1_1  and  C1_3 
REMARK    2  A    between atoms: C1_3  and  C2_4 
REMARK    3  A    between atoms: C3_5  and  O2_6 
REMARK    4  A    between atoms: C4_8  and  O3_9 
REMARK    5  A    between atoms: C5_11  and  O4_12 
ROOT
HETATM    1  C2  UNL     1      -1.172   5.779  16.936  1.00  0.00     0.145 C 
HETATM    2  C3  UNL     1      -2.389   4.873  17.069  1.00  0.00     0.175 C 
HETATM    3  C4  UNL     1      -3.495   5.837  17.516  1.00  0.00     0.185 C 
HETATM    4  C5  UNL     1      -3.890   6.603  16.286  1.00  0.00     0.217 C 
HETATM    5  C6  UNL     1      -2.673   7.026  15.558  1.00  0.00     0.115 A 
HETATM    6  N1  UNL     1      -2.636   7.860  14.479  1.00  0.00    -0.352 N 
ATOM      7  H1  UNL     1      -3.453   8.292  14.047  1.00  0.00     0.166 HD
HETATM    8  C7  UNL     1      -1.371   8.031  14.066  1.00  0.00     0.106 A 
HETATM    9  C8  UNL     1      -0.608   7.273  14.926  1.00  0.00     0.110 A 
HETATM   10  N2  UNL     1      -1.418   6.660  15.838  1.00  0.00    -0.334 N 
ENDROOT
BRANCH   1  11
HETATM   11  C1  UNL     1       0.103   5.022  16.894  1.00  0.00     0.192 C 
BRANCH  11  12
HETATM   12  O1  UNL     1       0.723   5.120  18.137  1.00  0.00    -0.399 OA
ATOM     13  H1  UNL     1       1.249   5.911  18.155  1.00  0.00     0.209 HD
ENDBRANCH  11  12
ENDBRANCH   1  11
BRANCH   2  14
HETATM   14  O2  UNL     1      -2.190   3.857  17.971  1.00  0.00    -0.391 OA
ATOM     15  H2  UNL     1      -1.282   3.579  18.009  1.00  0.00     0.210 HD
ENDBRANCH   2  14
BRANCH   3  16
HETATM   16  O3  UNL     1      -4.553   5.148  18.089  1.00  0.00    -0.390 OA
ATOM     17  H3  UNL     1      -4.942   5.648  18.797  1.00  0.00     0.210 HD
ENDBRANCH   3  16
BRANCH   4  18
HETATM   18  O4  UNL     1      -4.658   7.710  16.642  1.00  0.00    -0.385 OA
ATOM     19  H4  UNL     1      -4.184   8.510  16.447  1.00  0.00     0.210 HD
ENDBRANCH   4  18
TORSDOF 5
ENDMDL
