MODEL 5
REMARK VINA RESULT: -6.104302815      7.852      8.412
REMARK  5 active torsions:
REMARK  status: ('A' for Active; 'I' for Inactive)
REMARK    1  A    between atoms: O1_1  and  C1_3 
REMARK    2  A    between atoms: C1_3  and  C2_4 
REMARK    3  A    between atoms: C3_5  and  O2_6 
REMARK    4  A    between atoms: C4_8  and  O3_9 
REMARK    5  A    between atoms: C5_11  and  O4_12 
ROOT
HETATM    1  C2  UNL     1      -2.860   4.568  15.535  1.00  0.00     0.145 C 
HETATM    2  C3  UNL     1      -3.359   5.942  15.107  1.00  0.00     0.175 C 
HETATM    3  C4  UNL     1      -3.131   6.801  16.358  1.00  0.00     0.185 C 
HETATM    4  C5  UNL     1      -1.655   7.075  16.401  1.00  0.00     0.217 C 
HETATM    5  C6  UNL     1      -0.914   5.827  16.113  1.00  0.00     0.115 A 
HETATM    6  N1  UNL     1       0.437   5.659  16.207  1.00  0.00    -0.352 N 
ATOM      7  H1  UNL     1       1.096   6.384  16.491  1.00  0.00     0.166 HD
HETATM    8  C7  UNL     1       0.774   4.405  15.873  1.00  0.00     0.106 A 
HETATM    9  C8  UNL     1      -0.416   3.785  15.563  1.00  0.00     0.110 A 
HETATM   10  N2  UNL     1      -1.446   4.668  15.714  1.00  0.00    -0.334 N 
ENDROOT
BRANCH   1  11
HETATM   11  C1  UNL     1      -3.332   3.484  14.639  1.00  0.00     0.192 C 
BRANCH  11  12
HETATM   12  O1  UNL     1      -4.644   3.164  14.975  1.00  0.00    -0.399 OA
ATOM     13  H1  UNL     1      -4.634   2.454  15.606  1.00  0.00     0.209 HD
ENDBRANCH  11  12
ENDBRANCH   1  11
BRANCH   2  14
HETATM   14  O2  UNL     1      -4.677   5.925  14.722  1.00  0.00    -0.391 OA
ATOM     15  H2  UNL     1      -4.872   5.209  14.129  1.00  0.00     0.210 HD
ENDBRANCH   2  14
BRANCH   3  16
HETATM   16  O3  UNL     1      -3.896   7.957  16.313  1.00  0.00    -0.390 OA
ATOM     17  H3  UNL     1      -4.686   7.863  16.833  1.00  0.00     0.210 HD
ENDBRANCH   3  16
BRANCH   4  18
HETATM   18  O4  UNL     1      -1.302   7.578  17.653  1.00  0.00    -0.385 OA
ATOM     19  H4  UNL     1      -2.081   7.845  18.127  1.00  0.00     0.210 HD
ENDBRANCH   4  18
TORSDOF 5
ENDMDL
