MODEL 1
REMARK VINA RESULT: -8.265870609      0.000      0.000
REMARK  5 active torsions:
REMARK  status: ('A' for Active; 'I' for Inactive)
REMARK    1  A    between atoms: O1_1  and  C1_3 
REMARK    2  A    between atoms: C1_3  and  C2_4 
REMARK    3  A    between atoms: C3_5  and  O2_6 
REMARK    4  A    between atoms: C4_8  and  O3_9 
REMARK    5  A    between atoms: C5_11  and  O4_12 
ROOT
HETATM    1  C2  UNL     1      -2.422  10.529   8.960  1.00  0.00     0.145 C 
HETATM    2  C3  UNL     1      -1.188  10.591   8.070  1.00  0.00     0.175 C 
HETATM    3  C4  UNL     1      -0.391  11.762   8.659  1.00  0.00     0.185 C 
HETATM    4  C5  UNL     1       0.238  11.235   9.916  1.00  0.00     0.217 C 
HETATM    5  C6  UNL     1      -0.763  10.454  10.677  1.00  0.00     0.115 A 
HETATM    6  N1  UNL     1      -0.596   9.949  11.934  1.00  0.00    -0.352 N 
ATOM      7  H1  UNL     1       0.248  10.054  12.497  1.00  0.00     0.166 HD
HETATM    8  C7  UNL     1      -1.700   9.294  12.322  1.00  0.00     0.106 A 
HETATM    9  C8  UNL     1      -2.573   9.404  11.263  1.00  0.00     0.110 A 
HETATM   10  N2  UNL     1      -1.986  10.119  10.258  1.00  0.00    -0.334 N 
ENDROOT
BRANCH   1  11
HETATM   11  C1  UNL     1      -3.522   9.737   8.358  1.00  0.00     0.192 C 
BRANCH  11  12
HETATM   12  O1  UNL     1      -3.153   8.394   8.345  1.00  0.00    -0.399 OA
ATOM     13  H1  UNL     1      -3.482   7.994   7.549  1.00  0.00     0.209 HD
ENDBRANCH  11  12
ENDBRANCH   1  11
BRANCH   2  14
HETATM   14  O2  UNL     1      -1.504  10.791   6.748  1.00  0.00    -0.391 OA
ATOM     15  H2  UNL     1      -2.035  10.088   6.392  1.00  0.00     0.210 HD
ENDBRANCH   2  14
BRANCH   3  16
HETATM   16  O3  UNL     1       0.539  12.239   7.746  1.00  0.00    -0.390 OA
ATOM     17  H3  UNL     1       0.907  13.066   8.037  1.00  0.00     0.210 HD
ENDBRANCH   3  16
BRANCH   4  18
HETATM   18  O4  UNL     1       0.722  12.293  10.685  1.00  0.00    -0.385 OA
ATOM     19  H4  UNL     1       0.121  12.479  11.397  1.00  0.00     0.210 HD
ENDBRANCH   4  18
TORSDOF 5
ENDMDL
