MODEL 2
REMARK VINA RESULT: -8.698221210      1.178      2.938
REMARK  8 active torsions:
REMARK  status: ('A' for Active; 'I' for Inactive)
REMARK    1  A    between atoms: O1_1  and  C1_3 
REMARK    2  A    between atoms: C1_3  and  C2_4 
REMARK    3  A    between atoms: C3_5  and  O2_6 
REMARK    4  A    between atoms: C4_8  and  O3_9 
REMARK    5  A    between atoms: C5_11  and  O4_12 
REMARK    6  A    between atoms: C7_17  and  C8_18 
REMARK    7  A    between atoms: C8_18  and  C9_19 
REMARK    8  A    between atoms: C9_19  and  C10_20 
ROOT
HETATM    1  C2  UNL     1      -2.866   5.768  16.077  1.00  0.00     0.145 C 
HETATM    2  C3  UNL     1      -1.814   5.509  17.127  1.00  0.00     0.175 C 
HETATM    3  C4  UNL     1      -0.684   4.759  16.413  1.00  0.00     0.185 C 
HETATM    4  C5  UNL     1       0.066   5.826  15.644  1.00  0.00     0.217 C 
HETATM    5  C6  UNL     1      -0.929   6.457  14.737  1.00  0.00     0.116 A 
HETATM    6  N1  UNL     1      -0.728   7.154  13.585  1.00  0.00    -0.346 N 
ATOM      7  H1  UNL     1       0.187   7.341  13.176  1.00  0.00     0.167 HD
HETATM    8  C7  UNL     1      -1.880   7.558  13.064  1.00  0.00     0.026 A 
HETATM    9  C16 UNL     1      -2.861   7.089  13.936  1.00  0.00     0.118 A 
HETATM   10  N2  UNL     1      -2.252   6.425  14.941  1.00  0.00    -0.333 N 
ENDROOT
BRANCH   8  11
HETATM   11  C8  UNL     1      -2.146   8.337  11.833  1.00  0.00     0.063 C 
BRANCH  11  12
HETATM   12  C9  UNL     1      -1.147   9.493  11.704  1.00  0.00     0.044 C 
BRANCH  12  13
HETATM   13  C10 UNL     1      -1.135  10.009  10.326  1.00  0.00    -0.058 A 
HETATM   14  C11 UNL     1      -2.232   9.723   9.514  1.00  0.00     0.007 A 
HETATM   15  C12 UNL     1      -2.225  10.203   8.224  1.00  0.00     0.001 A 
HETATM   16  C13 UNL     1      -1.165  10.946   7.747  1.00  0.00     0.000 A 
HETATM   17  C14 UNL     1      -0.094  11.214   8.568  1.00  0.00     0.001 A 
HETATM   18  C15 UNL     1      -0.072  10.745   9.868  1.00  0.00     0.007 A 
ENDBRANCH  12  13
ENDBRANCH  11  12
ENDBRANCH   8  11
BRANCH   4  19
HETATM   19  O4  UNL     1       1.146   5.301  14.950  1.00  0.00    -0.385 OA
ATOM     20  H4  UNL     1       1.212   5.661  14.073  1.00  0.00     0.210 HD
ENDBRANCH   4  19
BRANCH   1  21
HETATM   21  C1  UNL     1      -4.036   6.563  16.611  1.00  0.00     0.192 C 
BRANCH  21  22
HETATM   22  O1  UNL     1      -4.758   5.772  17.492  1.00  0.00    -0.399 OA
ATOM     23  H1  UNL     1      -4.294   5.725  18.319  1.00  0.00     0.209 HD
ENDBRANCH  21  22
ENDBRANCH   1  21
BRANCH   3  24
HETATM   24  O3  UNL     1       0.103   4.059  17.288  1.00  0.00    -0.390 OA
ATOM     25  H3  UNL     1       0.449   3.263  16.900  1.00  0.00     0.210 HD
ENDBRANCH   3  24
BRANCH   2  26
HETATM   26  O2  UNL     1      -2.281   4.842  18.223  1.00  0.00    -0.391 OA
ATOM     27  H2  UNL     1      -1.652   4.239  18.602  1.00  0.00     0.210 HD
ENDBRANCH   2  26
TORSDOF 8
ENDMDL
