MODEL 3
REMARK VINA RESULT: -8.662033742      1.680      2.667
REMARK  8 active torsions:
REMARK  status: ('A' for Active; 'I' for Inactive)
REMARK    1  A    between atoms: O1_1  and  C1_3 
REMARK    2  A    between atoms: C1_3  and  C2_4 
REMARK    3  A    between atoms: C3_5  and  O2_6 
REMARK    4  A    between atoms: C4_8  and  O3_9 
REMARK    5  A    between atoms: C5_11  and  O4_12 
REMARK    6  A    between atoms: C7_17  and  C8_18 
REMARK    7  A    between atoms: C8_18  and  C9_19 
REMARK    8  A    between atoms: C9_19  and  C10_20 
ROOT
HETATM    1  C2  UNL     1      -1.454   4.257  15.180  1.00  0.00     0.145 C 
HETATM    2  C3  UNL     1      -1.847   4.000  16.613  1.00  0.00     0.175 C 
HETATM    3  C4  UNL     1      -0.903   4.855  17.466  1.00  0.00     0.185 C 
HETATM    4  C5  UNL     1      -1.454   6.261  17.363  1.00  0.00     0.217 C 
HETATM    5  C6  UNL     1      -1.456   6.598  15.915  1.00  0.00     0.116 A 
HETATM    6  N1  UNL     1      -1.458   7.818  15.311  1.00  0.00    -0.346 N 
ATOM      7  H1  UNL     1      -1.458   8.708  15.809  1.00  0.00     0.167 HD
HETATM    8  C7  UNL     1      -1.459   7.697  13.989  1.00  0.00     0.026 A 
HETATM    9  C16 UNL     1      -1.458   6.325  13.747  1.00  0.00     0.118 A 
HETATM   10  N2  UNL     1      -1.456   5.685  14.935  1.00  0.00    -0.333 N 
ENDROOT
BRANCH   8  11
HETATM   11  C8  UNL     1      -1.461   8.742  12.939  1.00  0.00     0.063 C 
BRANCH  11  12
HETATM   12  C9  UNL     1      -2.207   8.248  11.693  1.00  0.00     0.044 C 
BRANCH  12  13
HETATM   13  C10 UNL     1      -1.993   9.172  10.569  1.00  0.00    -0.058 A 
HETATM   14  C11 UNL     1      -2.943   9.185   9.548  1.00  0.00     0.007 A 
HETATM   15  C12 UNL     1      -2.747  10.049   8.493  1.00  0.00     0.001 A 
HETATM   16  C13 UNL     1      -1.644  10.876   8.445  1.00  0.00     0.000 A 
HETATM   17  C14 UNL     1      -0.721  10.843   9.465  1.00  0.00     0.001 A 
HETATM   18  C15 UNL     1      -0.890   9.987  10.537  1.00  0.00     0.007 A 
ENDBRANCH  12  13
ENDBRANCH  11  12
ENDBRANCH   8  11
BRANCH   4  19
HETATM   19  O4  UNL     1      -0.709   7.164  18.108  1.00  0.00    -0.385 OA
ATOM     20  H4  UNL     1      -0.133   7.684  17.560  1.00  0.00     0.210 HD
ENDBRANCH   4  19
BRANCH   1  21
HETATM   21  C1  UNL     1      -2.339   3.526  14.195  1.00  0.00     0.192 C 
BRANCH  21  22
HETATM   22  O1  UNL     1      -3.622   3.439  14.716  1.00  0.00    -0.399 OA
ATOM     23  H1  UNL     1      -3.997   2.599  14.479  1.00  0.00     0.209 HD
ENDBRANCH  21  22
ENDBRANCH   1  21
BRANCH   3  24
HETATM   24  O3  UNL     1      -0.814   4.396  18.754  1.00  0.00    -0.390 OA
ATOM     25  H3  UNL     1      -0.464   5.053  19.344  1.00  0.00     0.210 HD
ENDBRANCH   3  24
BRANCH   2  26
HETATM   26  O2  UNL     1      -1.825   2.680  16.963  1.00  0.00    -0.391 OA
ATOM     27  H2  UNL     1      -2.632   2.376  17.363  1.00  0.00     0.210 HD
ENDBRANCH   2  26
TORSDOF 8
ENDMDL
