MODEL 1
REMARK VINA RESULT: -8.876117013      0.000      0.000
REMARK  8 active torsions:
REMARK  status: ('A' for Active; 'I' for Inactive)
REMARK    1  A    between atoms: O1_1  and  C1_3 
REMARK    2  A    between atoms: C1_3  and  C2_4 
REMARK    3  A    between atoms: C3_5  and  O2_6 
REMARK    4  A    between atoms: C4_8  and  O3_9 
REMARK    5  A    between atoms: C5_11  and  O4_12 
REMARK    6  A    between atoms: C7_17  and  C8_18 
REMARK    7  A    between atoms: C8_18  and  C9_19 
REMARK    8  A    between atoms: C9_19  and  C10_20 
ROOT
HETATM    1  C2  UNL     1      -1.009   5.813  16.531  1.00  0.00     0.145 C 
HETATM    2  C3  UNL     1      -2.175   4.978  16.998  1.00  0.00     0.175 C 
HETATM    3  C4  UNL     1      -3.410   5.878  16.879  1.00  0.00     0.185 C 
HETATM    4  C5  UNL     1      -3.749   5.880  15.404  1.00  0.00     0.217 C 
HETATM    5  C6  UNL     1      -2.541   6.389  14.703  1.00  0.00     0.116 A 
HETATM    6  N1  UNL     1      -2.432   6.961  13.472  1.00  0.00    -0.346 N 
ATOM      7  H1  UNL     1      -3.216   7.120  12.839  1.00  0.00     0.167 HD
HETATM    8  C7  UNL     1      -1.173   7.284  13.205  1.00  0.00     0.026 A 
HETATM    9  C16 UNL     1      -0.448   6.894  14.330  1.00  0.00     0.118 A 
HETATM   10  N2  UNL     1      -1.307   6.355  15.221  1.00  0.00    -0.333 N 
ENDROOT
BRANCH   8  11
HETATM   11  C8  UNL     1      -0.589   7.920  12.001  1.00  0.00     0.063 C 
BRANCH  11  12
HETATM   12  C9  UNL     1      -1.055   9.376  11.886  1.00  0.00     0.044 C 
BRANCH  12  13
HETATM   13  C10 UNL     1      -1.661   9.617  10.567  1.00  0.00    -0.058 A 
HETATM   14  C11 UNL     1      -1.054  10.555   9.733  1.00  0.00     0.007 A 
HETATM   15  C12 UNL     1      -1.618  10.784   8.497  1.00  0.00     0.001 A 
HETATM   16  C13 UNL     1      -2.751  10.106   8.095  1.00  0.00     0.000 A 
HETATM   17  C14 UNL     1      -3.331   9.185   8.937  1.00  0.00     0.001 A 
HETATM   18  C15 UNL     1      -2.788   8.934  10.183  1.00  0.00     0.007 A 
ENDBRANCH  12  13
ENDBRANCH  11  12
ENDBRANCH   8  11
BRANCH   4  19
HETATM   19  O4  UNL     1      -4.873   6.647  15.132  1.00  0.00    -0.385 OA
ATOM     20  H4  UNL     1      -5.468   6.675  15.872  1.00  0.00     0.210 HD
ENDBRANCH   4  19
BRANCH   1  21
HETATM   21  C1  UNL     1       0.292   5.043  16.528  1.00  0.00     0.192 C 
BRANCH  21  22
HETATM   22  O1  UNL     1       0.877   5.134  17.783  1.00  0.00    -0.399 OA
ATOM     23  H1  UNL     1       1.768   5.448  17.689  1.00  0.00     0.209 HD
ENDBRANCH  21  22
ENDBRANCH   1  21
BRANCH   3  24
HETATM   24  O3  UNL     1      -4.438   5.451  17.677  1.00  0.00    -0.390 OA
ATOM     25  H3  UNL     1      -5.096   6.125  17.803  1.00  0.00     0.210 HD
ENDBRANCH   3  24
BRANCH   2  26
HETATM   26  O2  UNL     1      -2.017   4.461  18.252  1.00  0.00    -0.391 OA
ATOM     27  H2  UNL     1      -2.369   3.584  18.352  1.00  0.00     0.210 HD
ENDBRANCH   2  26
TORSDOF 8
ENDMDL
