MODEL 5
REMARK VINA RESULT: -6.914151988      5.647      7.696
REMARK  9 active torsions:
REMARK  status: ('A' for Active; 'I' for Inactive)
REMARK       I    between atoms: C2_2  and  N1_4 
REMARK    1  A    between atoms: N1_4  and  C3_6 
REMARK    2  A    between atoms: C4_7  and  O2_8 
REMARK    3  A    between atoms: C6_11  and  C7_12 
REMARK    4  A    between atoms: C8_16  and  C9_17 
REMARK    5  A    between atoms: C9_17  and  O6_18 
REMARK    6  A    between atoms: C9_17  and  C10_20 
REMARK    7  A    between atoms: C10_20  and  O7_21 
REMARK    8  A    between atoms: C10_20  and  C11_23 
REMARK    9  A    between atoms: C11_23  and  O8_24 
ROOT
HETATM    1  C3  UNL     1      55.041   7.320  31.587  1.00  0.00     0.149 C 
HETATM    2  C4  UNL     1      54.141   8.439  31.131  1.00  0.00     0.169 C 
HETATM    3  C5  UNL     1      54.355   9.586  32.040  1.00  0.00     0.050 C 
HETATM    4  C6  UNL     1      55.512   9.757  32.641  1.00  0.00     0.144 C 
HETATM    5  O5  UNL     1      56.566   8.892  32.459  1.00  0.00    -0.335 OA
HETATM    6  C8  UNL     1      56.502   7.752  31.637  1.00  0.00     0.186 C 
ENDROOT
BRANCH   6   7
HETATM    7  C9  UNL     1      57.250   6.582  32.182  1.00  0.00     0.180 C 
BRANCH   7   8
HETATM    8  O6  UNL     1      57.160   6.543  33.563  1.00  0.00    -0.390 OA
ATOM      9  H6  UNL     1      57.811   5.955  33.925  1.00  0.00     0.210 HD
ENDBRANCH   7   8
BRANCH   7  10
HETATM   10  C10 UNL     1      58.659   6.462  31.725  1.00  0.00     0.173 C 
BRANCH  10  11
HETATM   11  O7  UNL     1      58.870   7.488  30.772  1.00  0.00    -0.391 OA
ATOM     12  H7  UNL     1      59.768   7.779  30.876  1.00  0.00     0.210 HD
ENDBRANCH  10  11
BRANCH  10  13
HETATM   13  C11 UNL     1      58.920   5.164  30.974  1.00  0.00     0.198 C 
BRANCH  13  14
HETATM   14  O8  UNL     1      59.764   4.338  31.711  1.00  0.00    -0.398 OA
ATOM     15  H8  UNL     1      60.236   3.749  31.136  1.00  0.00     0.209 HD
ENDBRANCH  13  14
ENDBRANCH  10  13
ENDBRANCH   7  10
ENDBRANCH   6   7
BRANCH   1  16
HETATM   16  N1  UNL     1      54.956   6.252  30.613  1.00  0.00    -0.351 N 
HETATM   17  C2  UNL     1      54.169   5.087  30.791  1.00  0.00     0.214 C 
HETATM   18  C1  UNL     1      54.116   4.008  29.747  1.00  0.00     0.117 C 
HETATM   19  O1  UNL     1      53.509   4.974  31.848  1.00  0.00    -0.274 OA
ATOM     20  H1  UNL     1      55.492   6.342  29.750  1.00  0.00     0.163 HD
ENDBRANCH   1  16
BRANCH   2  21
HETATM   21  O2  UNL     1      52.826   8.002  31.287  1.00  0.00    -0.389 OA
ATOM     22  H2  UNL     1      52.300   8.763  31.501  1.00  0.00     0.210 HD
ENDBRANCH   2  21
BRANCH   4  23
HETATM   23  C7  UNL     1      55.663  10.921  33.537  1.00  0.00     0.233 C 
HETATM   24  O3  UNL     1      54.779  11.786  33.639  1.00  0.00    -0.642 OA
HETATM   25  O4  UNL     1      56.814  11.081  34.300  1.00  0.00    -0.642 OA
ENDBRANCH   4  23
TORSDOF 9
ENDMDL
