MODEL 3
REMARK VINA RESULT: -7.002060167      4.252      5.647
REMARK  9 active torsions:
REMARK  status: ('A' for Active; 'I' for Inactive)
REMARK       I    between atoms: C2_2  and  N1_4 
REMARK    1  A    between atoms: N1_4  and  C3_6 
REMARK    2  A    between atoms: C4_7  and  O2_8 
REMARK    3  A    between atoms: C6_11  and  C7_12 
REMARK    4  A    between atoms: C8_16  and  C9_17 
REMARK    5  A    between atoms: C9_17  and  O6_18 
REMARK    6  A    between atoms: C9_17  and  C10_20 
REMARK    7  A    between atoms: C10_20  and  O7_21 
REMARK    8  A    between atoms: C10_20  and  C11_23 
REMARK    9  A    between atoms: C11_23  and  O8_24 
ROOT
HETATM    1  C3  UNL     1      56.226   6.666  31.570  1.00  0.00     0.149 C 
HETATM    2  C4  UNL     1      57.124   6.789  32.773  1.00  0.00     0.169 C 
HETATM    3  C5  UNL     1      58.335   5.983  32.514  1.00  0.00     0.050 C 
HETATM    4  C6  UNL     1      58.759   5.787  31.285  1.00  0.00     0.144 C 
HETATM    5  O5  UNL     1      58.107   6.313  30.193  1.00  0.00    -0.335 OA
HETATM    6  C8  UNL     1      56.935   7.086  30.287  1.00  0.00     0.186 C 
ENDROOT
BRANCH   6   7
HETATM    7  C9  UNL     1      55.963   6.830  29.186  1.00  0.00     0.180 C 
BRANCH   7   8
HETATM    8  O6  UNL     1      55.290   5.639  29.394  1.00  0.00    -0.390 OA
ATOM      9  H6  UNL     1      54.520   5.586  28.840  1.00  0.00     0.210 HD
ENDBRANCH   7   8
BRANCH   7  10
HETATM   10  C10 UNL     1      56.528   6.903  27.812  1.00  0.00     0.173 C 
BRANCH  10  11
HETATM   11  O7  UNL     1      55.661   7.728  27.056  1.00  0.00    -0.391 OA
ATOM     12  H7  UNL     1      55.438   8.470  27.605  1.00  0.00     0.210 HD
ENDBRANCH  10  11
BRANCH  10  13
HETATM   13  C11 UNL     1      56.513   5.557  27.102  1.00  0.00     0.198 C 
BRANCH  13  14
HETATM   14  O8  UNL     1      57.463   4.705  27.658  1.00  0.00    -0.398 OA
ATOM     15  H8  UNL     1      57.502   3.890  27.172  1.00  0.00     0.209 HD
ENDBRANCH  13  14
ENDBRANCH  10  13
ENDBRANCH   7  10
ENDBRANCH   6   7
BRANCH   1  16
HETATM   16  N1  UNL     1      55.113   7.575  31.746  1.00  0.00    -0.351 N 
HETATM   17  C2  UNL     1      53.844   7.177  32.236  1.00  0.00     0.214 C 
HETATM   18  C1  UNL     1      52.721   8.163  32.401  1.00  0.00     0.117 C 
HETATM   19  O1  UNL     1      53.674   5.974  32.534  1.00  0.00    -0.274 OA
ATOM     20  H1  UNL     1      55.249   8.557  31.505  1.00  0.00     0.163 HD
ENDBRANCH   1  16
BRANCH   2  21
HETATM   21  O2  UNL     1      56.449   6.222  33.853  1.00  0.00    -0.389 OA
ATOM     22  H2  UNL     1      57.103   5.966  34.492  1.00  0.00     0.210 HD
ENDBRANCH   2  21
BRANCH   4  23
HETATM   23  C7  UNL     1      59.976   4.972  31.091  1.00  0.00     0.233 C 
HETATM   24  O3  UNL     1      60.757   4.733  32.024  1.00  0.00    -0.642 OA
HETATM   25  O4  UNL     1      60.281   4.443  29.842  1.00  0.00    -0.642 OA
ENDBRANCH   4  23
TORSDOF 9
ENDMDL
