MODEL 4
REMARK VINA RESULT: -6.955386748      2.427      5.617
REMARK  9 active torsions:
REMARK  status: ('A' for Active; 'I' for Inactive)
REMARK       I    between atoms: C2_2  and  N1_4 
REMARK    1  A    between atoms: N1_4  and  C3_6 
REMARK    2  A    between atoms: C4_7  and  O2_8 
REMARK    3  A    between atoms: C6_11  and  C7_12 
REMARK    4  A    between atoms: C8_16  and  C9_17 
REMARK    5  A    between atoms: C9_17  and  O6_18 
REMARK    6  A    between atoms: C9_17  and  C10_20 
REMARK    7  A    between atoms: C10_20  and  O7_21 
REMARK    8  A    between atoms: C10_20  and  C11_23 
REMARK    9  A    between atoms: C11_23  and  O8_24 
ROOT
HETATM    1  C3  UNL     1      58.251   6.449  27.292  1.00  0.00     0.149 C 
HETATM    2  C4  UNL     1      56.980   6.898  26.620  1.00  0.00     0.169 C 
HETATM    3  C5  UNL     1      57.159   8.310  26.220  1.00  0.00     0.050 C 
HETATM    4  C6  UNL     1      58.355   8.782  25.945  1.00  0.00     0.144 C 
HETATM    5  O5  UNL     1      59.484   7.999  26.015  1.00  0.00    -0.335 OA
HETATM    6  C8  UNL     1      59.467   6.644  26.395  1.00  0.00     0.186 C 
ENDROOT
BRANCH   6   7
HETATM    7  C9  UNL     1      60.645   6.242  27.218  1.00  0.00     0.180 C 
BRANCH   7   8
HETATM    8  O6  UNL     1      61.427   7.342  27.524  1.00  0.00    -0.390 OA
ATOM      9  H6  UNL     1      61.993   7.157  28.264  1.00  0.00     0.210 HD
ENDBRANCH   7   8
BRANCH   7  10
HETATM   10  C10 UNL     1      61.461   5.134  26.657  1.00  0.00     0.173 C 
BRANCH  10  11
HETATM   11  O7  UNL     1      60.818   3.926  27.021  1.00  0.00    -0.391 OA
ATOM     12  H7  UNL     1      60.809   3.375  26.247  1.00  0.00     0.210 HD
ENDBRANCH  10  11
BRANCH  10  13
HETATM   13  C11 UNL     1      62.844   5.051  27.287  1.00  0.00     0.198 C 
BRANCH  13  14
HETATM   14  O8  UNL     1      63.687   6.011  26.735  1.00  0.00    -0.398 OA
ATOM     15  H8  UNL     1      64.340   6.282  27.369  1.00  0.00     0.209 HD
ENDBRANCH  13  14
ENDBRANCH  10  13
ENDBRANCH   7  10
ENDBRANCH   6   7
BRANCH   1  16
HETATM   16  N1  UNL     1      58.145   5.026  27.545  1.00  0.00    -0.351 N 
HETATM   17  C2  UNL     1      57.794   4.477  28.803  1.00  0.00     0.214 C 
HETATM   18  C1  UNL     1      57.697   2.992  29.012  1.00  0.00     0.117 C 
HETATM   19  O1  UNL     1      57.560   5.262  29.749  1.00  0.00    -0.274 OA
ATOM     20  H1  UNL     1      58.334   4.384  26.776  1.00  0.00     0.163 HD
ENDBRANCH   1  16
BRANCH   2  21
HETATM   21  O2  UNL     1      55.965   6.844  27.574  1.00  0.00    -0.389 OA
ATOM     22  H2  UNL     1      55.140   6.937  27.114  1.00  0.00     0.210 HD
ENDBRANCH   2  21
BRANCH   4  23
HETATM   23  C7  UNL     1      58.468  10.201  25.551  1.00  0.00     0.233 C 
HETATM   24  O3  UNL     1      57.533  10.803  25.003  1.00  0.00    -0.642 OA
HETATM   25  O4  UNL     1      59.641  10.908  25.788  1.00  0.00    -0.642 OA
ENDBRANCH   4  23
TORSDOF 9
ENDMDL
