MODEL 2
REMARK VINA RESULT: -8.389476482      3.262      6.916
REMARK  5 active torsions:
REMARK  status: ('A' for Active; 'I' for Inactive)
REMARK    1  A    between atoms: C2_2  and  C4_4 
REMARK    2  A    between atoms: N1_9  and  C8_10 
REMARK    3  A    between atoms: C8_10  and  C9_11 
REMARK    4  A    between atoms: C15_18  and  C16_19 
REMARK    5  A    between atoms: C19_22  and  C20_23 
ROOT
HETATM    1  C4  UNL     1      18.636 -12.341  19.472  1.00  0.00     0.098 C 
HETATM    2  C5  UNL     1      18.594 -13.831  19.787  1.00  0.00     0.058 A 
HETATM    3  C6  UNL     1      17.198 -14.255  19.494  1.00  0.00     0.124 A 
HETATM    4  C7  UNL     1      16.575 -13.112  18.829  1.00  0.00     0.227 C 
HETATM    5  O1  UNL     1      15.360 -12.994  18.548  1.00  0.00    -0.273 OA
HETATM    6  N1  UNL     1      17.577 -12.108  18.529  1.00  0.00    -0.342 N 
HETATM    7  C15 UNL     1      16.540 -14.646  20.783  1.00  0.00     0.270 A 
HETATM    8  N4  UNL     1      17.548 -14.557  21.815  1.00  0.00     0.103 N 
HETATM    9  C23 UNL     1      17.709 -15.812  22.479  1.00  0.00     0.274 C 
HETATM   10  C24 UNL     1      19.172 -16.038  22.671  1.00  0.00     0.032 C 
HETATM   11  C25 UNL     1      19.749 -15.291  21.485  1.00  0.00     0.038 C 
HETATM   12  C26 UNL     1      18.775 -14.135  21.240  1.00  0.00     0.231 A 
ENDROOT
BRANCH   7  13
HETATM   13  C16 UNL     1      15.336 -13.862  21.091  1.00  0.00    -0.024 A 
HETATM   14  C17 UNL     1      14.088 -14.421  20.954  1.00  0.00     0.010 A 
HETATM   15  C18 UNL     1      12.990 -13.646  21.258  1.00  0.00     0.015 A 
HETATM   16  C19 UNL     1      13.121 -12.336  21.691  1.00  0.00     0.004 A 
HETATM   17  C21 UNL     1      14.394 -11.767  21.831  1.00  0.00     0.015 A 
HETATM   18  C22 UNL     1      15.470 -12.562  21.521  1.00  0.00     0.010 A 
BRANCH  16  19
HETATM   19  C20 UNL     1      11.984 -11.501  22.016  1.00  0.00     0.120 C 
HETATM   20  N2  UNL     1      11.896 -10.202  21.457  1.00  0.00    -0.082 NA
HETATM   21  N3  UNL     1      11.065 -11.900  22.787  1.00  0.00    -0.387 N 
ATOM     22  H32 UNL     1      11.129 -12.835  23.189  1.00  0.00     0.157 HD
ATOM     23  H31 UNL     1      10.264 -11.311  23.016  1.00  0.00     0.157 HD
ENDBRANCH  16  19
ENDBRANCH   7  13
BRANCH   1  24
HETATM   24  C2  UNL     1      20.000 -11.923  19.031  1.00  0.00     0.001 C 
HETATM   25  C1  UNL     1      21.022 -11.789  20.122  1.00  0.00     0.011 C 
HETATM   26  C3  UNL     1      20.582 -12.809  17.962  1.00  0.00     0.011 C 
ENDBRANCH   1  24
BRANCH   6  27
HETATM   27  C8  UNL     1      17.396 -11.149  17.467  1.00  0.00     0.164 C 
BRANCH  27  28
HETATM   28  C9  UNL     1      17.087 -11.757  16.151  1.00  0.00    -0.040 A 
HETATM   29  C10 UNL     1      17.849 -12.683  15.529  1.00  0.00     0.010 A 
HETATM   30  C11 UNL     1      17.469 -13.182  14.310  1.00  0.00     0.024 A 
HETATM   31  C12 UNL     1      16.311 -12.752  13.699  1.00  0.00     0.034 A 
HETATM   32 CL1  UNL     1      15.807 -13.372  12.148  1.00  0.00    -0.084 Cl
HETATM   33  C13 UNL     1      15.527 -11.809  14.322  1.00  0.00     0.024 A 
HETATM   34  C14 UNL     1      15.926 -11.322  15.545  1.00  0.00     0.010 A 
ENDBRANCH  27  28
ENDBRANCH   6  27
TORSDOF 5
ENDMDL
