MODEL 1
REMARK VINA RESULT: -9.462255807      0.000      0.000
REMARK  5 active torsions:
REMARK  status: ('A' for Active; 'I' for Inactive)
REMARK    1  A    between atoms: C2_2  and  C4_4 
REMARK    2  A    between atoms: N1_9  and  C8_10 
REMARK    3  A    between atoms: C8_10  and  C9_11 
REMARK    4  A    between atoms: C15_18  and  C16_19 
REMARK    5  A    between atoms: C19_22  and  C20_23 
ROOT
HETATM    1  C4  UNL     1      16.096 -13.347  19.439  1.00  0.00     0.098 C 
HETATM    2  C5  UNL     1      17.249 -12.353  19.367  1.00  0.00     0.058 A 
HETATM    3  C6  UNL     1      16.840 -11.351  18.346  1.00  0.00     0.124 A 
HETATM    4  C7  UNL     1      15.440 -11.646  18.048  1.00  0.00     0.227 C 
HETATM    5  O1  UNL     1      14.756 -11.133  17.132  1.00  0.00    -0.273 OA
HETATM    6  N1  UNL     1      14.934 -12.636  18.980  1.00  0.00    -0.342 N 
HETATM    7  C15 UNL     1      17.755 -11.475  17.165  1.00  0.00     0.270 A 
HETATM    8  N4  UNL     1      18.756 -12.460  17.510  1.00  0.00     0.103 N 
HETATM    9  C23 UNL     1      20.069 -11.905  17.418  1.00  0.00     0.274 C 
HETATM   10  C24 UNL     1      20.845 -12.381  18.602  1.00  0.00     0.032 C 
HETATM   11  C25 UNL     1      19.746 -12.552  19.631  1.00  0.00     0.038 C 
HETATM   12  C26 UNL     1      18.509 -12.944  18.820  1.00  0.00     0.231 A 
ENDROOT
BRANCH   7  13
HETATM   13  C16 UNL     1      17.058 -11.784  15.909  1.00  0.00    -0.024 A 
HETATM   14  C17 UNL     1      16.691 -13.075  15.617  1.00  0.00     0.010 A 
HETATM   15  C18 UNL     1      16.037 -13.313  14.427  1.00  0.00     0.015 A 
HETATM   16  C19 UNL     1      15.750 -12.290  13.537  1.00  0.00     0.004 A 
HETATM   17  C21 UNL     1      16.125 -10.974  13.836  1.00  0.00     0.015 A 
HETATM   18  C22 UNL     1      16.775 -10.766  15.028  1.00  0.00     0.010 A 
BRANCH  16  19
HETATM   19  C20 UNL     1      15.066 -12.514  12.281  1.00  0.00     0.120 C 
HETATM   20  N2  UNL     1      14.118 -11.563  11.830  1.00  0.00    -0.082 NA
HETATM   21  N3  UNL     1      15.291 -13.538  11.575  1.00  0.00    -0.387 N 
ATOM     22  H32 UNL     1      15.974 -14.222  11.900  1.00  0.00     0.157 HD
ATOM     23  H31 UNL     1      14.808 -13.696  10.690  1.00  0.00     0.157 HD
ENDBRANCH  16  19
ENDBRANCH   7  13
BRANCH   1  24
HETATM   24  C2  UNL     1      15.990 -13.949  20.801  1.00  0.00     0.001 C 
HETATM   25  C1  UNL     1      16.697 -15.261  20.986  1.00  0.00     0.011 C 
HETATM   26  C3  UNL     1      16.437 -13.026  21.902  1.00  0.00     0.011 C 
ENDBRANCH   1  24
BRANCH   6  27
HETATM   27  C8  UNL     1      13.528 -12.750  19.277  1.00  0.00     0.164 C 
BRANCH  27  28
HETATM   28  C9  UNL     1      13.070 -11.869  20.378  1.00  0.00    -0.040 A 
HETATM   29  C10 UNL     1      13.036 -10.520  20.325  1.00  0.00     0.010 A 
HETATM   30  C11 UNL     1      12.593  -9.798  21.404  1.00  0.00     0.024 A 
HETATM   31  C12 UNL     1      12.176 -10.431  22.555  1.00  0.00     0.034 A 
HETATM   32 CL1  UNL     1      11.609  -9.536  23.940  1.00  0.00    -0.084 Cl
HETATM   33  C13 UNL     1      12.207 -11.804  22.621  1.00  0.00     0.024 A 
HETATM   34  C14 UNL     1      12.654 -12.510  21.528  1.00  0.00     0.010 A 
ENDBRANCH  27  28
ENDBRANCH   6  27
TORSDOF 5
ENDMDL
