MODEL 3
REMARK VINA RESULT: -8.351505320      2.305      2.922
REMARK  5 active torsions:
REMARK  status: ('A' for Active; 'I' for Inactive)
REMARK    1  A    between atoms: C2_2  and  C4_4 
REMARK    2  A    between atoms: N1_9  and  C8_10 
REMARK    3  A    between atoms: C8_10  and  C9_11 
REMARK    4  A    between atoms: C15_18  and  C16_19 
REMARK    5  A    between atoms: C19_22  and  C20_23 
ROOT
HETATM    1  C4  UNL     1      16.380 -13.461  19.762  1.00  0.00     0.098 C 
HETATM    2  C5  UNL     1      17.507 -12.437  19.694  1.00  0.00     0.058 A 
HETATM    3  C6  UNL     1      17.052 -11.420  18.708  1.00  0.00     0.124 A 
HETATM    4  C7  UNL     1      15.654 -11.742  18.431  1.00  0.00     0.227 C 
HETATM    5  O1  UNL     1      14.938 -11.223  17.543  1.00  0.00    -0.273 OA
HETATM    6  N1  UNL     1      15.192 -12.768  19.346  1.00  0.00    -0.342 N 
HETATM    7  C15 UNL     1      17.946 -11.490  17.506  1.00  0.00     0.270 A 
HETATM    8  N4  UNL     1      18.977 -12.458  17.804  1.00  0.00     0.103 N 
HETATM    9  C23 UNL     1      20.274 -11.868  17.701  1.00  0.00     0.274 C 
HETATM   10  C24 UNL     1      21.086 -12.355  18.856  1.00  0.00     0.032 C 
HETATM   11  C25 UNL     1      20.013 -12.581  19.902  1.00  0.00     0.038 C 
HETATM   12  C26 UNL     1      18.769 -12.983  19.106  1.00  0.00     0.231 A 
ENDROOT
BRANCH   7  13
HETATM   13  C16 UNL     1      17.231 -11.784  16.256  1.00  0.00    -0.024 A 
HETATM   14  C17 UNL     1      16.877 -13.074  15.944  1.00  0.00     0.010 A 
HETATM   15  C18 UNL     1      16.206 -13.297  14.761  1.00  0.00     0.015 A 
HETATM   16  C19 UNL     1      15.887 -12.260  13.898  1.00  0.00     0.004 A 
HETATM   17  C21 UNL     1      16.248 -10.945  14.218  1.00  0.00     0.015 A 
HETATM   18  C22 UNL     1      16.916 -10.752  15.403  1.00  0.00     0.010 A 
BRANCH  16  19
HETATM   19  C20 UNL     1      15.183 -12.469  12.651  1.00  0.00     0.120 C 
HETATM   20  N2  UNL     1      14.292 -11.471  12.182  1.00  0.00    -0.082 NA
HETATM   21  N3  UNL     1      15.341 -13.520  11.966  1.00  0.00    -0.387 N 
ATOM     22  H32 UNL     1      15.983 -14.237  12.303  1.00  0.00     0.157 HD
ATOM     23  H31 UNL     1      14.845 -13.666  11.086  1.00  0.00     0.157 HD
ENDBRANCH  16  19
ENDBRANCH   7  13
BRANCH   1  24
HETATM   24  C2  UNL     1      16.317 -14.102  21.109  1.00  0.00     0.001 C 
HETATM   25  C1  UNL     1      16.805 -15.520  21.177  1.00  0.00     0.011 C 
HETATM   26  C3  UNL     1      17.030 -13.319  22.179  1.00  0.00     0.011 C 
ENDBRANCH   1  24
BRANCH   6  27
HETATM   27  C8  UNL     1      13.795 -12.925  19.668  1.00  0.00     0.164 C 
BRANCH  27  28
HETATM   28  C9  UNL     1      13.269 -14.289  19.423  1.00  0.00    -0.040 A 
HETATM   29  C10 UNL     1      13.224 -14.895  18.216  1.00  0.00     0.010 A 
HETATM   30  C11 UNL     1      12.717 -16.163  18.100  1.00  0.00     0.024 A 
HETATM   31  C12 UNL     1      12.246 -16.841  19.204  1.00  0.00     0.034 A 
HETATM   32 CL1  UNL     1      11.596 -18.455  19.082  1.00  0.00    -0.084 Cl
HETATM   33  C13 UNL     1      12.287 -16.234  20.438  1.00  0.00     0.024 A 
HETATM   34  C14 UNL     1      12.800 -14.961  20.533  1.00  0.00     0.010 A 
ENDBRANCH  27  28
ENDBRANCH   6  27
TORSDOF 5
ENDMDL
