MODEL 5
REMARK VINA RESULT: -8.819505772      2.903      7.792
REMARK  6 active torsions:
REMARK  status: ('A' for Active; 'I' for Inactive)
REMARK    1  A    between atoms: O1_2  and  C2_3 
REMARK    2  A    between atoms: C5_6  and  C6_7 
REMARK    3  A    between atoms: C6_7  and  N1_8 
REMARK    4  A    between atoms: C14_18  and  C15_19 
REMARK    5  A    between atoms: C18_22  and  C19_23 
REMARK    6  A    between atoms: C22_30  and  C23_31 
ROOT
HETATM    1  N1  UNL     1      16.417 -12.409  20.259  1.00  0.00    -0.342 N 
HETATM    2  C7  UNL     1      17.569 -12.621  21.128  1.00  0.00     0.227 C 
HETATM    3  O2  UNL     1      18.647 -12.055  20.825  1.00  0.00    -0.273 OA
HETATM    4  C8  UNL     1      17.142 -13.501  22.204  1.00  0.00     0.124 C 
HETATM    5  C9  UNL     1      16.227 -14.461  21.393  1.00  0.00     0.058 C 
HETATM    6  C10 UNL     1      17.272 -15.333  20.727  1.00  0.00     0.231 C 
HETATM    7  C11 UNL     1      17.032 -16.799  21.006  1.00  0.00     0.038 C 
HETATM    8  C12 UNL     1      18.268 -17.288  21.757  1.00  0.00     0.032 C 
HETATM    9  C13 UNL     1      19.284 -16.252  21.397  1.00  0.00     0.274 C 
HETATM   10  N2  UNL     1      18.563 -15.032  21.354  1.00  0.00     0.103 N 
HETATM   11  C14 UNL     1      18.155 -14.566  22.620  1.00  0.00     0.270 C 
HETATM   12  C22 UNL     1      15.572 -13.544  20.397  1.00  0.00     0.098 C 
ENDROOT
BRANCH  11  13
HETATM   13  C15 UNL     1      19.093 -14.193  23.641  1.00  0.00    -0.024 A 
HETATM   14  C16 UNL     1      18.997 -14.738  24.923  1.00  0.00     0.010 A 
HETATM   15  C17 UNL     1      19.856 -14.434  25.943  1.00  0.00     0.015 A 
HETATM   16  C18 UNL     1      20.885 -13.557  25.763  1.00  0.00     0.004 A 
HETATM   17  C20 UNL     1      21.015 -12.989  24.500  1.00  0.00     0.015 A 
HETATM   18  C21 UNL     1      20.133 -13.308  23.471  1.00  0.00     0.010 A 
BRANCH  16  19
HETATM   19  C19 UNL     1      21.778 -13.249  26.853  1.00  0.00     0.120 C 
HETATM   20  N3  UNL     1      22.927 -14.051  27.042  1.00  0.00    -0.082 NA
HETATM   21  N4  UNL     1      21.590 -12.288  27.660  1.00  0.00    -0.387 N 
ATOM     22  H42 UNL     1      20.760 -11.709  27.524  1.00  0.00     0.157 HD
ATOM     23  H41 UNL     1      22.221 -12.070  28.430  1.00  0.00     0.157 HD
ENDBRANCH  16  19
ENDBRANCH  11  13
BRANCH   1  24
HETATM   24  C6  UNL     1      16.229 -11.245  19.413  1.00  0.00     0.164 C 
BRANCH  24  25
HETATM   25  C5  UNL     1      16.441 -11.550  17.964  1.00  0.00    -0.040 A 
HETATM   26  C4  UNL     1      15.394 -11.640  17.080  1.00  0.00     0.011 A 
HETATM   27  C3  UNL     1      15.563 -11.911  15.733  1.00  0.00     0.037 A 
HETATM   28  C2  UNL     1      16.835 -12.107  15.225  1.00  0.00     0.068 A 
HETATM   29  C27 UNL     1      17.910 -12.023  16.088  1.00  0.00     0.037 A 
HETATM   30  C26 UNL     1      17.716 -11.750  17.434  1.00  0.00     0.011 A 
BRANCH  28  31
HETATM   31  O1  UNL     1      16.975 -12.378  13.868  1.00  0.00    -0.356 OA
HETATM   32  C1  UNL     1      18.027 -13.174  13.421  1.00  0.00     0.210 C 
ENDBRANCH  28  31
ENDBRANCH  24  25
ENDBRANCH   1  24
BRANCH  12  33
HETATM   33  C23 UNL     1      14.164 -13.335  20.814  1.00  0.00     0.001 C 
HETATM   34  C24 UNL     1      13.626 -14.229  21.882  1.00  0.00     0.011 C 
HETATM   35  C25 UNL     1      13.206 -13.267  19.622  1.00  0.00     0.011 C 
ENDBRANCH  12  33
TORSDOF 6
ENDMDL
