MODEL 7
REMARK VINA RESULT: -8.386410867      3.302      8.233
REMARK  6 active torsions:
REMARK  status: ('A' for Active; 'I' for Inactive)
REMARK    1  A    between atoms: O1_2  and  C2_3 
REMARK    2  A    between atoms: C5_6  and  C6_7 
REMARK    3  A    between atoms: C6_7  and  N1_8 
REMARK    4  A    between atoms: C14_18  and  C15_19 
REMARK    5  A    between atoms: C18_22  and  C19_23 
REMARK    6  A    between atoms: C22_30  and  C23_31 
ROOT
HETATM    1  N1  UNL     1      18.197 -12.239  18.331  1.00  0.00    -0.342 N 
HETATM    2  C7  UNL     1      19.096 -12.674  19.394  1.00  0.00     0.227 C 
HETATM    3  O2  UNL     1      20.264 -13.006  19.078  1.00  0.00    -0.273 OA
HETATM    4  C8  UNL     1      18.353 -12.607  20.643  1.00  0.00     0.124 C 
HETATM    5  C9  UNL     1      16.973 -13.115  20.138  1.00  0.00     0.058 C 
HETATM    6  C10 UNL     1      17.244 -14.604  20.062  1.00  0.00     0.231 C 
HETATM    7  C11 UNL     1      16.230 -15.395  20.857  1.00  0.00     0.038 C 
HETATM    8  C12 UNL     1      17.024 -16.124  21.938  1.00  0.00     0.032 C 
HETATM    9  C13 UNL     1      18.408 -16.111  21.373  1.00  0.00     0.274 C 
HETATM   10  N2  UNL     1      18.527 -14.853  20.726  1.00  0.00     0.103 N 
HETATM   11  C14 UNL     1      18.598 -13.760  21.614  1.00  0.00     0.270 C 
HETATM   12  C22 UNL     1      16.871 -12.512  18.764  1.00  0.00     0.098 C 
ENDROOT
BRANCH  11  13
HETATM   13  C15 UNL     1      19.678 -13.594  22.544  1.00  0.00    -0.024 A 
HETATM   14  C16 UNL     1      19.448 -13.685  23.918  1.00  0.00     0.010 A 
HETATM   15  C17 UNL     1      20.427 -13.543  24.863  1.00  0.00     0.015 A 
HETATM   16  C18 UNL     1      21.721 -13.299  24.508  1.00  0.00     0.004 A 
HETATM   17  C20 UNL     1      21.995 -13.199  23.147  1.00  0.00     0.015 A 
HETATM   18  C21 UNL     1      20.988 -13.346  22.197  1.00  0.00     0.010 A 
BRANCH  16  19
HETATM   19  C19 UNL     1      22.738 -13.150  25.520  1.00  0.00     0.120 C 
HETATM   20  N3  UNL     1      24.093 -13.075  25.122  1.00  0.00    -0.082 NA
HETATM   21  N4  UNL     1      22.483 -13.080  26.761  1.00  0.00    -0.387 N 
ATOM     22  H42 UNL     1      21.506 -13.135  27.049  1.00  0.00     0.157 HD
ATOM     23  H41 UNL     1      23.202 -12.976  27.477  1.00  0.00     0.157 HD
ENDBRANCH  16  19
ENDBRANCH  11  13
BRANCH   1  24
HETATM   24  C6  UNL     1      18.631 -11.660  17.073  1.00  0.00     0.164 C 
BRANCH  24  25
HETATM   25  C5  UNL     1      17.618 -11.830  15.985  1.00  0.00    -0.040 A 
HETATM   26  C4  UNL     1      17.059 -10.755  15.340  1.00  0.00     0.011 A 
HETATM   27  C3  UNL     1      16.128 -10.883  14.324  1.00  0.00     0.037 A 
HETATM   28  C2  UNL     1      15.722 -12.143  13.919  1.00  0.00     0.068 A 
HETATM   29  C27 UNL     1      16.266 -13.246  14.547  1.00  0.00     0.037 A 
HETATM   30  C26 UNL     1      17.198 -13.091  15.563  1.00  0.00     0.011 A 
BRANCH  28  31
HETATM   31  O1  UNL     1      14.785 -12.242  12.896  1.00  0.00    -0.356 OA
HETATM   32  C1  UNL     1      14.150 -11.099  12.418  1.00  0.00     0.210 C 
ENDBRANCH  28  31
ENDBRANCH  24  25
ENDBRANCH   1  24
BRANCH  12  33
HETATM   33  C23 UNL     1      15.896 -11.396  18.818  1.00  0.00     0.001 C 
HETATM   34  C24 UNL     1      15.531 -10.869  20.167  1.00  0.00     0.011 C 
HETATM   35  C25 UNL     1      14.645 -11.671  17.980  1.00  0.00     0.011 C 
ENDBRANCH  12  33
TORSDOF 6
ENDMDL
