MODEL 1
REMARK VINA RESULT: -10.500610963      0.000      0.000
REMARK  6 active torsions:
REMARK  status: ('A' for Active; 'I' for Inactive)
REMARK    1  A    between atoms: O1_2  and  C2_3 
REMARK    2  A    between atoms: C5_6  and  C6_7 
REMARK    3  A    between atoms: C6_7  and  N1_8 
REMARK    4  A    between atoms: C14_18  and  C15_19 
REMARK    5  A    between atoms: C18_22  and  C19_23 
REMARK    6  A    between atoms: C22_30  and  C23_31 
ROOT
HETATM    1  N1  UNL     1      18.764 -14.155  20.837  1.00  0.00    -0.342 N 
HETATM    2  C7  UNL     1      17.424 -13.705  21.199  1.00  0.00     0.227 C 
HETATM    3  O2  UNL     1      16.717 -14.467  21.901  1.00  0.00    -0.273 OA
HETATM    4  C8  UNL     1      17.236 -12.389  20.608  1.00  0.00     0.124 C 
HETATM    5  C9  UNL     1      17.953 -12.623  19.248  1.00  0.00     0.058 C 
HETATM    6  C10 UNL     1      16.886 -13.406  18.511  1.00  0.00     0.231 C 
HETATM    7  C11 UNL     1      16.538 -12.764  17.188  1.00  0.00     0.038 C 
HETATM    8  C12 UNL     1      15.060 -12.393  17.280  1.00  0.00     0.032 C 
HETATM    9  C13 UNL     1      14.581 -13.285  18.381  1.00  0.00     0.274 C 
HETATM   10  N2  UNL     1      15.656 -13.333  19.306  1.00  0.00     0.103 N 
HETATM   11  C14 UNL     1      15.853 -12.130  20.013  1.00  0.00     0.270 C 
HETATM   12  C22 UNL     1      19.112 -13.505  19.623  1.00  0.00     0.098 C 
ENDROOT
BRANCH  11  13
HETATM   13  C15 UNL     1      14.865 -11.591  20.904  1.00  0.00    -0.024 A 
HETATM   14  C16 UNL     1      13.921 -12.428  21.503  1.00  0.00     0.010 A 
HETATM   15  C17 UNL     1      12.955 -11.987  22.364  1.00  0.00     0.015 A 
HETATM   16  C18 UNL     1      12.853 -10.669  22.699  1.00  0.00     0.004 A 
HETATM   17  C20 UNL     1      13.774  -9.799  22.122  1.00  0.00     0.015 A 
HETATM   18  C21 UNL     1      14.752 -10.262  21.247  1.00  0.00     0.010 A 
BRANCH  16  19
HETATM   19  C19 UNL     1      11.825 -10.225  23.607  1.00  0.00     0.120 C 
HETATM   20  N3  UNL     1      11.899  -8.915  24.137  1.00  0.00    -0.082 NA
HETATM   21  N4  UNL     1      10.846 -10.950  23.962  1.00  0.00    -0.387 N 
ATOM     22  H42 UNL     1      10.792 -11.894  23.581  1.00  0.00     0.157 HD
ATOM     23  H41 UNL     1      10.119 -10.636  24.605  1.00  0.00     0.157 HD
ENDBRANCH  16  19
ENDBRANCH  11  13
BRANCH   1  24
HETATM   24  C6  UNL     1      19.544 -15.109  21.603  1.00  0.00     0.164 C 
BRANCH  24  25
HETATM   25  C5  UNL     1      20.229 -14.479  22.774  1.00  0.00    -0.040 A 
HETATM   26  C4  UNL     1      19.597 -14.312  23.982  1.00  0.00     0.011 A 
HETATM   27  C3  UNL     1      20.209 -13.742  25.084  1.00  0.00     0.037 A 
HETATM   28  C2  UNL     1      21.521 -13.310  24.995  1.00  0.00     0.068 A 
HETATM   29  C27 UNL     1      22.186 -13.464  23.794  1.00  0.00     0.037 A 
HETATM   30  C26 UNL     1      21.550 -14.038  22.704  1.00  0.00     0.011 A 
BRANCH  28  31
HETATM   31  O1  UNL     1      22.111 -12.741  26.118  1.00  0.00    -0.356 OA
HETATM   32  C1  UNL     1      21.473 -12.813  27.354  1.00  0.00     0.210 C 
ENDBRANCH  28  31
ENDBRANCH  24  25
ENDBRANCH   1  24
BRANCH  12  33
HETATM   33  C23 UNL     1      20.349 -12.687  19.582  1.00  0.00     0.001 C 
HETATM   34  C24 UNL     1      20.439 -11.534  20.526  1.00  0.00     0.011 C 
HETATM   35  C25 UNL     1      20.722 -12.262  18.160  1.00  0.00     0.011 C 
ENDBRANCH  12  33
TORSDOF 6
ENDMDL
