MODEL 2
REMARK VINA RESULT: -9.226451949      1.211      1.694
REMARK  6 active torsions:
REMARK  status: ('A' for Active; 'I' for Inactive)
REMARK    1  A    between atoms: O1_2  and  C2_3 
REMARK    2  A    between atoms: C5_6  and  C6_7 
REMARK    3  A    between atoms: C6_7  and  N1_8 
REMARK    4  A    between atoms: C14_18  and  C15_19 
REMARK    5  A    between atoms: C18_22  and  C19_23 
REMARK    6  A    between atoms: C22_30  and  C23_31 
ROOT
HETATM    1  N1  UNL     1      18.453 -14.232  20.450  1.00  0.00    -0.342 N 
HETATM    2  C7  UNL     1      17.115 -13.803  20.839  1.00  0.00     0.227 C 
HETATM    3  O2  UNL     1      16.326 -14.669  21.289  1.00  0.00    -0.273 OA
HETATM    4  C8  UNL     1      17.030 -12.373  20.588  1.00  0.00     0.124 C 
HETATM    5  C9  UNL     1      17.825 -12.308  19.254  1.00  0.00     0.058 C 
HETATM    6  C10 UNL     1      16.775 -12.817  18.287  1.00  0.00     0.231 C 
HETATM    7  C11 UNL     1      16.548 -11.847  17.151  1.00  0.00     0.038 C 
HETATM    8  C12 UNL     1      15.087 -11.418  17.253  1.00  0.00     0.032 C 
HETATM    9  C13 UNL     1      14.493 -12.522  18.068  1.00  0.00     0.274 C 
HETATM   10  N2  UNL     1      15.499 -12.865  19.008  1.00  0.00     0.103 N 
HETATM   11  C14 UNL     1      15.704 -11.889  20.003  1.00  0.00     0.270 C 
HETATM   12  C22 UNL     1      18.913 -13.325  19.457  1.00  0.00     0.098 C 
ENDROOT
BRANCH  11  13
HETATM   13  C15 UNL     1      14.685 -11.525  20.946  1.00  0.00    -0.024 A 
HETATM   14  C16 UNL     1      14.591 -10.213  21.416  1.00  0.00     0.010 A 
HETATM   15  C17 UNL     1      13.645  -9.793  22.309  1.00  0.00     0.015 A 
HETATM   16  C18 UNL     1      12.711 -10.653  22.807  1.00  0.00     0.004 A 
HETATM   17  C20 UNL     1      12.769 -11.971  22.366  1.00  0.00     0.015 A 
HETATM   18  C21 UNL     1      13.738 -12.385  21.456  1.00  0.00     0.010 A 
BRANCH  16  19
HETATM   19  C19 UNL     1      11.723 -10.189  23.749  1.00  0.00     0.120 C 
HETATM   20  N3  UNL     1      11.726  -8.826  24.127  1.00  0.00    -0.082 NA
HETATM   21  N4  UNL     1      10.841 -10.942  24.265  1.00  0.00    -0.387 N 
ATOM     22  H42 UNL     1      10.839 -11.925  23.993  1.00  0.00     0.157 HD
ATOM     23  H41 UNL     1      10.143 -10.614  24.931  1.00  0.00     0.157 HD
ENDBRANCH  16  19
ENDBRANCH  11  13
BRANCH   1  24
HETATM   24  C6  UNL     1      19.134 -15.393  20.993  1.00  0.00     0.164 C 
BRANCH  24  25
HETATM   25  C5  UNL     1      19.229 -15.355  22.485  1.00  0.00    -0.040 A 
HETATM   26  C4  UNL     1      18.725 -16.362  23.271  1.00  0.00     0.011 A 
HETATM   27  C3  UNL     1      18.807 -16.357  24.653  1.00  0.00     0.037 A 
HETATM   28  C2  UNL     1      19.421 -15.299  25.300  1.00  0.00     0.068 A 
HETATM   29  C27 UNL     1      19.940 -14.270  24.539  1.00  0.00     0.037 A 
HETATM   30  C26 UNL     1      19.844 -14.298  23.156  1.00  0.00     0.011 A 
BRANCH  28  31
HETATM   31  O1  UNL     1      19.490 -15.320  26.689  1.00  0.00    -0.356 OA
HETATM   32  C1  UNL     1      19.098 -16.457  27.390  1.00  0.00     0.210 C 
ENDBRANCH  28  31
ENDBRANCH  24  25
ENDBRANCH   1  24
BRANCH  12  33
HETATM   33  C23 UNL     1      20.187 -12.603  19.689  1.00  0.00     0.001 C 
HETATM   34  C24 UNL     1      20.171 -11.486  20.681  1.00  0.00     0.011 C 
HETATM   35  C25 UNL     1      20.858 -12.167  18.384  1.00  0.00     0.011 C 
ENDBRANCH  12  33
TORSDOF 6
ENDMDL
