MODEL 8
REMARK VINA RESULT: -8.328513126      2.854      7.536
REMARK  6 active torsions:
REMARK  status: ('A' for Active; 'I' for Inactive)
REMARK    1  A    between atoms: O1_2  and  C2_3 
REMARK    2  A    between atoms: C5_6  and  C6_7 
REMARK    3  A    between atoms: C6_7  and  N1_8 
REMARK    4  A    between atoms: C14_18  and  C15_19 
REMARK    5  A    between atoms: C18_22  and  C19_23 
REMARK    6  A    between atoms: C22_30  and  C23_31 
ROOT
HETATM    1  N1  UNL     1      16.064 -13.959  20.695  1.00  0.00    -0.342 N 
HETATM    2  C7  UNL     1      17.269 -13.784  21.499  1.00  0.00     0.227 C 
HETATM    3  O2  UNL     1      18.050 -12.852  21.192  1.00  0.00    -0.273 OA
HETATM    4  C8  UNL     1      17.255 -14.812  22.527  1.00  0.00     0.124 C 
HETATM    5  C9  UNL     1      16.694 -15.995  21.689  1.00  0.00     0.058 C 
HETATM    6  C10 UNL     1      17.938 -16.396  20.921  1.00  0.00     0.231 C 
HETATM    7  C11 UNL     1      18.258 -17.861  21.105  1.00  0.00     0.038 C 
HETATM    8  C12 UNL     1      19.632 -17.908  21.768  1.00  0.00     0.032 C 
HETATM    9  C13 UNL     1      20.185 -16.557  21.441  1.00  0.00     0.274 C 
HETATM   10  N2  UNL     1      19.072 -15.680  21.514  1.00  0.00     0.103 N 
HETATM   11  C14 UNL     1      18.606 -15.458  22.826  1.00  0.00     0.270 C 
HETATM   12  C22 UNL     1      15.693 -15.328  20.788  1.00  0.00     0.098 C 
ENDROOT
BRANCH  11  13
HETATM   13  C15 UNL     1      19.411 -14.823  23.830  1.00  0.00    -0.024 A 
HETATM   14  C16 UNL     1      19.470 -15.347  25.124  1.00  0.00     0.010 A 
HETATM   15  C17 UNL     1      20.218 -14.800  26.130  1.00  0.00     0.015 A 
HETATM   16  C18 UNL     1      20.970 -13.681  25.924  1.00  0.00     0.004 A 
HETATM   17  C20 UNL     1      20.938 -13.126  24.648  1.00  0.00     0.015 A 
HETATM   18  C21 UNL     1      20.173 -13.693  23.634  1.00  0.00     0.010 A 
BRANCH  16  19
HETATM   19  C19 UNL     1      21.750 -13.119  26.999  1.00  0.00     0.120 C 
HETATM   20  N3  UNL     1      22.886 -13.825  27.461  1.00  0.00    -0.082 NA
HETATM   21  N4  UNL     1      21.472 -12.016  27.561  1.00  0.00    -0.387 N 
ATOM     22  H42 UNL     1      20.653 -11.507  27.229  1.00  0.00     0.157 HD
ATOM     23  H41 UNL     1      22.023 -11.619  28.321  1.00  0.00     0.157 HD
ENDBRANCH  16  19
ENDBRANCH  11  13
BRANCH   1  24
HETATM   24  C6  UNL     1      15.418 -12.901  19.942  1.00  0.00     0.164 C 
BRANCH  24  25
HETATM   25  C5  UNL     1      14.657 -11.957  20.819  1.00  0.00    -0.040 A 
HETATM   26  C4  UNL     1      13.562 -12.361  21.543  1.00  0.00     0.011 A 
HETATM   27  C3  UNL     1      12.846 -11.512  22.369  1.00  0.00     0.037 A 
HETATM   28  C2  UNL     1      13.228 -10.187  22.490  1.00  0.00     0.068 A 
HETATM   29  C27 UNL     1      14.325  -9.749  21.775  1.00  0.00     0.037 A 
HETATM   30  C26 UNL     1      15.026 -10.619  20.953  1.00  0.00     0.011 A 
BRANCH  28  31
HETATM   31  O1  UNL     1      12.491  -9.356  23.326  1.00  0.00    -0.356 OA
HETATM   32  C1  UNL     1      11.619  -9.906  24.264  1.00  0.00     0.210 C 
ENDBRANCH  28  31
ENDBRANCH  24  25
ENDBRANCH   1  24
BRANCH  12  33
HETATM   33  C23 UNL     1      14.333 -15.664  21.276  1.00  0.00     0.001 C 
HETATM   34  C24 UNL     1      14.209 -16.809  22.227  1.00  0.00     0.011 C 
HETATM   35  C25 UNL     1      13.317 -15.786  20.137  1.00  0.00     0.011 C 
ENDBRANCH  12  33
TORSDOF 6
ENDMDL
