MODEL 2
REMARK VINA RESULT: -7.784830526      2.967      6.418
REMARK  2 active torsions:
REMARK  status: ('A' for Active; 'I' for Inactive)
REMARK    1  A    between atoms: C12_15  and  O4_16 
REMARK    2  A    between atoms: C14_19  and  O5_20 
ROOT
HETATM    1  O1  UNL     1     -21.993  33.924  -7.410  1.00  0.00    -0.298 OA
HETATM    2  C1  UNL     1     -21.788  33.438  -6.317  1.00  0.00     0.131 C 
HETATM    3  C2  UNL     1     -20.769  32.364  -6.208  1.00  0.00     0.078 C 
HETATM    4  C3  UNL     1     -19.828  32.798  -5.116  1.00  0.00     0.008 C 
HETATM    5  C4  UNL     1     -18.364  32.581  -5.438  1.00  0.00     0.004 C 
HETATM    6  C5  UNL     1     -17.618  33.376  -4.347  1.00  0.00     0.027 C 
HETATM    7  C6  UNL     1     -17.631  32.534  -3.130  1.00  0.00    -0.031 C 
HETATM    8  C7  UNL     1     -18.401  32.684  -2.081  1.00  0.00    -0.029 C 
HETATM    9  C8  UNL     1     -19.429  33.713  -1.854  1.00  0.00     0.053 C 
HETATM   10  C9  UNL     1     -20.799  33.097  -1.590  1.00  0.00     0.183 C 
HETATM   11  O2  UNL     1     -21.774  34.026  -2.007  1.00  0.00    -0.317 OA
HETATM   12  C10 UNL     1     -23.120  33.787  -2.201  1.00  0.00     0.296 C 
HETATM   13  O3  UNL     1     -23.943  34.377  -1.393  1.00  0.00    -0.259 OA
HETATM   14  C11 UNL     1     -23.752  32.960  -3.193  1.00  0.00     0.081 A 
HETATM   15  C12 UNL     1     -24.728  32.072  -2.717  1.00  0.00     0.085 A 
HETATM   16  C13 UNL     1     -25.427  31.212  -3.534  1.00  0.00     0.076 A 
HETATM   17  C14 UNL     1     -25.147  31.233  -4.878  1.00  0.00     0.090 A 
HETATM   18  C15 UNL     1     -24.182  32.104  -5.395  1.00  0.00     0.075 A 
HETATM   19 CL1  UNL     1     -23.959  32.015  -7.124  1.00  0.00    -0.081 Cl
HETATM   20  C16 UNL     1     -23.496  32.957  -4.557  1.00  0.00    -0.008 A 
HETATM   21  C17 UNL     1     -22.508  33.889  -5.145  1.00  0.00     0.119 C 
ENDROOT
BRANCH  15  22
HETATM   22  O4  UNL     1     -25.068  32.000  -1.359  1.00  0.00    -0.360 OA
ATOM     23  H4  UNL     1     -25.943  31.766  -1.071  1.00  0.00     0.217 HD
ENDBRANCH  15  22
BRANCH  17  24
HETATM   24  O5  UNL     1     -25.846  30.369  -5.705  1.00  0.00    -0.359 OA
ATOM     25  H5  UNL     1     -25.511  30.217  -6.582  1.00  0.00     0.217 HD
ENDBRANCH  17  24
TORSDOF 2
ENDMDL
