MODEL 3
REMARK VINA RESULT: -7.715752696      2.542      4.881
REMARK  2 active torsions:
REMARK  status: ('A' for Active; 'I' for Inactive)
REMARK    1  A    between atoms: C12_15  and  O4_16 
REMARK    2  A    between atoms: C14_19  and  O5_20 
ROOT
HETATM    1  O1  UNL     1     -23.555  33.929  -7.898  1.00  0.00    -0.298 OA
HETATM    2  C1  UNL     1     -22.940  34.190  -6.886  1.00  0.00     0.131 C 
HETATM    3  C2  UNL     1     -23.364  35.371  -6.093  1.00  0.00     0.078 C 
HETATM    4  C3  UNL     1     -23.559  34.874  -4.686  1.00  0.00     0.008 C 
HETATM    5  C4  UNL     1     -24.807  35.402  -4.009  1.00  0.00     0.004 C 
HETATM    6  C5  UNL     1     -24.952  34.525  -2.749  1.00  0.00     0.027 C 
HETATM    7  C6  UNL     1     -24.000  35.064  -1.751  1.00  0.00    -0.031 C 
HETATM    8  C7  UNL     1     -22.837  34.558  -1.423  1.00  0.00    -0.029 C 
HETATM    9  C8  UNL     1     -22.197  33.344  -1.958  1.00  0.00     0.053 C 
HETATM   10  C9  UNL     1     -20.829  33.644  -2.563  1.00  0.00     0.183 C 
HETATM   11  O2  UNL     1     -20.581  32.678  -3.558  1.00  0.00    -0.317 OA
HETATM   12  C10 UNL     1     -19.602  32.722  -4.532  1.00  0.00     0.296 C 
HETATM   13  O3  UNL     1     -18.659  31.837  -4.456  1.00  0.00    -0.259 OA
HETATM   14  C11 UNL     1     -19.478  33.626  -5.642  1.00  0.00     0.081 A 
HETATM   15  C12 UNL     1     -18.214  34.209  -5.819  1.00  0.00     0.085 A 
HETATM   16  C13 UNL     1     -17.928  35.095  -6.831  1.00  0.00     0.076 A 
HETATM   17  C14 UNL     1     -18.936  35.419  -7.706  1.00  0.00     0.090 A 
HETATM   18  C15 UNL     1     -20.211  34.860  -7.568  1.00  0.00     0.075 A 
HETATM   19 CL1  UNL     1     -21.371  35.364  -8.770  1.00  0.00    -0.081 Cl
HETATM   20  C16 UNL     1     -20.473  33.973  -6.545  1.00  0.00    -0.008 A 
HETATM   21  C17 UNL     1     -21.823  33.376  -6.452  1.00  0.00     0.119 C 
ENDROOT
BRANCH  15  22
HETATM   22  O4  UNL     1     -17.138  33.921  -4.967  1.00  0.00    -0.360 OA
ATOM     23  H4  UNL     1     -16.254  34.212  -5.158  1.00  0.00     0.217 HD
ENDBRANCH  15  22
BRANCH  17  24
HETATM   24  O5  UNL     1     -18.654  36.312  -8.728  1.00  0.00    -0.359 OA
ATOM     25  H5  UNL     1     -18.991  37.198  -8.655  1.00  0.00     0.217 HD
ENDBRANCH  17  24
TORSDOF 2
ENDMDL
