MODEL 1
REMARK VINA RESULT: -8.003276160      0.000      0.000
REMARK  2 active torsions:
REMARK  status: ('A' for Active; 'I' for Inactive)
REMARK    1  A    between atoms: C12_15  and  O4_16 
REMARK    2  A    between atoms: C14_19  and  O5_20 
ROOT
HETATM    1  O1  UNL     1     -22.317  35.648  -2.570  1.00  0.00    -0.298 OA
HETATM    2  C1  UNL     1     -21.928  35.015  -3.530  1.00  0.00     0.131 C 
HETATM    3  C2  UNL     1     -22.865  34.051  -4.159  1.00  0.00     0.078 C 
HETATM    4  C3  UNL     1     -22.892  34.399  -5.624  1.00  0.00     0.008 C 
HETATM    5  C4  UNL     1     -24.277  34.393  -6.237  1.00  0.00     0.004 C 
HETATM    6  C5  UNL     1     -24.085  35.074  -7.607  1.00  0.00     0.027 C 
HETATM    7  C6  UNL     1     -23.516  34.049  -8.510  1.00  0.00    -0.031 C 
HETATM    8  C7  UNL     1     -22.266  33.945  -8.890  1.00  0.00    -0.029 C 
HETATM    9  C8  UNL     1     -21.134  34.810  -8.518  1.00  0.00     0.053 C 
HETATM   10  C9  UNL     1     -20.008  34.018  -7.861  1.00  0.00     0.183 C 
HETATM   11  O2  UNL     1     -19.313  34.894  -7.004  1.00  0.00    -0.317 OA
HETATM   12  C10 UNL     1     -18.405  34.549  -6.021  1.00  0.00     0.296 C 
HETATM   13  O3  UNL     1     -17.175  34.910  -6.206  1.00  0.00    -0.259 OA
HETATM   14  C11 UNL     1     -18.636  33.832  -4.797  1.00  0.00     0.081 A 
HETATM   15  C12 UNL     1     -17.747  32.780  -4.526  1.00  0.00     0.085 A 
HETATM   16  C13 UNL     1     -17.829  31.996  -3.399  1.00  0.00     0.076 A 
HETATM   17  C14 UNL     1     -18.832  32.264  -2.501  1.00  0.00     0.090 A 
HETATM   18  C15 UNL     1     -19.739  33.305  -2.730  1.00  0.00     0.075 A 
HETATM   19 CL1  UNL     1     -20.942  33.522  -1.484  1.00  0.00    -0.081 Cl
HETATM   20  C16 UNL     1     -19.636  34.078  -3.867  1.00  0.00    -0.008 A 
HETATM   21  C17 UNL     1     -20.591  35.191  -4.057  1.00  0.00     0.119 C 
ENDROOT
BRANCH  15  22
HETATM   22  O4  UNL     1     -16.698  32.453  -5.396  1.00  0.00    -0.360 OA
ATOM     23  H4  UNL     1     -15.787  32.569  -5.151  1.00  0.00     0.217 HD
ENDBRANCH  15  22
BRANCH  17  24
HETATM   24  O5  UNL     1     -18.920  31.477  -1.363  1.00  0.00    -0.359 OA
ATOM     25  H5  UNL     1     -19.507  31.755  -0.670  1.00  0.00     0.217 HD
ENDBRANCH  17  24
TORSDOF 2
ENDMDL
