MODEL 4
REMARK VINA RESULT: -7.706201306      2.409      5.629
REMARK  2 active torsions:
REMARK  status: ('A' for Active; 'I' for Inactive)
REMARK    1  A    between atoms: C12_15  and  O4_16 
REMARK    2  A    between atoms: C14_19  and  O5_20 
ROOT
HETATM    1  O1  UNL     1     -24.252  32.838  -2.905  1.00  0.00    -0.298 OA
HETATM    2  C1  UNL     1     -23.236  33.210  -3.454  1.00  0.00     0.131 C 
HETATM    3  C2  UNL     1     -22.324  34.110  -2.705  1.00  0.00     0.078 C 
HETATM    4  C3  UNL     1     -20.965  33.465  -2.768  1.00  0.00     0.008 C 
HETATM    5  C4  UNL     1     -20.209  33.481  -1.456  1.00  0.00     0.004 C 
HETATM    6  C5  UNL     1     -19.034  32.510  -1.687  1.00  0.00     0.027 C 
HETATM    7  C6  UNL     1     -18.015  33.257  -2.457  1.00  0.00    -0.031 C 
HETATM    8  C7  UNL     1     -17.768  33.151  -3.740  1.00  0.00    -0.029 C 
HETATM    9  C8  UNL     1     -18.432  32.274  -4.719  1.00  0.00     0.053 C 
HETATM   10  C9  UNL     1     -19.042  33.069  -5.869  1.00  0.00     0.183 C 
HETATM   11  O2  UNL     1     -20.131  32.328  -6.370  1.00  0.00    -0.317 OA
HETATM   12  C10 UNL     1     -21.122  32.779  -7.220  1.00  0.00     0.296 C 
HETATM   13  O3  UNL     1     -21.155  32.264  -8.408  1.00  0.00    -0.259 OA
HETATM   14  C11 UNL     1     -22.144  33.758  -6.969  1.00  0.00     0.081 A 
HETATM   15  C12 UNL     1     -22.299  34.747  -7.952  1.00  0.00     0.085 A 
HETATM   16  C13 UNL     1     -23.229  35.756  -7.866  1.00  0.00     0.076 A 
HETATM   17  C14 UNL     1     -24.042  35.788  -6.759  1.00  0.00     0.090 A 
HETATM   18  C15 UNL     1     -23.924  34.820  -5.756  1.00  0.00     0.075 A 
HETATM   19 CL1  UNL     1     -25.041  34.995  -4.427  1.00  0.00    -0.081 Cl
HETATM   20  C16 UNL     1     -22.983  33.817  -5.865  1.00  0.00    -0.008 A 
HETATM   21  C17 UNL     1     -22.911  32.792  -4.802  1.00  0.00     0.119 C 
ENDROOT
BRANCH  15  22
HETATM   22  O4  UNL     1     -21.507  34.774  -9.109  1.00  0.00    -0.360 OA
ATOM     23  H4  UNL     1     -20.558  34.759  -9.069  1.00  0.00     0.217 HD
ENDBRANCH  15  22
BRANCH  17  24
HETATM   24  O5  UNL     1     -24.982  36.802  -6.666  1.00  0.00    -0.359 OA
ATOM     25  H5  UNL     1     -24.672  37.688  -6.517  1.00  0.00     0.217 HD
ENDBRANCH  17  24
TORSDOF 2
ENDMDL
