MODEL 3
REMARK VINA RESULT: -7.106870904      3.872      5.769
REMARK  6 active torsions:
REMARK  status: ('A' for Active; 'I' for Inactive)
REMARK    1  A    between atoms: C5_6  and  N2_7 
REMARK       I    between atoms: N2_7  and  C6_9 
REMARK       I    between atoms: C6_9  and  N3_10 
REMARK    2  A    between atoms: N3_10  and  C7_12 
REMARK    3  A    between atoms: C7_12  and  C8_13 
REMARK    4  A    between atoms: C7_12  and  C14_19 
REMARK    5  A    between atoms: N4_25  and  C20_27 
REMARK    6  A    between atoms: C20_27  and  C21_28 
ROOT
HETATM    1  N1  UNL     1     -14.257  39.833  26.292  1.00  0.00    -0.191 NA
HETATM    2  C1  UNL     1     -13.397  39.824  25.514  1.00  0.00     0.099 C 
HETATM    3  C2  UNL     1     -12.320  39.809  24.562  1.00  0.00     0.044 A 
HETATM    4  C3  UNL     1     -12.516  39.785  23.208  1.00  0.00     0.025 A 
HETATM    5  C4  UNL     1     -11.421  39.771  22.327  1.00  0.00     0.031 A 
HETATM    6  C5  UNL     1     -10.136  39.781  22.768  1.00  0.00     0.049 A 
HETATM    7  C22 UNL     1      -9.933  39.805  24.159  1.00  0.00     0.031 A 
HETATM    8  C23 UNL     1     -11.018  39.818  25.010  1.00  0.00     0.025 A 
ENDROOT
BRANCH   6   9
HETATM    9  N2  UNL     1      -9.013  39.773  21.940  1.00  0.00    -0.192 N 
HETATM   10  C6  UNL     1      -8.968  40.429  20.693  1.00  0.00     0.675 C 
HETATM   11  N3  UNL     1      -8.458  39.732  19.534  1.00  0.00    -0.214 N 
HETATM   12  N4  UNL     1      -9.296  41.656  20.612  1.00  0.00    -0.216 N 
ATOM     13  H3  UNL     1      -7.919  38.885  19.717  1.00  0.00     0.178 HD
ATOM     14  H4  UNL     1      -9.245  42.068  19.680  1.00  0.00     0.178 HD
ATOM     15  H2  UNL     1      -8.184  39.267  22.253  1.00  0.00     0.184 HD
BRANCH  11  16
HETATM   16  C7  UNL     1      -8.621  40.087  18.183  1.00  0.00     0.166 C 
BRANCH  16  17
HETATM   17  C8  UNL     1      -9.990  39.863  17.680  1.00  0.00    -0.030 A 
HETATM   18  C9  UNL     1     -10.804  38.828  18.052  1.00  0.00     0.009 A 
HETATM   19  C10 UNL     1     -12.075  38.651  17.546  1.00  0.00     0.001 A 
HETATM   20  C11 UNL     1     -12.550  39.549  16.630  1.00  0.00     0.000 A 
HETATM   21  C12 UNL     1     -11.769  40.627  16.209  1.00  0.00     0.001 A 
HETATM   22  C13 UNL     1     -10.520  40.766  16.734  1.00  0.00     0.009 A 
ENDBRANCH  16  17
BRANCH  16  23
HETATM   23  C14 UNL     1      -7.641  39.278  17.348  1.00  0.00    -0.030 A 
HETATM   24  C15 UNL     1      -7.035  39.812  16.229  1.00  0.00     0.009 A 
HETATM   25  C16 UNL     1      -6.146  39.090  15.457  1.00  0.00     0.001 A 
HETATM   26  C17 UNL     1      -5.843  37.803  15.793  1.00  0.00     0.000 A 
HETATM   27  C18 UNL     1      -6.448  37.251  16.919  1.00  0.00     0.001 A 
HETATM   28  C19 UNL     1      -7.332  37.977  17.683  1.00  0.00     0.009 A 
ENDBRANCH  16  23
ENDBRANCH  11  16
BRANCH  12  29
HETATM   29  C20 UNL     1      -9.727  42.534  21.660  1.00  0.00     0.251 C 
BRANCH  29  30
HETATM   30  C21 UNL     1      -9.916  43.934  21.157  1.00  0.00     0.191 C 
HETATM   31  O1  UNL     1      -9.429  44.298  20.079  1.00  0.00    -0.647 OA
HETATM   32  O2  UNL     1     -10.646  44.795  21.932  1.00  0.00    -0.647 OA
ENDBRANCH  29  30
ENDBRANCH  12  29
ENDBRANCH   6   9
TORSDOF 6
ENDMDL
