MODEL 2
REMARK VINA RESULT: -7.131280019      3.108      5.087
REMARK  6 active torsions:
REMARK  status: ('A' for Active; 'I' for Inactive)
REMARK    1  A    between atoms: C5_6  and  N2_7 
REMARK       I    between atoms: N2_7  and  C6_9 
REMARK       I    between atoms: C6_9  and  N3_10 
REMARK    2  A    between atoms: N3_10  and  C7_12 
REMARK    3  A    between atoms: C7_12  and  C8_13 
REMARK    4  A    between atoms: C7_12  and  C14_19 
REMARK    5  A    between atoms: N4_25  and  C20_27 
REMARK    6  A    between atoms: C20_27  and  C21_28 
ROOT
HETATM    1  N1  UNL     1     -16.571  43.711  13.595  1.00  0.00    -0.191 NA
HETATM    2  C1  UNL     1     -15.930  42.974  14.221  1.00  0.00     0.099 C 
HETATM    3  C2  UNL     1     -15.121  42.068  14.989  1.00  0.00     0.044 A 
HETATM    4  C3  UNL     1     -15.614  41.309  16.015  1.00  0.00     0.025 A 
HETATM    5  C4  UNL     1     -14.773  40.441  16.731  1.00  0.00     0.031 A 
HETATM    6  C5  UNL     1     -13.450  40.313  16.445  1.00  0.00     0.049 A 
HETATM    7  C22 UNL     1     -12.942  41.093  15.390  1.00  0.00     0.031 A 
HETATM    8  C23 UNL     1     -13.782  41.940  14.698  1.00  0.00     0.025 A 
ENDROOT
BRANCH   6   9
HETATM    9  N2  UNL     1     -12.571  39.464  17.117  1.00  0.00    -0.192 N 
HETATM   10  C6  UNL     1     -11.447  39.926  17.831  1.00  0.00     0.675 C 
HETATM   11  N3  UNL     1     -10.163  39.290  17.636  1.00  0.00    -0.214 N 
HETATM   12  N4  UNL     1     -11.584  40.841  18.704  1.00  0.00    -0.216 N 
ATOM     13  H3  UNL     1     -10.175  38.375  17.184  1.00  0.00     0.178 HD
ATOM     14  H4  UNL     1     -10.730  41.132  19.181  1.00  0.00     0.178 HD
ATOM     15  H2  UNL     1     -12.750  38.461  17.091  1.00  0.00     0.184 HD
BRANCH  11  16
HETATM   16  C7  UNL     1      -8.899  39.789  18.000  1.00  0.00     0.166 C 
BRANCH  16  17
HETATM   17  C8  UNL     1      -7.782  39.095  17.330  1.00  0.00    -0.030 A 
HETATM   18  C9  UNL     1      -7.323  37.848  17.658  1.00  0.00     0.009 A 
HETATM   19  C10 UNL     1      -6.266  37.241  17.011  1.00  0.00     0.001 A 
HETATM   20  C11 UNL     1      -5.644  37.912  15.994  1.00  0.00     0.000 A 
HETATM   21  C12 UNL     1      -6.064  39.188  15.612  1.00  0.00     0.001 A 
HETATM   22  C13 UNL     1      -7.112  39.751  16.276  1.00  0.00     0.009 A 
ENDBRANCH  16  17
BRANCH  16  23
HETATM   23  C14 UNL     1      -8.741  39.657  19.506  1.00  0.00    -0.030 A 
HETATM   24  C15 UNL     1      -8.411  40.740  20.294  1.00  0.00     0.009 A 
HETATM   25  C16 UNL     1      -8.260  40.636  21.663  1.00  0.00     0.001 A 
HETATM   26  C17 UNL     1      -8.436  39.432  22.278  1.00  0.00     0.000 A 
HETATM   27  C18 UNL     1      -8.768  38.330  21.494  1.00  0.00     0.001 A 
HETATM   28  C19 UNL     1      -8.918  38.441  20.132  1.00  0.00     0.009 A 
ENDBRANCH  16  23
ENDBRANCH  11  16
BRANCH  12  29
HETATM   29  C20 UNL     1     -12.783  41.517  19.106  1.00  0.00     0.251 C 
BRANCH  29  30
HETATM   30  C21 UNL     1     -12.757  42.962  18.706  1.00  0.00     0.191 C 
HETATM   31  O1  UNL     1     -11.946  43.379  17.869  1.00  0.00    -0.647 OA
HETATM   32  O2  UNL     1     -13.661  43.803  19.299  1.00  0.00    -0.647 OA
ENDBRANCH  29  30
ENDBRANCH  12  29
ENDBRANCH   6   9
TORSDOF 6
ENDMDL
