MODEL 1
REMARK VINA RESULT: -7.256296562      0.000      0.000
REMARK  6 active torsions:
REMARK  status: ('A' for Active; 'I' for Inactive)
REMARK    1  A    between atoms: C5_6  and  N2_7 
REMARK       I    between atoms: N2_7  and  C6_9 
REMARK       I    between atoms: C6_9  and  N3_10 
REMARK    2  A    between atoms: N3_10  and  C7_12 
REMARK    3  A    between atoms: C7_12  and  C8_13 
REMARK    4  A    between atoms: C7_12  and  C14_19 
REMARK    5  A    between atoms: N4_25  and  C20_27 
REMARK    6  A    between atoms: C20_27  and  C21_28 
ROOT
HETATM    1  N1  UNL     1     -18.644  39.024  20.411  1.00  0.00    -0.191 NA
HETATM    2  C1  UNL     1     -17.637  39.128  19.847  1.00  0.00     0.099 C 
HETATM    3  C2  UNL     1     -16.378  39.254  19.164  1.00  0.00     0.044 A 
HETATM    4  C3  UNL     1     -16.264  39.259  17.801  1.00  0.00     0.025 A 
HETATM    5  C4  UNL     1     -15.004  39.385  17.189  1.00  0.00     0.031 A 
HETATM    6  C5  UNL     1     -13.858  39.507  17.909  1.00  0.00     0.049 A 
HETATM    7  C22 UNL     1     -13.975  39.502  19.311  1.00  0.00     0.031 A 
HETATM    8  C23 UNL     1     -15.218  39.377  19.895  1.00  0.00     0.025 A 
ENDROOT
BRANCH   6   9
HETATM    9  N2  UNL     1     -12.585  39.641  17.357  1.00  0.00    -0.192 N 
HETATM   10  C6  UNL     1     -11.513  38.778  17.669  1.00  0.00     0.675 C 
HETATM   11  N3  UNL     1     -10.220  39.332  18.001  1.00  0.00    -0.214 N 
HETATM   12  N4  UNL     1     -11.667  37.519  17.572  1.00  0.00    -0.216 N 
ATOM     13  H3  UNL     1     -10.069  40.310  17.751  1.00  0.00     0.178 HD
ATOM     14  H4  UNL     1     -10.854  36.953  17.817  1.00  0.00     0.178 HD
ATOM     15  H2  UNL     1     -12.420  40.399  16.696  1.00  0.00     0.184 HD
BRANCH  11  16
HETATM   16  C7  UNL     1      -9.146  38.677  18.631  1.00  0.00     0.166 C 
BRANCH  16  17
HETATM   17  C8  UNL     1      -8.724  39.322  19.889  1.00  0.00    -0.030 A 
HETATM   18  C9  UNL     1      -8.012  38.710  20.885  1.00  0.00     0.009 A 
HETATM   19  C10 UNL     1      -7.649  39.350  22.052  1.00  0.00     0.001 A 
HETATM   20  C11 UNL     1      -8.012  40.657  22.227  1.00  0.00     0.000 A 
HETATM   21  C12 UNL     1      -8.738  41.338  21.248  1.00  0.00     0.001 A 
HETATM   22  C13 UNL     1      -9.077  40.670  20.110  1.00  0.00     0.009 A 
ENDBRANCH  16  17
BRANCH  16  23
HETATM   23  C14 UNL     1      -7.970  38.639  17.667  1.00  0.00    -0.030 A 
HETATM   24  C15 UNL     1      -7.638  39.731  16.893  1.00  0.00     0.009 A 
HETATM   25  C16 UNL     1      -6.575  39.712  16.010  1.00  0.00     0.001 A 
HETATM   26  C17 UNL     1      -5.818  38.585  15.881  1.00  0.00     0.000 A 
HETATM   27  C18 UNL     1      -6.144  37.475  16.656  1.00  0.00     0.001 A 
HETATM   28  C19 UNL     1      -7.202  37.502  17.533  1.00  0.00     0.009 A 
ENDBRANCH  16  23
ENDBRANCH  11  16
BRANCH  12  29
HETATM   29  C20 UNL     1     -12.833  36.792  17.165  1.00  0.00     0.251 C 
BRANCH  29  30
HETATM   30  C21 UNL     1     -13.389  35.974  18.291  1.00  0.00     0.191 C 
HETATM   31  O1  UNL     1     -12.855  35.975  19.407  1.00  0.00    -0.647 OA
HETATM   32  O2  UNL     1     -14.508  35.225  18.042  1.00  0.00    -0.647 OA
ENDBRANCH  29  30
ENDBRANCH  12  29
ENDBRANCH   6   9
TORSDOF 6
ENDMDL
