MODEL 14
REMARK VINA RESULT: -6.481044233      1.573      4.192
REMARK  3 active torsions:
REMARK  status: ('A' for Active; 'I' for Inactive)
REMARK    1  A    between atoms: C1_2  and  C2_4 
REMARK    2  A    between atoms: C4_6  and  C5_7 
REMARK    3  A    between atoms: C8_12  and  O5_13 
ROOT
HETATM    1  C2  UNL     1      29.684  31.475  47.900  1.00  0.00     0.224 C 
HETATM    2  C3  UNL     1      30.617  31.009  46.861  1.00  0.00     0.067 C 
HETATM    3  C4  UNL     1      30.310  31.426  45.456  1.00  0.00     0.071 C 
HETATM    4  C6  UNL     1      31.345  32.352  44.902  1.00  0.00    -0.007 C 
HETATM    5  C7  UNL     1      31.219  33.642  45.192  1.00  0.00     0.004 C 
HETATM    6  C8  UNL     1      30.519  33.980  46.462  1.00  0.00     0.169 C 
HETATM    7  C9  UNL     1      29.204  33.281  46.522  1.00  0.00     0.156 C 
HETATM    8  C10 UNL     1      29.009  32.241  45.438  1.00  0.00     0.059 C 
HETATM    9  O6  UNL     1      29.058  32.658  47.727  1.00  0.00    -0.367 OA
ENDROOT
BRANCH   1  10
HETATM   10  C1  UNL     1      30.391  31.509  49.222  1.00  0.00     0.203 C 
HETATM   11  O1  UNL     1      31.556  31.972  49.334  1.00  0.00    -0.646 OA
HETATM   12  O2  UNL     1      29.792  31.030  50.382  1.00  0.00    -0.646 OA
ENDBRANCH   1  10
BRANCH   3  13
HETATM   13  C5  UNL     1      30.185  30.281  44.536  1.00  0.00     0.186 C 
HETATM   14  O3  UNL     1      30.626  29.158  44.841  1.00  0.00    -0.647 OA
HETATM   15  O4  UNL     1      29.569  30.464  43.320  1.00  0.00    -0.647 OA
ENDBRANCH   3  13
BRANCH   6  16
HETATM   16  O5  UNL     1      30.352  35.354  46.610  1.00  0.00    -0.389 OA
ATOM     17  H5  UNL     1      31.184  35.802  46.696  1.00  0.00     0.210 HD
ENDBRANCH   6  16
TORSDOF 3
ENDMDL
