MODEL 3
REMARK VINA RESULT: -7.045732234      1.351      3.428
REMARK  3 active torsions:
REMARK  status: ('A' for Active; 'I' for Inactive)
REMARK    1  A    between atoms: C1_2  and  C2_4 
REMARK    2  A    between atoms: C4_6  and  C5_7 
REMARK    3  A    between atoms: C8_12  and  O5_13 
ROOT
HETATM    1  C2  UNL     1      29.153  31.972  45.198  1.00  0.00     0.224 C 
HETATM    2  C3  UNL     1      30.411  32.440  45.802  1.00  0.00     0.067 C 
HETATM    3  C4  UNL     1      30.869  31.717  47.030  1.00  0.00     0.071 C 
HETATM    4  C6  UNL     1      32.140  30.963  46.803  1.00  0.00    -0.007 C 
HETATM    5  C7  UNL     1      32.036  29.752  46.267  1.00  0.00     0.004 C 
HETATM    6  C8  UNL     1      30.854  29.501  45.397  1.00  0.00     0.169 C 
HETATM    7  C9  UNL     1      29.604  29.885  46.111  1.00  0.00     0.156 C 
HETATM    8  C10 UNL     1      29.839  30.641  47.402  1.00  0.00     0.059 C 
HETATM    9  O6  UNL     1      28.826  30.667  45.307  1.00  0.00    -0.367 OA
ENDROOT
BRANCH   1  10
HETATM   10  C1  UNL     1      29.134  32.339  43.744  1.00  0.00     0.203 C 
HETATM   11  O1  UNL     1      28.625  31.578  42.880  1.00  0.00    -0.646 OA
HETATM   12  O2  UNL     1      29.678  33.534  43.285  1.00  0.00    -0.646 OA
ENDBRANCH   1  10
BRANCH   3  13
HETATM   13  C5  UNL     1      31.074  32.618  48.179  1.00  0.00     0.186 C 
HETATM   14  O3  UNL     1      31.384  32.173  49.299  1.00  0.00    -0.647 OA
HETATM   15  O4  UNL     1      30.919  33.974  48.003  1.00  0.00    -0.647 OA
ENDBRANCH   3  13
BRANCH   6  16
HETATM   16  O5  UNL     1      30.793  28.175  44.978  1.00  0.00    -0.389 OA
ATOM     17  H5  UNL     1      29.897  27.869  44.907  1.00  0.00     0.210 HD
ENDBRANCH   6  16
TORSDOF 3
ENDMDL
