MODEL 13
REMARK VINA RESULT: -5.841660549      3.449      6.025
REMARK  7 active torsions:
REMARK  status: ('A' for Active; 'I' for Inactive)
REMARK    1  A    between atoms: P1_2  and  O4_5 
REMARK    2  A    between atoms: O4_5  and  C1_6 
REMARK    3  A    between atoms: C1_6  and  C2_7 
REMARK    4  A    between atoms: C3_9  and  O6_10 
REMARK    5  A    between atoms: C4_12  and  O7_13 
REMARK    6  A    between atoms: C5_15  and  O8_16 
REMARK    7  A    between atoms: C6_18  and  O9_19 
ROOT
HETATM    1  C2  UNL     1     -15.146  -9.428  -5.601  1.00  0.00     0.180 C 
HETATM    2  O5  UNL     1     -15.339 -10.570  -6.257  1.00  0.00    -0.349 OA
HETATM    3  C3  UNL     1     -14.237 -11.400  -6.068  1.00  0.00     0.288 C 
HETATM    4  C4  UNL     1     -12.924 -10.810  -6.412  1.00  0.00     0.204 C 
HETATM    5  C5  UNL     1     -12.784  -9.336  -6.227  1.00  0.00     0.183 C 
HETATM    6  C6  UNL     1     -14.077  -8.593  -6.197  1.00  0.00     0.180 C 
ENDROOT
BRANCH   1   7
HETATM    7  C1  UNL     1     -16.315  -8.633  -5.141  1.00  0.00     0.217 C 
BRANCH   7   8
HETATM    8  O4  UNL     1     -16.050  -7.957  -3.966  1.00  0.00    -0.280 OA
BRANCH   8   9
HETATM    9  P1  UNL     1     -17.173  -6.705  -3.735  1.00  0.00     0.422 P 
HETATM   10  O1  UNL     1     -18.526  -7.330  -3.348  1.00  0.00    -0.617 OA
HETATM   11  O2  UNL     1     -17.446  -6.068  -5.297  1.00  0.00    -0.617 OA
HETATM   12  O3  UNL     1     -16.828  -5.541  -2.659  1.00  0.00    -0.617 OA
ENDBRANCH   8   9
ENDBRANCH   7   8
ENDBRANCH   1   7
BRANCH   6  13
HETATM   13  O9  UNL     1     -13.840  -7.421  -5.434  1.00  0.00    -0.390 OA
ATOM     14  H9  UNL     1     -12.945  -7.117  -5.527  1.00  0.00     0.210 HD
ENDBRANCH   6  13
BRANCH   3  15
HETATM   15  O6  UNL     1     -14.440 -12.531  -6.873  1.00  0.00    -0.369 OA
ATOM     16  H6  UNL     1     -15.380 -12.642  -6.957  1.00  0.00     0.212 HD
ENDBRANCH   3  15
BRANCH   5  17
HETATM   17  O8  UNL     1     -12.085  -8.819  -7.347  1.00  0.00    -0.390 OA
ATOM     18  H8  UNL     1     -12.716  -8.391  -7.913  1.00  0.00     0.210 HD
ENDBRANCH   5  17
BRANCH   4  19
HETATM   19  O7  UNL     1     -11.968 -11.428  -5.565  1.00  0.00    -0.388 OA
ATOM     20  H7  UNL     1     -11.168 -11.507  -6.070  1.00  0.00     0.210 HD
ENDBRANCH   4  19
TORSDOF 7
ENDMDL
