MODEL 14
REMARK VINA RESULT: -5.834033336      3.896      6.289
REMARK  7 active torsions:
REMARK  status: ('A' for Active; 'I' for Inactive)
REMARK    1  A    between atoms: P1_2  and  O4_5 
REMARK    2  A    between atoms: O4_5  and  C1_6 
REMARK    3  A    between atoms: C1_6  and  C2_7 
REMARK    4  A    between atoms: C3_9  and  O6_10 
REMARK    5  A    between atoms: C4_12  and  O7_13 
REMARK    6  A    between atoms: C5_15  and  O8_16 
REMARK    7  A    between atoms: C6_18  and  O9_19 
ROOT
HETATM    1  C2  UNL     1     -15.276  -8.874  -5.202  1.00  0.00     0.180 C 
HETATM    2  O5  UNL     1     -15.971  -9.791  -5.871  1.00  0.00    -0.349 OA
HETATM    3  C3  UNL     1     -15.123 -10.833  -6.235  1.00  0.00     0.288 C 
HETATM    4  C4  UNL     1     -13.910 -10.439  -6.987  1.00  0.00     0.204 C 
HETATM    5  C5  UNL     1     -13.343  -9.092  -6.684  1.00  0.00     0.183 C 
HETATM    6  C6  UNL     1     -14.310  -8.144  -6.056  1.00  0.00     0.180 C 
ENDROOT
BRANCH   1   7
HETATM    7  C1  UNL     1     -15.966  -7.992  -4.224  1.00  0.00     0.217 C 
BRANCH   7   8
HETATM    8  O4  UNL     1     -16.391  -6.812  -4.801  1.00  0.00    -0.280 OA
BRANCH   8   9
HETATM    9  P1  UNL     1     -17.558  -6.059  -3.825  1.00  0.00     0.422 P 
HETATM   10  O1  UNL     1     -18.550  -7.131  -3.336  1.00  0.00    -0.617 OA
HETATM   11  O2  UNL     1     -18.481  -5.106  -4.903  1.00  0.00    -0.617 OA
HETATM   12  O3  UNL     1     -17.061  -5.207  -2.538  1.00  0.00    -0.617 OA
ENDBRANCH   8   9
ENDBRANCH   7   8
ENDBRANCH   1   7
BRANCH   6  13
HETATM   13  O9  UNL     1     -13.531  -7.229  -5.303  1.00  0.00    -0.390 OA
ATOM     14  H9  UNL     1     -12.602  -7.411  -5.382  1.00  0.00     0.210 HD
ENDBRANCH   6  13
BRANCH   3  15
HETATM   15  O6  UNL     1     -15.875 -11.706  -7.035  1.00  0.00    -0.369 OA
ATOM     16  H6  UNL     1     -15.869 -12.551  -6.598  1.00  0.00     0.212 HD
ENDBRANCH   3  15
BRANCH   5  17
HETATM   17  O8  UNL     1     -12.975  -8.486  -7.911  1.00  0.00    -0.390 OA
ATOM     18  H8  UNL     1     -12.090  -8.761  -8.119  1.00  0.00     0.210 HD
ENDBRANCH   5  17
BRANCH   4  19
HETATM   19  O7  UNL     1     -12.908 -11.392  -6.667  1.00  0.00    -0.388 OA
ATOM     20  H7  UNL     1     -12.650 -11.223  -5.769  1.00  0.00     0.210 HD
ENDBRANCH   4  19
TORSDOF 7
ENDMDL
