MODEL 4
REMARK VINA RESULT: -6.489429268      1.277      2.915
REMARK  7 active torsions:
REMARK  status: ('A' for Active; 'I' for Inactive)
REMARK    1  A    between atoms: P1_2  and  O4_5 
REMARK    2  A    between atoms: O4_5  and  C1_6 
REMARK    3  A    between atoms: C1_6  and  C2_7 
REMARK    4  A    between atoms: C3_9  and  O6_10 
REMARK    5  A    between atoms: C4_12  and  O7_13 
REMARK    6  A    between atoms: C5_15  and  O8_16 
REMARK    7  A    between atoms: C6_18  and  O9_19 
ROOT
HETATM    1  C2  UNL     1     -12.278 -10.799  -6.109  1.00  0.00     0.180 C 
HETATM    2  O5  UNL     1     -13.041 -11.580  -5.347  1.00  0.00    -0.349 OA
HETATM    3  C3  UNL     1     -14.181 -11.942  -6.058  1.00  0.00     0.288 C 
HETATM    4  C4  UNL     1     -14.970 -10.822  -6.619  1.00  0.00     0.204 C 
HETATM    5  C5  UNL     1     -14.209  -9.598  -7.008  1.00  0.00     0.183 C 
HETATM    6  C6  UNL     1     -12.877  -9.465  -6.350  1.00  0.00     0.180 C 
ENDROOT
BRANCH   1   7
HETATM    7  C1  UNL     1     -10.811 -10.743  -5.874  1.00  0.00     0.217 C 
BRANCH   7   8
HETATM    8  O4  UNL     1     -10.469 -11.219  -4.624  1.00  0.00    -0.280 OA
BRANCH   8   9
HETATM    9  P1  UNL     1      -9.287 -10.229  -3.914  1.00  0.00     0.422 P 
HETATM   10  O1  UNL     1      -8.187 -11.131  -3.324  1.00  0.00    -0.617 OA
HETATM   11  O2  UNL     1     -10.047  -9.555  -2.540  1.00  0.00    -0.617 OA
HETATM   12  O3  UNL     1      -8.573  -9.095  -4.828  1.00  0.00    -0.617 OA
ENDBRANCH   8   9
ENDBRANCH   7   8
ENDBRANCH   1   7
BRANCH   6  13
HETATM   13  O9  UNL     1     -12.081  -8.684  -7.226  1.00  0.00    -0.390 OA
ATOM     14  H9  UNL     1     -11.756  -7.900  -6.800  1.00  0.00     0.210 HD
ENDBRANCH   6  13
BRANCH   3  15
HETATM   15  O6  UNL     1     -14.999 -12.660  -5.173  1.00  0.00    -0.369 OA
ATOM     16  H6  UNL     1     -15.088 -13.536  -5.532  1.00  0.00     0.212 HD
ENDBRANCH   3  15
BRANCH   5  17
HETATM   17  O8  UNL     1     -14.949  -8.468  -6.578  1.00  0.00    -0.390 OA
ATOM     18  H8  UNL     1     -14.520  -7.691  -6.916  1.00  0.00     0.210 HD
ENDBRANCH   5  17
BRANCH   4  19
HETATM   19  O7  UNL     1     -15.593 -11.314  -7.795  1.00  0.00    -0.388 OA
ATOM     20  H7  UNL     1     -16.226 -11.964  -7.515  1.00  0.00     0.210 HD
ENDBRANCH   4  19
TORSDOF 7
ENDMDL
