MODEL 15
REMARK VINA RESULT: -5.775714813      3.421      5.821
REMARK  7 active torsions:
REMARK  status: ('A' for Active; 'I' for Inactive)
REMARK    1  A    between atoms: P1_2  and  O4_5 
REMARK    2  A    between atoms: O4_5  and  C1_6 
REMARK    3  A    between atoms: C1_6  and  C2_7 
REMARK    4  A    between atoms: C3_9  and  O6_10 
REMARK    5  A    between atoms: C4_12  and  O7_13 
REMARK    6  A    between atoms: C5_15  and  O8_16 
REMARK    7  A    between atoms: C6_18  and  O9_19 
ROOT
HETATM    1  C2  UNL     1     -14.676  -8.837  -5.834  1.00  0.00     0.180 C 
HETATM    2  O5  UNL     1     -13.608  -8.743  -5.045  1.00  0.00    -0.349 OA
HETATM    3  C3  UNL     1     -12.614  -9.598  -5.514  1.00  0.00     0.288 C 
HETATM    4  C4  UNL     1     -13.016 -11.012  -5.691  1.00  0.00     0.204 C 
HETATM    5  C5  UNL     1     -14.442 -11.261  -6.053  1.00  0.00     0.183 C 
HETATM    6  C6  UNL     1     -15.369 -10.142  -5.716  1.00  0.00     0.180 C 
ENDROOT
BRANCH   1   7
HETATM    7  C1  UNL     1     -15.614  -7.690  -5.947  1.00  0.00     0.217 C 
BRANCH   7   8
HETATM    8  O4  UNL     1     -15.465  -6.795  -4.906  1.00  0.00    -0.280 OA
BRANCH   8   9
HETATM    9  P1  UNL     1     -16.953  -6.525  -4.135  1.00  0.00     0.422 P 
HETATM   10  O1  UNL     1     -17.657  -7.882  -3.946  1.00  0.00    -0.617 OA
HETATM   11  O2  UNL     1     -17.911  -5.724  -5.302  1.00  0.00    -0.617 OA
HETATM   12  O3  UNL     1     -16.960  -5.749  -2.711  1.00  0.00    -0.617 OA
ENDBRANCH   8   9
ENDBRANCH   7   8
ENDBRANCH   1   7
BRANCH   6  13
HETATM   13  O9  UNL     1     -16.455 -10.243  -6.622  1.00  0.00    -0.390 OA
ATOM     14  H9  UNL     1     -16.713 -11.146  -6.761  1.00  0.00     0.210 HD
ENDBRANCH   6  13
BRANCH   3  15
HETATM   15  O6  UNL     1     -11.566  -9.549  -4.584  1.00  0.00    -0.369 OA
ATOM     16  H6  UNL     1     -10.778  -9.334  -5.071  1.00  0.00     0.212 HD
ENDBRANCH   3  15
BRANCH   5  17
HETATM   17  O8  UNL     1     -14.901 -12.364  -5.289  1.00  0.00    -0.390 OA
ATOM     18  H8  UNL     1     -15.792 -12.181  -5.017  1.00  0.00     0.210 HD
ENDBRANCH   5  17
BRANCH   4  19
HETATM   19  O7  UNL     1     -12.224 -11.530  -6.748  1.00  0.00    -0.388 OA
ATOM     20  H7  UNL     1     -12.632 -12.343  -7.020  1.00  0.00     0.210 HD
ENDBRANCH   4  19
TORSDOF 7
ENDMDL
