MODEL 11
REMARK VINA RESULT: -6.150947375      2.002      3.559
REMARK  7 active torsions:
REMARK  status: ('A' for Active; 'I' for Inactive)
REMARK    1  A    between atoms: P1_2  and  O4_5 
REMARK    2  A    between atoms: O4_5  and  C1_6 
REMARK    3  A    between atoms: C1_6  and  C2_7 
REMARK    4  A    between atoms: C3_9  and  O6_10 
REMARK    5  A    between atoms: C4_12  and  O7_13 
REMARK    6  A    between atoms: C5_15  and  O8_16 
REMARK    7  A    between atoms: C6_18  and  O9_19 
ROOT
HETATM    1  C2  UNL     1     -13.285  -9.596  -6.171  1.00  0.00     0.180 C 
HETATM    2  O5  UNL     1     -14.339  -9.728  -5.367  1.00  0.00    -0.349 OA
HETATM    3  C3  UNL     1     -15.340  -8.851  -5.778  1.00  0.00     0.288 C 
HETATM    4  C4  UNL     1     -14.941  -7.431  -5.895  1.00  0.00     0.204 C 
HETATM    5  C5  UNL     1     -13.521  -7.164  -6.270  1.00  0.00     0.183 C 
HETATM    6  C6  UNL     1     -12.589  -8.299  -6.003  1.00  0.00     0.180 C 
ENDROOT
BRANCH   1   7
HETATM    7  C1  UNL     1     -12.350 -10.737  -6.355  1.00  0.00     0.217 C 
BRANCH   7   8
HETATM    8  O4  UNL     1     -12.008 -11.325  -5.153  1.00  0.00    -0.280 OA
BRANCH   8   9
HETATM    9  P1  UNL     1     -10.342 -11.174  -4.870  1.00  0.00     0.422 P 
HETATM   10  O1  UNL     1      -9.727 -10.340  -6.009  1.00  0.00    -0.617 OA
HETATM   11  O2  UNL     1      -9.711 -12.743  -5.122  1.00  0.00    -0.617 OA
HETATM   12  O3  UNL     1      -9.848 -10.543  -3.459  1.00  0.00    -0.617 OA
ENDBRANCH   8   9
ENDBRANCH   7   8
ENDBRANCH   1   7
BRANCH   6  13
HETATM   13  O9  UNL     1     -11.520  -8.155  -6.924  1.00  0.00    -0.390 OA
ATOM     14  H9  UNL     1     -10.714  -7.905  -6.488  1.00  0.00     0.210 HD
ENDBRANCH   6  13
BRANCH   3  15
HETATM   15  O6  UNL     1     -16.372  -8.945  -4.832  1.00  0.00    -0.369 OA
ATOM     16  H6  UNL     1     -17.187  -8.981  -5.319  1.00  0.00     0.212 HD
ENDBRANCH   3  15
BRANCH   5  17
HETATM   17  O8  UNL     1     -13.048  -6.099  -5.463  1.00  0.00    -0.390 OA
ATOM     18  H8  UNL     1     -12.478  -6.466  -4.798  1.00  0.00     0.210 HD
ENDBRANCH   5  17
BRANCH   4  19
HETATM   19  O7  UNL     1     -15.752  -6.864  -6.912  1.00  0.00    -0.388 OA
ATOM     20  H7  UNL     1     -15.190  -6.292  -7.420  1.00  0.00     0.210 HD
ENDBRANCH   4  19
TORSDOF 7
ENDMDL
