MODEL 8
REMARK VINA RESULT: -6.417307683      1.358      2.555
REMARK  7 active torsions:
REMARK  status: ('A' for Active; 'I' for Inactive)
REMARK    1  A    between atoms: P1_2  and  O4_5 
REMARK    2  A    between atoms: O4_5  and  C1_6 
REMARK    3  A    between atoms: C1_6  and  C2_7 
REMARK    4  A    between atoms: C3_9  and  O6_10 
REMARK    5  A    between atoms: C4_12  and  O7_13 
REMARK    6  A    between atoms: C5_15  and  O8_16 
REMARK    7  A    between atoms: C6_18  and  O9_19 
ROOT
HETATM    1  C2  UNL     1     -11.916 -10.629  -5.901  1.00  0.00     0.180 C 
HETATM    2  O5  UNL     1     -12.721 -11.615  -5.513  1.00  0.00    -0.349 OA
HETATM    3  C3  UNL     1     -13.922 -11.528  -6.211  1.00  0.00     0.288 C 
HETATM    4  C4  UNL     1     -14.615 -10.222  -6.137  1.00  0.00     0.204 C 
HETATM    5  C5  UNL     1     -13.750  -9.014  -5.994  1.00  0.00     0.183 C 
HETATM    6  C6  UNL     1     -12.385  -9.293  -5.462  1.00  0.00     0.180 C 
ENDROOT
BRANCH   1   7
HETATM    7  C1  UNL     1     -10.442 -10.792  -5.791  1.00  0.00     0.217 C 
BRANCH   7   8
HETATM    8  O4  UNL     1     -10.072 -11.344  -4.581  1.00  0.00    -0.280 OA
BRANCH   8   9
HETATM    9  P1  UNL     1      -9.081 -10.272  -3.716  1.00  0.00     0.422 P 
HETATM   10  O1  UNL     1      -9.955  -9.517  -2.696  1.00  0.00    -0.617 OA
HETATM   11  O2  UNL     1      -8.641  -9.070  -4.849  1.00  0.00    -0.617 OA
HETATM   12  O3  UNL     1      -7.791 -10.866  -2.933  1.00  0.00    -0.617 OA
ENDBRANCH   8   9
ENDBRANCH   7   8
ENDBRANCH   1   7
BRANCH   6  13
HETATM   13  O9  UNL     1     -11.551  -8.257  -5.955  1.00  0.00    -0.390 OA
ATOM     14  H9  UNL     1     -11.101  -7.804  -5.251  1.00  0.00     0.210 HD
ENDBRANCH   6  13
BRANCH   3  15
HETATM   15  O6  UNL     1     -14.771 -12.511  -5.681  1.00  0.00    -0.369 OA
ATOM     16  H6  UNL     1     -15.660 -12.244  -5.883  1.00  0.00     0.212 HD
ENDBRANCH   3  15
BRANCH   5  17
HETATM   17  O8  UNL     1     -14.352  -8.157  -5.039  1.00  0.00    -0.390 OA
ATOM     18  H8  UNL     1     -14.259  -7.263  -5.348  1.00  0.00     0.210 HD
ENDBRANCH   5  17
BRANCH   4  19
HETATM   19  O7  UNL     1     -15.335 -10.075  -7.351  1.00  0.00    -0.388 OA
ATOM     20  H7  UNL     1     -15.630 -10.944  -7.598  1.00  0.00     0.210 HD
ENDBRANCH   4  19
TORSDOF 7
ENDMDL
