MODEL 2
REMARK VINA RESULT: -6.559315046      1.300      2.915
REMARK  7 active torsions:
REMARK  status: ('A' for Active; 'I' for Inactive)
REMARK    1  A    between atoms: P1_2  and  O4_5 
REMARK    2  A    between atoms: O4_5  and  C1_6 
REMARK    3  A    between atoms: C1_6  and  C2_7 
REMARK    4  A    between atoms: C3_9  and  O6_10 
REMARK    5  A    between atoms: C4_12  and  O7_13 
REMARK    6  A    between atoms: C5_15  and  O8_16 
REMARK    7  A    between atoms: C6_18  and  O9_19 
ROOT
HETATM    1  C2  UNL     1     -12.253 -10.790  -6.125  1.00  0.00     0.180 C 
HETATM    2  O5  UNL     1     -13.000 -11.569  -5.344  1.00  0.00    -0.349 OA
HETATM    3  C3  UNL     1     -14.153 -11.936  -6.031  1.00  0.00     0.288 C 
HETATM    4  C4  UNL     1     -14.955 -10.819  -6.581  1.00  0.00     0.204 C 
HETATM    5  C5  UNL     1     -14.204  -9.596  -6.990  1.00  0.00     0.183 C 
HETATM    6  C6  UNL     1     -12.859  -9.458  -6.359  1.00  0.00     0.180 C 
ENDROOT
BRANCH   1   7
HETATM    7  C1  UNL     1     -10.782 -10.731  -5.919  1.00  0.00     0.217 C 
BRANCH   7   8
HETATM    8  O4  UNL     1     -10.396 -11.369  -4.757  1.00  0.00    -0.280 OA
BRANCH   8   9
HETATM    9  P1  UNL     1      -9.376 -10.370  -3.841  1.00  0.00     0.422 P 
HETATM   10  O1  UNL     1      -8.691  -9.370  -4.791  1.00  0.00    -0.617 OA
HETATM   11  O2  UNL     1      -8.103 -11.391  -3.332  1.00  0.00    -0.617 OA
HETATM   12  O3  UNL     1     -10.013  -9.536  -2.604  1.00  0.00    -0.617 OA
ENDBRANCH   8   9
ENDBRANCH   7   8
ENDBRANCH   1   7
BRANCH   6  13
HETATM   13  O9  UNL     1     -12.082  -8.680  -7.255  1.00  0.00    -0.390 OA
ATOM     14  H9  UNL     1     -11.465  -8.124  -6.792  1.00  0.00     0.210 HD
ENDBRANCH   6  13
BRANCH   3  15
HETATM   15  O6  UNL     1     -14.952 -12.651  -5.127  1.00  0.00    -0.369 OA
ATOM     16  H6  UNL     1     -15.815 -12.253  -5.149  1.00  0.00     0.212 HD
ENDBRANCH   3  15
BRANCH   5  17
HETATM   17  O8  UNL     1     -14.937  -8.465  -6.550  1.00  0.00    -0.390 OA
ATOM     18  H8  UNL     1     -14.609  -7.705  -7.016  1.00  0.00     0.210 HD
ENDBRANCH   5  17
BRANCH   4  19
HETATM   19  O7  UNL     1     -15.601 -11.317  -7.742  1.00  0.00    -0.388 OA
ATOM     20  H7  UNL     1     -14.950 -11.318  -8.435  1.00  0.00     0.210 HD
ENDBRANCH   4  19
TORSDOF 7
ENDMDL
