MODEL 20
REMARK VINA RESULT: -5.699208303      2.165      3.652
REMARK  7 active torsions:
REMARK  status: ('A' for Active; 'I' for Inactive)
REMARK    1  A    between atoms: P1_2  and  O4_5 
REMARK    2  A    between atoms: O4_5  and  C1_6 
REMARK    3  A    between atoms: C1_6  and  C2_7 
REMARK    4  A    between atoms: C3_9  and  O6_10 
REMARK    5  A    between atoms: C4_12  and  O7_13 
REMARK    6  A    between atoms: C5_15  and  O8_16 
REMARK    7  A    between atoms: C6_18  and  O9_19 
ROOT
HETATM    1  C2  UNL     1     -13.635  -9.063  -6.072  1.00  0.00     0.180 C 
HETATM    2  O5  UNL     1     -14.016  -8.751  -4.835  1.00  0.00    -0.349 OA
HETATM    3  C3  UNL     1     -15.272  -8.153  -4.880  1.00  0.00     0.288 C 
HETATM    4  C4  UNL     1     -15.395  -6.984  -5.779  1.00  0.00     0.204 C 
HETATM    5  C5  UNL     1     -14.528  -6.981  -6.994  1.00  0.00     0.183 C 
HETATM    6  C6  UNL     1     -13.334  -7.872  -6.901  1.00  0.00     0.180 C 
ENDROOT
BRANCH   1   7
HETATM    7  C1  UNL     1     -12.677 -10.178  -6.291  1.00  0.00     0.217 C 
BRANCH   7   8
HETATM    8  O4  UNL     1     -11.381  -9.726  -6.440  1.00  0.00    -0.280 OA
BRANCH   8   9
HETATM    9  P1  UNL     1     -10.377 -10.391  -5.244  1.00  0.00     0.422 P 
HETATM   10  O1  UNL     1     -10.918  -9.970  -3.864  1.00  0.00    -0.617 OA
HETATM   11  O2  UNL     1      -8.903  -9.538  -5.385  1.00  0.00    -0.617 OA
HETATM   12  O3  UNL     1     -10.148 -11.996  -5.226  1.00  0.00    -0.617 OA
ENDBRANCH   8   9
ENDBRANCH   7   8
ENDBRANCH   1   7
BRANCH   6  13
HETATM   13  O9  UNL     1     -13.006  -8.230  -8.234  1.00  0.00    -0.390 OA
ATOM     14  H9  UNL     1     -12.524  -7.540  -8.674  1.00  0.00     0.210 HD
ENDBRANCH   6  13
BRANCH   3  15
HETATM   15  O6  UNL     1     -15.570  -7.740  -3.573  1.00  0.00    -0.369 OA
ATOM     16  H6  UNL     1     -15.738  -6.806  -3.612  1.00  0.00     0.212 HD
ENDBRANCH   3  15
BRANCH   5  17
HETATM   17  O8  UNL     1     -14.003  -5.674  -7.154  1.00  0.00    -0.390 OA
ATOM     18  H8  UNL     1     -13.663  -5.601  -8.038  1.00  0.00     0.210 HD
ENDBRANCH   5  17
BRANCH   4  19
HETATM   19  O7  UNL     1     -16.740  -6.958  -6.230  1.00  0.00    -0.388 OA
ATOM     20  H7  UNL     1     -17.100  -7.821  -6.059  1.00  0.00     0.210 HD
ENDBRANCH   4  19
TORSDOF 7
ENDMDL
