MODEL 2
REMARK VINA RESULT: -6.632702810      1.017      1.017
REMARK  5 active torsions:
REMARK  status: ('A' for Active; 'I' for Inactive)
REMARK    1  A    between atoms: C2_2  and  C3_3 
REMARK    2  A    between atoms: C3_3  and  C4_4 
REMARK    3  A    between atoms: C4_4  and  C5_5 
REMARK    4  A    between atoms: C4_4  and  C8_8 
REMARK    5  A    between atoms: C5_5  and  C6_6 
ROOT
HETATM    1  C4  UNL     1      18.435  93.401  33.821  1.00  0.00     0.075 C 
ENDROOT
BRANCH   1   2
HETATM    2  C3  UNL     1      17.319  92.435  33.875  1.00  0.00     0.013 C 
BRANCH   2   3
HETATM    3  C2  UNL     1      17.602  91.017  33.647  1.00  0.00    -0.004 C 
HETATM    4  C1  UNL     1      16.885  90.604  32.350  1.00  0.00     0.005 C 
ENDBRANCH   2   3
ENDBRANCH   1   2
BRANCH   1   5
HETATM    5  C5  UNL     1      18.056  94.847  33.851  1.00  0.00     0.013 C 
BRANCH   5   6
HETATM    6  C6  UNL     1      16.586  95.040  33.534  1.00  0.00    -0.004 C 
HETATM    7  C7  UNL     1      16.431  96.478  33.048  1.00  0.00     0.005 C 
ENDBRANCH   5   6
ENDBRANCH   1   5
BRANCH   1   8
HETATM    8  C8  UNL     1      19.422  93.132  34.881  1.00  0.00     0.235 C 
HETATM    9  N1  UNL     1      19.048  92.993  36.232  1.00  0.00    -0.062 NA
HETATM   10  O1  UNL     1      20.635  93.021  34.595  1.00  0.00    -0.277 OA
ENDBRANCH   1   8
TORSDOF 5
ENDMDL
