MODEL 19
REMARK VINA RESULT: -4.807242749      6.756      8.803
REMARK  5 active torsions:
REMARK  status: ('A' for Active; 'I' for Inactive)
REMARK    1  A    between atoms: C2_2  and  C3_3 
REMARK    2  A    between atoms: C3_3  and  C4_4 
REMARK    3  A    between atoms: C4_4  and  C5_5 
REMARK    4  A    between atoms: C4_4  and  C8_8 
REMARK    5  A    between atoms: C5_5  and  C6_6 
ROOT
HETATM    1  C4  UNL     1      24.493  93.373  38.145  1.00  0.00     0.075 C 
ENDROOT
BRANCH   1   2
HETATM    2  C3  UNL     1      24.814  93.836  39.509  1.00  0.00     0.013 C 
BRANCH   2   3
HETATM    3  C2  UNL     1      25.087  95.258  39.724  1.00  0.00    -0.004 C 
HETATM    4  C1  UNL     1      26.120  95.697  38.672  1.00  0.00     0.005 C 
ENDBRANCH   2   3
ENDBRANCH   1   2
BRANCH   1   5
HETATM    5  C5  UNL     1      24.927  91.984  37.802  1.00  0.00     0.013 C 
BRANCH   5   6
HETATM    6  C6  UNL     1      26.344  91.966  37.264  1.00  0.00    -0.004 C 
HETATM    7  C7  UNL     1      26.259  92.383  35.798  1.00  0.00     0.005 C 
ENDBRANCH   5   6
ENDBRANCH   1   5
BRANCH   1   8
HETATM    8  C8  UNL     1      23.055  93.519  37.859  1.00  0.00     0.235 C 
HETATM    9  N1  UNL     1      22.069  93.251  38.829  1.00  0.00    -0.062 NA
HETATM   10  O1  UNL     1      22.675  93.890  36.726  1.00  0.00    -0.277 OA
ENDBRANCH   1   8
TORSDOF 5
ENDMDL
