MODEL 1
REMARK VINA RESULT: -6.636966910      0.000      0.000
REMARK  5 active torsions:
REMARK  status: ('A' for Active; 'I' for Inactive)
REMARK    1  A    between atoms: C2_2  and  C3_3 
REMARK    2  A    between atoms: C3_3  and  C4_4 
REMARK    3  A    between atoms: C4_4  and  C5_5 
REMARK    4  A    between atoms: C4_4  and  C8_8 
REMARK    5  A    between atoms: C5_5  and  C6_6 
ROOT
HETATM    1  C4  UNL     1      18.410  93.435  33.803  1.00  0.00     0.075 C 
ENDROOT
BRANCH   1   2
HETATM    2  C3  UNL     1      17.296  92.469  33.874  1.00  0.00     0.013 C 
BRANCH   2   3
HETATM    3  C2  UNL     1      17.589  91.042  33.723  1.00  0.00    -0.004 C 
HETATM    4  C1  UNL     1      16.963  90.578  32.397  1.00  0.00     0.005 C 
ENDBRANCH   2   3
ENDBRANCH   1   2
BRANCH   1   5
HETATM    5  C5  UNL     1      18.030  94.881  33.833  1.00  0.00     0.013 C 
BRANCH   5   6
HETATM    6  C6  UNL     1      16.561  95.072  33.512  1.00  0.00    -0.004 C 
HETATM    7  C7  UNL     1      16.401  96.519  33.052  1.00  0.00     0.005 C 
ENDBRANCH   5   6
ENDBRANCH   1   5
BRANCH   1   8
HETATM    8  C8  UNL     1      19.410  93.171  34.853  1.00  0.00     0.235 C 
HETATM    9  N1  UNL     1      20.739  92.817  34.546  1.00  0.00    -0.062 NA
HETATM   10  O1  UNL     1      19.091  93.258  36.059  1.00  0.00    -0.277 OA
ENDBRANCH   1   8
TORSDOF 5
ENDMDL
