MODEL 20
REMARK VINA RESULT: -4.687746313      6.369      8.155
REMARK  5 active torsions:
REMARK  status: ('A' for Active; 'I' for Inactive)
REMARK    1  A    between atoms: C2_2  and  C3_3 
REMARK    2  A    between atoms: C3_3  and  C4_4 
REMARK    3  A    between atoms: C4_4  and  C5_5 
REMARK    4  A    between atoms: C4_4  and  C8_8 
REMARK    5  A    between atoms: C5_5  and  C6_6 
ROOT
HETATM    1  C4  UNL     1      23.876  93.609  37.986  1.00  0.00     0.075 C 
ENDROOT
BRANCH   1   2
HETATM    2  C3  UNL     1      23.874  92.300  38.668  1.00  0.00     0.013 C 
BRANCH   2   3
HETATM    3  C2  UNL     1      23.084  92.142  39.890  1.00  0.00    -0.004 C 
HETATM    4  C1  UNL     1      24.067  92.034  41.068  1.00  0.00     0.005 C 
ENDBRANCH   2   3
ENDBRANCH   1   2
BRANCH   1   5
HETATM    5  C5  UNL     1      25.190  94.321  37.931  1.00  0.00     0.013 C 
BRANCH   5   6
HETATM    6  C6  UNL     1      25.146  95.622  38.708  1.00  0.00    -0.004 C 
HETATM    7  C7  UNL     1      25.567  95.290  40.137  1.00  0.00     0.005 C 
ENDBRANCH   5   6
ENDBRANCH   1   5
BRANCH   1   8
HETATM    8  C8  UNL     1      23.322  93.500  36.625  1.00  0.00     0.235 C 
HETATM    9  N1  UNL     1      21.944  93.638  36.366  1.00  0.00    -0.062 NA
HETATM   10  O1  UNL     1      24.080  93.279  35.655  1.00  0.00    -0.277 OA
ENDBRANCH   1   8
TORSDOF 5
ENDMDL
