MODEL 17
REMARK VINA RESULT: -12.034586226      3.038      4.687
REMARK  10 active torsions:
REMARK  status: ('A' for Active; 'I' for Inactive)
REMARK    1  A    between atoms: C5_5  and  N1_6 
REMARK    2  A    between atoms: N1_6  and  C6_8 
REMARK    3  A    between atoms: C6_8  and  C7_9 
REMARK    4  A    between atoms: C7_9  and  C8_10 
REMARK    5  A    between atoms: C8_10  and  C9_11 
REMARK    6  A    between atoms: C9_11  and  C10_12 
REMARK    7  A    between atoms: C10_12  and  C11_13 
REMARK    8  A    between atoms: C11_13  and  C12_14 
REMARK    9  A    between atoms: C12_14  and  N2_15 
REMARK   10  A    between atoms: N2_15  and  C13_17 
ROOT
HETATM    1  C9  UNL     1       3.173  64.198  64.560  1.00  0.00     0.000 C 
ENDROOT
BRANCH   1   2
HETATM    2  C8  UNL     1       3.633  63.244  65.632  1.00  0.00     0.002 C 
BRANCH   2   3
HETATM    3  C7  UNL     1       3.193  63.690  67.010  1.00  0.00     0.020 C 
BRANCH   3   4
HETATM    4  C6  UNL     1       3.239  62.547  68.000  1.00  0.00     0.120 C 
BRANCH   4   5
HETATM    5  N1  UNL     1       3.406  63.006  69.359  1.00  0.00    -0.389 N 
ATOM      6  H1  UNL     1       4.222  63.588  69.551  1.00  0.00     0.159 HD
BRANCH   5   7
HETATM    7  C5  UNL     1       2.567  62.734  70.425  1.00  0.00     0.049 A 
HETATM    8  C4  UNL     1       1.526  63.559  70.774  1.00  0.00     0.018 A 
HETATM    9  C3  UNL     1       1.274  64.696  70.077  1.00  0.00     0.016 A 
HETATM   10  C28 UNL     1       0.705  63.236  71.862  1.00  0.00     0.044 A 
HETATM   11  C2  UNL     1       0.216  65.543  70.425  1.00  0.00     0.001 A 
HETATM   12  C1  UNL     1      -0.604  65.245  71.492  1.00  0.00     0.002 A 
HETATM   13  C29 UNL     1      -0.341  64.091  72.191  1.00  0.00     0.030 A 
HETATM   14  N4  UNL     1       0.937  62.115  72.566  1.00  0.00    -0.358 N 
HETATM   15  C27 UNL     1       1.939  61.287  72.258  1.00  0.00     0.018 A 
ATOM     16  H4  UNL     1       0.331  61.890  73.356  1.00  0.00     0.166 HD
HETATM   17  C26 UNL     1       2.752  61.609  71.179  1.00  0.00    -0.008 A 
HETATM   18  C30 UNL     1       2.260  60.033  72.985  1.00  0.00     0.057 C 
HETATM   19  C33 UNL     1       3.850  60.688  70.845  1.00  0.00     0.043 C 
HETATM   20  C32 UNL     1       4.605  60.404  72.132  1.00  0.00     0.005 C 
HETATM   21  C31 UNL     1       3.730  60.027  73.278  1.00  0.00     0.006 C 
ENDBRANCH   5   7
ENDBRANCH   4   5
ENDBRANCH   3   4
ENDBRANCH   2   3
ENDBRANCH   1   2
BRANCH   1  22
HETATM   22  C10 UNL     1       4.460  64.681  63.866  1.00  0.00     0.002 C 
BRANCH  22  23
HETATM   23  C11 UNL     1       4.313  66.064  63.357  1.00  0.00     0.020 C 
BRANCH  23  24
HETATM   24  C12 UNL     1       5.085  67.061  64.149  1.00  0.00     0.120 C 
BRANCH  24  25
HETATM   25  N2  UNL     1       4.498  68.301  64.501  1.00  0.00    -0.389 N 
ATOM     26  H2  UNL     1       4.441  69.002  63.762  1.00  0.00     0.159 HD
BRANCH  25  27
HETATM   27  C13 UNL     1       3.977  68.680  65.775  1.00  0.00     0.049 A 
HETATM   28  C14 UNL     1       2.664  68.430  66.137  1.00  0.00    -0.008 A 
HETATM   29  C15 UNL     1       2.243  68.815  67.381  1.00  0.00     0.018 A 
HETATM   30  C25 UNL     1       1.734  67.737  65.199  1.00  0.00     0.043 C 
HETATM   31  N3  UNL     1       3.077  69.412  68.222  1.00  0.00    -0.358 N 
HETATM   32  C22 UNL     1       0.835  68.544  67.760  1.00  0.00     0.057 C 
HETATM   33  C16 UNL     1       4.361  69.669  67.911  1.00  0.00     0.044 A 
ATOM     34  H3  UNL     1       2.732  69.687  69.142  1.00  0.00     0.166 HD
HETATM   35  C17 UNL     1       5.220  70.271  68.823  1.00  0.00     0.030 A 
HETATM   36  C21 UNL     1       4.834  69.300  66.663  1.00  0.00     0.018 A 
HETATM   37  C18 UNL     1       6.546  70.523  68.550  1.00  0.00     0.002 A 
HETATM   38  C19 UNL     1       7.001  70.150  67.311  1.00  0.00     0.001 A 
HETATM   39  C20 UNL     1       6.169  69.553  66.393  1.00  0.00     0.016 A 
HETATM   40  C23 UNL     1       0.577  67.098  67.356  1.00  0.00     0.006 C 
HETATM   41  C24 UNL     1       0.645  66.965  65.877  1.00  0.00     0.005 C 
ENDBRANCH  25  27
ENDBRANCH  24  25
ENDBRANCH  23  24
ENDBRANCH  22  23
ENDBRANCH   1  22
TORSDOF 10
ENDMDL
