MODEL 10
REMARK VINA RESULT: -12.309578547      1.391     12.437
REMARK  10 active torsions:
REMARK  status: ('A' for Active; 'I' for Inactive)
REMARK    1  A    between atoms: C5_5  and  N1_6 
REMARK    2  A    between atoms: N1_6  and  C6_8 
REMARK    3  A    between atoms: C6_8  and  C7_9 
REMARK    4  A    between atoms: C7_9  and  C8_10 
REMARK    5  A    between atoms: C8_10  and  C9_11 
REMARK    6  A    between atoms: C9_11  and  C10_12 
REMARK    7  A    between atoms: C10_12  and  C11_13 
REMARK    8  A    between atoms: C11_13  and  C12_14 
REMARK    9  A    between atoms: C12_14  and  N2_15 
REMARK   10  A    between atoms: N2_15  and  C13_17 
ROOT
HETATM    1  C9  UNL     1       0.715  64.542  70.243  1.00  0.00     0.000 C 
ENDROOT
BRANCH   1   2
HETATM    2  C8  UNL     1       0.343  65.958  69.885  1.00  0.00     0.002 C 
BRANCH   2   3
HETATM    3  C7  UNL     1       1.215  66.507  68.777  1.00  0.00     0.020 C 
BRANCH   3   4
HETATM    4  C6  UNL     1       1.745  67.881  69.122  1.00  0.00     0.120 C 
BRANCH   4   5
HETATM    5  N1  UNL     1       1.888  68.722  67.957  1.00  0.00    -0.389 N 
ATOM      6  H1  UNL     1       1.114  69.353  67.748  1.00  0.00     0.159 HD
BRANCH   5   7
HETATM    7  C5  UNL     1       2.971  68.755  67.098  1.00  0.00     0.049 A 
HETATM    8  C4  UNL     1       4.165  69.342  67.437  1.00  0.00     0.018 A 
HETATM    9  C3  UNL     1       4.334  69.926  68.650  1.00  0.00     0.016 A 
HETATM   10  C28 UNL     1       5.232  69.346  66.530  1.00  0.00     0.044 A 
HETATM   11  C2  UNL     1       5.547  70.526  69.006  1.00  0.00     0.001 A 
HETATM   12  C1  UNL     1       6.610  70.542  68.128  1.00  0.00     0.002 A 
HETATM   13  C29 UNL     1       6.429  69.948  66.903  1.00  0.00     0.030 A 
HETATM   14  N4  UNL     1       5.087  68.772  65.322  1.00  0.00    -0.358 N 
HETATM   15  C27 UNL     1       3.942  68.191  64.955  1.00  0.00     0.018 A 
ATOM     16  H4  UNL     1       5.872  68.781  64.670  1.00  0.00     0.166 HD
HETATM   17  C26 UNL     1       2.885  68.188  65.856  1.00  0.00    -0.008 A 
HETATM   18  C30 UNL     1       3.702  67.538  63.643  1.00  0.00     0.057 C 
HETATM   19  C33 UNL     1       1.629  67.542  65.443  1.00  0.00     0.043 C 
HETATM   20  C32 UNL     1       1.276  68.084  64.069  1.00  0.00     0.005 C 
HETATM   21  C31 UNL     1       2.404  68.054  63.096  1.00  0.00     0.006 C 
ENDBRANCH   5   7
ENDBRANCH   4   5
ENDBRANCH   3   4
ENDBRANCH   2   3
ENDBRANCH   1   2
BRANCH   1  22
HETATM   22  C10 UNL     1      -0.511  63.973  70.981  1.00  0.00     0.002 C 
BRANCH  22  23
HETATM   23  C11 UNL     1      -0.147  63.472  72.325  1.00  0.00     0.020 C 
BRANCH  23  24
HETATM   24  C12 UNL     1      -1.242  62.699  72.975  1.00  0.00     0.120 C 
BRANCH  24  25
HETATM   25  N2  UNL     1      -1.504  61.363  72.580  1.00  0.00    -0.389 N 
ATOM     26  H2  UNL     1      -0.690  60.776  72.401  1.00  0.00     0.159 HD
BRANCH  25  27
HETATM   27  C13 UNL     1      -2.780  60.749  72.405  1.00  0.00     0.049 A 
HETATM   28  C14 UNL     1      -3.532  60.295  73.475  1.00  0.00    -0.008 A 
HETATM   29  C15 UNL     1      -4.751  59.726  73.225  1.00  0.00     0.018 A 
HETATM   30  C25 UNL     1      -3.033  60.443  74.874  1.00  0.00     0.043 C 
HETATM   31  N3  UNL     1      -5.203  59.614  71.984  1.00  0.00    -0.358 N 
HETATM   32  C22 UNL     1      -5.549  59.242  74.379  1.00  0.00     0.057 C 
HETATM   33  C16 UNL     1      -4.506  60.046  70.916  1.00  0.00     0.044 A 
ATOM     34  H3  UNL     1      -6.115  59.184  71.831  1.00  0.00     0.166 HD
HETATM   35  C17 UNL     1      -5.017  59.941  69.628  1.00  0.00     0.030 A 
HETATM   36  C21 UNL     1      -3.266  60.628  71.118  1.00  0.00     0.018 A 
HETATM   37  C18 UNL     1      -4.345  60.398  68.516  1.00  0.00     0.002 A 
HETATM   38  C19 UNL     1      -3.119  60.975  68.731  1.00  0.00     0.001 A 
HETATM   39  C20 UNL     1      -2.594  61.088  69.997  1.00  0.00     0.016 A 
HETATM   40  C23 UNL     1      -5.505  60.368  75.403  1.00  0.00     0.006 C 
HETATM   41  C24 UNL     1      -4.117  60.546  75.902  1.00  0.00     0.005 C 
ENDBRANCH  25  27
ENDBRANCH  24  25
ENDBRANCH  23  24
ENDBRANCH  22  23
ENDBRANCH   1  22
TORSDOF 10
ENDMDL
