MODEL 11
REMARK VINA RESULT: -12.212593918      3.016     10.236
REMARK  10 active torsions:
REMARK  status: ('A' for Active; 'I' for Inactive)
REMARK    1  A    between atoms: C5_5  and  N1_6 
REMARK    2  A    between atoms: N1_6  and  C6_8 
REMARK    3  A    between atoms: C6_8  and  C7_9 
REMARK    4  A    between atoms: C7_9  and  C8_10 
REMARK    5  A    between atoms: C8_10  and  C9_11 
REMARK    6  A    between atoms: C9_11  and  C10_12 
REMARK    7  A    between atoms: C10_12  and  C11_13 
REMARK    8  A    between atoms: C11_13  and  C12_14 
REMARK    9  A    between atoms: C12_14  and  N2_15 
REMARK   10  A    between atoms: N2_15  and  C13_17 
ROOT
HETATM    1  C9  UNL     1       4.772  64.237  64.246  1.00  0.00     0.000 C 
ENDROOT
BRANCH   1   2
HETATM    2  C8  UNL     1       4.285  64.803  62.937  1.00  0.00     0.002 C 
BRANCH   2   3
HETATM    3  C7  UNL     1       4.276  66.316  62.946  1.00  0.00     0.020 C 
BRANCH   3   4
HETATM    4  C6  UNL     1       4.853  66.863  64.233  1.00  0.00     0.120 C 
BRANCH   4   5
HETATM    5  N1  UNL     1       4.342  68.177  64.548  1.00  0.00    -0.389 N 
ATOM      6  H1  UNL     1       4.285  68.844  63.779  1.00  0.00     0.159 HD
BRANCH   5   7
HETATM    7  C5  UNL     1       3.923  68.617  65.790  1.00  0.00     0.049 A 
HETATM    8  C4  UNL     1       4.767  69.243  66.675  1.00  0.00     0.018 A 
HETATM    9  C3  UNL     1       6.070  69.457  66.362  1.00  0.00     0.016 A 
HETATM   10  C28 UNL     1       4.291  69.672  67.920  1.00  0.00     0.044 A 
HETATM   11  C2  UNL     1       6.938  70.094  67.256  1.00  0.00     0.001 A 
HETATM   12  C1  UNL     1       6.491  70.523  68.487  1.00  0.00     0.002 A 
HETATM   13  C29 UNL     1       5.170  70.303  68.794  1.00  0.00     0.030 A 
HETATM   14  N4  UNL     1       3.003  69.471  68.251  1.00  0.00    -0.358 N 
HETATM   15  C27 UNL     1       2.152  68.866  67.418  1.00  0.00     0.018 A 
ATOM     16  H4  UNL     1       2.669  69.788  69.161  1.00  0.00     0.166 HD
HETATM   17  C26 UNL     1       2.625  68.442  66.183  1.00  0.00    -0.008 A 
HETATM   18  C30 UNL     1       0.719  68.607  67.708  1.00  0.00     0.057 C 
HETATM   19  C33 UNL     1       1.678  67.781  65.272  1.00  0.00     0.043 C 
HETATM   20  C32 UNL     1       0.964  66.704  66.070  1.00  0.00     0.005 C 
HETATM   21  C31 UNL     1       0.428  67.173  67.379  1.00  0.00     0.006 C 
ENDBRANCH   5   7
ENDBRANCH   4   5
ENDBRANCH   3   4
ENDBRANCH   2   3
ENDBRANCH   1   2
BRANCH   1  22
HETATM   22  C10 UNL     1       3.578  63.451  64.820  1.00  0.00     0.002 C 
BRANCH  22  23
HETATM   23  C11 UNL     1       3.287  63.853  66.215  1.00  0.00     0.020 C 
BRANCH  23  24
HETATM   24  C12 UNL     1       3.266  62.702  67.159  1.00  0.00     0.120 C 
BRANCH  24  25
HETATM   25  N2  UNL     1       3.603  62.892  68.523  1.00  0.00    -0.389 N 
ATOM     26  H2  UNL     1       4.463  63.409  68.710  1.00  0.00     0.159 HD
BRANCH  25  27
HETATM   27  C13 UNL     1       2.874  62.441  69.664  1.00  0.00     0.049 A 
HETATM   28  C14 UNL     1       2.018  63.273  70.366  1.00  0.00    -0.008 A 
HETATM   29  C15 UNL     1       1.347  62.762  71.443  1.00  0.00     0.018 A 
HETATM   30  C25 UNL     1       1.816  64.690  69.944  1.00  0.00     0.043 C 
HETATM   31  N3  UNL     1       1.511  61.497  71.805  1.00  0.00    -0.358 N 
HETATM   32  C22 UNL     1       0.433  63.661  72.191  1.00  0.00     0.057 C 
HETATM   33  C16 UNL     1       2.329  60.655  71.147  1.00  0.00     0.044 A 
ATOM     34  H3  UNL     1       0.996  61.147  72.613  1.00  0.00     0.166 HD
HETATM   35  C17 UNL     1       2.461  59.326  71.531  1.00  0.00     0.030 A 
HETATM   36  C21 UNL     1       3.032  61.125  70.051  1.00  0.00     0.018 A 
HETATM   37  C18 UNL     1       3.266  58.429  70.865  1.00  0.00     0.002 A 
HETATM   38  C19 UNL     1       3.954  58.908  69.779  1.00  0.00     0.001 A 
HETATM   39  C20 UNL     1       3.839  60.220  69.381  1.00  0.00     0.016 A 
HETATM   40  C23 UNL     1      -0.397  64.370  71.128  1.00  0.00     0.006 C 
HETATM   41  C24 UNL     1       0.476  65.250  70.308  1.00  0.00     0.005 C 
ENDBRANCH  25  27
ENDBRANCH  24  25
ENDBRANCH  23  24
ENDBRANCH  22  23
ENDBRANCH   1  22
TORSDOF 10
ENDMDL
