MODEL 1
REMARK VINA RESULT: -13.148922754      0.000      0.000
REMARK  10 active torsions:
REMARK  status: ('A' for Active; 'I' for Inactive)
REMARK    1  A    between atoms: C5_5  and  N1_6 
REMARK    2  A    between atoms: N1_6  and  C6_8 
REMARK    3  A    between atoms: C6_8  and  C7_9 
REMARK    4  A    between atoms: C7_9  and  C8_10 
REMARK    5  A    between atoms: C8_10  and  C9_11 
REMARK    6  A    between atoms: C9_11  and  C10_12 
REMARK    7  A    between atoms: C10_12  and  C11_13 
REMARK    8  A    between atoms: C11_13  and  C12_14 
REMARK    9  A    between atoms: C12_14  and  N2_15 
REMARK   10  A    between atoms: N2_15  and  C13_17 
ROOT
HETATM    1  C9  UNL     1       1.970  65.173  69.711  1.00  0.00     0.000 C 
ENDROOT
BRANCH   1   2
HETATM    2  C8  UNL     1       1.275  64.047  70.433  1.00  0.00     0.002 C 
BRANCH   2   3
HETATM    3  C7  UNL     1       1.813  62.695  70.020  1.00  0.00     0.020 C 
BRANCH   3   4
HETATM    4  C6  UNL     1       0.716  61.654  69.978  1.00  0.00     0.120 C 
BRANCH   4   5
HETATM    5  N1  UNL     1      -0.577  62.208  70.302  1.00  0.00    -0.389 N 
ATOM      6  H1  UNL     1      -0.775  63.147  69.956  1.00  0.00     0.159 HD
BRANCH   5   7
HETATM    7  C5  UNL     1      -1.574  61.589  71.034  1.00  0.00     0.049 A 
HETATM    8  C4  UNL     1      -2.689  61.041  70.448  1.00  0.00     0.018 A 
HETATM    9  C3  UNL     1      -2.862  61.087  69.103  1.00  0.00     0.016 A 
HETATM   10  C28 UNL     1      -3.669  60.424  71.236  1.00  0.00     0.044 A 
HETATM   11  C2  UNL     1      -3.994  60.532  68.496  1.00  0.00     0.001 A 
HETATM   12  C1  UNL     1      -4.971  59.920  69.252  1.00  0.00     0.002 A 
HETATM   13  C29 UNL     1      -4.786  59.878  70.613  1.00  0.00     0.030 A 
HETATM   14  N4  UNL     1      -3.517  60.367  72.571  1.00  0.00    -0.358 N 
HETATM   15  C27 UNL     1      -2.448  60.888  73.178  1.00  0.00     0.018 A 
ATOM     16  H4  UNL     1      -4.237  59.914  73.134  1.00  0.00     0.166 HD
HETATM   17  C26 UNL     1      -1.477  61.500  72.395  1.00  0.00    -0.008 A 
HETATM   18  C30 UNL     1      -2.207  60.867  74.643  1.00  0.00     0.057 C 
HETATM   19  C33 UNL     1      -0.301  62.066  73.074  1.00  0.00     0.043 C 
HETATM   20  C32 UNL     1      -0.812  62.926  74.217  1.00  0.00     0.005 C 
HETATM   21  C31 UNL     1      -1.829  62.253  75.074  1.00  0.00     0.006 C 
ENDBRANCH   5   7
ENDBRANCH   4   5
ENDBRANCH   3   4
ENDBRANCH   2   3
ENDBRANCH   1   2
BRANCH   1  22
HETATM   22  C10 UNL     1       0.901  66.267  69.536  1.00  0.00     0.002 C 
BRANCH  22  23
HETATM   23  C11 UNL     1       1.489  67.516  69.001  1.00  0.00     0.020 C 
BRANCH  23  24
HETATM   24  C12 UNL     1       1.792  67.440  67.545  1.00  0.00     0.120 C 
BRANCH  24  25
HETATM   25  N2  UNL     1       2.292  68.575  66.860  1.00  0.00    -0.389 N 
ATOM     26  H2  UNL     1       1.671  69.383  66.809  1.00  0.00     0.159 HD
BRANCH  25  27
HETATM   27  C13 UNL     1       3.566  68.714  66.234  1.00  0.00     0.049 A 
HETATM   28  C14 UNL     1       3.804  68.273  64.943  1.00  0.00    -0.008 A 
HETATM   29  C15 UNL     1       5.050  68.453  64.408  1.00  0.00     0.018 A 
HETATM   30  C25 UNL     1       2.717  67.635  64.143  1.00  0.00     0.043 C 
HETATM   31  N3  UNL     1       6.010  69.039  65.112  1.00  0.00    -0.358 N 
HETATM   32  C22 UNL     1       5.296  67.976  63.025  1.00  0.00     0.057 C 
HETATM   33  C16 UNL     1       5.819  69.485  66.367  1.00  0.00     0.044 A 
ATOM     34  H3  UNL     1       6.929  69.157  64.685  1.00  0.00     0.166 HD
HETATM   35  C17 UNL     1       6.835  70.121  67.071  1.00  0.00     0.030 A 
HETATM   36  C21 UNL     1       4.574  69.325  66.952  1.00  0.00     0.018 A 
HETATM   37  C18 UNL     1       6.668  70.616  68.345  1.00  0.00     0.002 A 
HETATM   38  C19 UNL     1       5.429  70.453  68.911  1.00  0.00     0.001 A 
HETATM   39  C20 UNL     1       4.409  69.827  68.233  1.00  0.00     0.016 A 
HETATM   40  C23 UNL     1       4.111  68.476  62.207  1.00  0.00     0.006 C 
HETATM   41  C24 UNL     1       2.864  67.810  62.664  1.00  0.00     0.005 C 
ENDBRANCH  25  27
ENDBRANCH  24  25
ENDBRANCH  23  24
ENDBRANCH  22  23
ENDBRANCH   1  22
TORSDOF 10
ENDMDL
