MODEL 18
REMARK VINA RESULT: -11.913960829      3.019     10.255
REMARK  10 active torsions:
REMARK  status: ('A' for Active; 'I' for Inactive)
REMARK    1  A    between atoms: C5_5  and  N1_6 
REMARK    2  A    between atoms: N1_6  and  C6_8 
REMARK    3  A    between atoms: C6_8  and  C7_9 
REMARK    4  A    between atoms: C7_9  and  C8_10 
REMARK    5  A    between atoms: C8_10  and  C9_11 
REMARK    6  A    between atoms: C9_11  and  C10_12 
REMARK    7  A    between atoms: C10_12  and  C11_13 
REMARK    8  A    between atoms: C11_13  and  C12_14 
REMARK    9  A    between atoms: C12_14  and  N2_15 
REMARK   10  A    between atoms: N2_15  and  C13_17 
ROOT
HETATM    1  C9  UNL     1       3.122  64.394  64.603  1.00  0.00     0.000 C 
ENDROOT
BRANCH   1   2
HETATM    2  C8  UNL     1       4.380  64.698  63.830  1.00  0.00     0.002 C 
BRANCH   2   3
HETATM    3  C7  UNL     1       4.387  66.115  63.300  1.00  0.00     0.020 C 
BRANCH   3   4
HETATM    4  C6  UNL     1       5.120  67.050  64.237  1.00  0.00     0.120 C 
BRANCH   4   5
HETATM    5  N1  UNL     1       4.355  68.239  64.533  1.00  0.00    -0.389 N 
ATOM      6  H1  UNL     1       4.095  68.828  63.742  1.00  0.00     0.159 HD
BRANCH   5   7
HETATM    7  C5  UNL     1       3.940  68.656  65.785  1.00  0.00     0.049 A 
HETATM    8  C4  UNL     1       4.787  69.266  66.678  1.00  0.00     0.018 A 
HETATM    9  C3  UNL     1       6.089  69.487  66.364  1.00  0.00     0.016 A 
HETATM   10  C28 UNL     1       4.316  69.671  67.933  1.00  0.00     0.044 A 
HETATM   11  C2  UNL     1       6.960  70.108  67.266  1.00  0.00     0.001 A 
HETATM   12  C1  UNL     1       6.518  70.514  68.506  1.00  0.00     0.002 A 
HETATM   13  C29 UNL     1       5.198  70.287  68.815  1.00  0.00     0.030 A 
HETATM   14  N4  UNL     1       3.030  69.463  68.266  1.00  0.00    -0.358 N 
HETATM   15  C27 UNL     1       2.175  68.873  67.425  1.00  0.00     0.018 A 
ATOM     16  H4  UNL     1       2.699  69.763  69.182  1.00  0.00     0.166 HD
HETATM   17  C26 UNL     1       2.644  68.472  66.181  1.00  0.00    -0.008 A 
HETATM   18  C30 UNL     1       0.744  68.607  67.717  1.00  0.00     0.057 C 
HETATM   19  C33 UNL     1       1.693  67.827  65.262  1.00  0.00     0.043 C 
HETATM   20  C32 UNL     1       0.984  66.735  66.042  1.00  0.00     0.005 C 
HETATM   21  C31 UNL     1       0.453  67.179  67.362  1.00  0.00     0.006 C 
ENDBRANCH   5   7
ENDBRANCH   4   5
ENDBRANCH   3   4
ENDBRANCH   2   3
ENDBRANCH   1   2
BRANCH   1  22
HETATM   22  C10 UNL     1       3.521  63.306  65.618  1.00  0.00     0.002 C 
BRANCH  22  23
HETATM   23  C11 UNL     1       3.110  63.674  66.992  1.00  0.00     0.020 C 
BRANCH  23  24
HETATM   24  C12 UNL     1       3.429  62.622  67.997  1.00  0.00     0.120 C 
BRANCH  24  25
HETATM   25  N2  UNL     1       3.536  62.956  69.370  1.00  0.00    -0.389 N 
ATOM     26  H2  UNL     1       4.346  63.515  69.639  1.00  0.00     0.159 HD
BRANCH  25  27
HETATM   27  C13 UNL     1       2.638  62.597  70.419  1.00  0.00     0.049 A 
HETATM   28  C14 UNL     1       2.788  61.429  71.148  1.00  0.00    -0.008 A 
HETATM   29  C15 UNL     1       1.891  61.160  72.146  1.00  0.00     0.018 A 
HETATM   30  C25 UNL     1       3.917  60.494  70.867  1.00  0.00     0.043 C 
HETATM   31  N3  UNL     1       0.901  62.002  72.409  1.00  0.00    -0.358 N 
HETATM   32  C22 UNL     1       2.059  59.907  72.922  1.00  0.00     0.057 C 
HETATM   33  C16 UNL     1       0.722  63.148  71.727  1.00  0.00     0.044 A 
ATOM     34  H3  UNL     1       0.248  61.772  73.159  1.00  0.00     0.166 HD
HETATM   35  C17 UNL     1      -0.309  64.026  72.044  1.00  0.00     0.030 A 
HETATM   36  C21 UNL     1       1.603  63.464  70.707  1.00  0.00     0.018 A 
HETATM   37  C18 UNL     1      -0.504  65.220  71.387  1.00  0.00     0.002 A 
HETATM   38  C19 UNL     1       0.378  65.521  70.381  1.00  0.00     0.001 A 
HETATM   39  C20 UNL     1       1.405  64.668  70.050  1.00  0.00     0.016 A 
HETATM   40  C23 UNL     1       3.538  59.849  73.283  1.00  0.00     0.006 C 
HETATM   41  C24 UNL     1       4.354  59.691  72.052  1.00  0.00     0.005 C 
ENDBRANCH  25  27
ENDBRANCH  24  25
ENDBRANCH  23  24
ENDBRANCH  22  23
ENDBRANCH   1  22
TORSDOF 10
ENDMDL
