MODEL 5
REMARK VINA RESULT: -8.304006828      0.754      1.771
REMARK  7 active torsions:
REMARK  status: ('A' for Active; 'I' for Inactive)
REMARK       I    between atoms: C1_2  and  N1_3 
REMARK    1  A    between atoms: C1_2  and  C4_12 
REMARK    2  A    between atoms: N1_3  and  C2_5 
REMARK    3  A    between atoms: C2_5  and  C3_6 
REMARK    4  A    between atoms: C3_6  and  O2_7 
REMARK    5  A    between atoms: O2_7  and  P1_8 
REMARK    6  A    between atoms: C7_15  and  O6_16 
REMARK    7  A    between atoms: O6_16  and  C8_17 
ROOT
HETATM    1  C4  UNL     1      50.143  25.757  14.015  1.00  0.00     0.032 A 
HETATM    2  C5  UNL     1      49.704  24.749  14.839  1.00  0.00     0.020 A 
HETATM    3  C6  UNL     1      50.484  23.640  15.084  1.00  0.00     0.038 A 
HETATM    4  C7  UNL     1      51.747  23.504  14.500  1.00  0.00     0.078 A 
HETATM    5  C9  UNL     1      52.185  24.513  13.676  1.00  0.00     0.038 A 
HETATM    6  C10 UNL     1      51.389  25.612  13.446  1.00  0.00     0.020 A 
ENDROOT
BRANCH   1   7
HETATM    7  C1  UNL     1      49.296  26.911  13.781  1.00  0.00     0.251 C 
HETATM    8  O1  UNL     1      48.301  27.097  14.533  1.00  0.00    -0.268 OA
HETATM    9  N1  UNL     1      49.510  27.857  12.752  1.00  0.00    -0.355 N 
ATOM     10  H1  UNL     1      50.310  27.729  12.131  1.00  0.00     0.162 HD
BRANCH   9  11
HETATM   11  C2  UNL     1      48.657  28.986  12.541  1.00  0.00     0.149 C 
BRANCH  11  12
HETATM   12  C3  UNL     1      47.915  28.932  11.218  1.00  0.00     0.202 C 
BRANCH  12  13
HETATM   13  O2  UNL     1      47.739  30.192  10.700  1.00  0.00    -0.281 OA
BRANCH  13  14
HETATM   14  P1  UNL     1      46.861  30.086   9.292  1.00  0.00     0.422 P 
HETATM   15  O3  UNL     1      45.257  29.598   9.357  1.00  0.00    -0.617 OA
HETATM   16  O4  UNL     1      46.409  31.538   9.402  1.00  0.00    -0.617 OA
HETATM   17  O5  UNL     1      47.564  30.243   7.846  1.00  0.00    -0.617 OA
ENDBRANCH  13  14
ENDBRANCH  12  13
ENDBRANCH  11  12
ENDBRANCH   9  11
ENDBRANCH   1   7
BRANCH   4  18
HETATM   18  O6  UNL     1      52.544  22.390  14.738  1.00  0.00    -0.255 OA
BRANCH  18  19
HETATM   19  C8  UNL     1      52.426  21.324  13.787  1.00  0.00     0.530 C 
HETATM   20  F1  UNL     1      52.353  20.116  14.457  1.00  0.00    -0.144 F 
HETATM   21  F2  UNL     1      53.534  21.309  12.947  1.00  0.00    -0.144 F 
HETATM   22  F3  UNL     1      51.304  21.460  13.008  1.00  0.00    -0.144 F 
ENDBRANCH  18  19
ENDBRANCH   4  18
TORSDOF 7
ENDMDL
