MODEL 1
REMARK VINA RESULT: -8.442946549      0.000      0.000
REMARK  7 active torsions:
REMARK  status: ('A' for Active; 'I' for Inactive)
REMARK       I    between atoms: C1_2  and  N1_3 
REMARK    1  A    between atoms: C1_2  and  C4_12 
REMARK    2  A    between atoms: N1_3  and  C2_5 
REMARK    3  A    between atoms: C2_5  and  C3_6 
REMARK    4  A    between atoms: C3_6  and  O2_7 
REMARK    5  A    between atoms: O2_7  and  P1_8 
REMARK    6  A    between atoms: C7_15  and  O6_16 
REMARK    7  A    between atoms: O6_16  and  C8_17 
ROOT
HETATM    1  C4  UNL     1      49.792  26.062  14.302  1.00  0.00     0.032 A 
HETATM    2  C5  UNL     1      51.105  25.894  13.935  1.00  0.00     0.020 A 
HETATM    3  C6  UNL     1      51.787  24.736  14.243  1.00  0.00     0.038 A 
HETATM    4  C7  UNL     1      51.164  23.696  14.940  1.00  0.00     0.078 A 
HETATM    5  C9  UNL     1      49.850  23.866  15.306  1.00  0.00     0.038 A 
HETATM    6  C10 UNL     1      49.189  25.030  14.988  1.00  0.00     0.020 A 
ENDROOT
BRANCH   1   7
HETATM    7  C1  UNL     1      49.104  27.293  13.961  1.00  0.00     0.251 C 
HETATM    8  O1  UNL     1      49.149  28.258  14.772  1.00  0.00    -0.268 OA
HETATM    9  N1  UNL     1      48.377  27.490  12.765  1.00  0.00    -0.355 N 
ATOM     10  H1  UNL     1      48.327  26.724  12.093  1.00  0.00     0.162 HD
BRANCH   9  11
HETATM   11  C2  UNL     1      47.705  28.715  12.454  1.00  0.00     0.149 C 
BRANCH  11  12
HETATM   12  C3  UNL     1      47.329  28.833  10.989  1.00  0.00     0.202 C 
BRANCH  12  13
HETATM   13  O2  UNL     1      47.568  30.101  10.518  1.00  0.00    -0.281 OA
BRANCH  13  14
HETATM   14  P1  UNL     1      46.312  30.563   9.531  1.00  0.00     0.422 P 
HETATM   15  O3  UNL     1      46.223  32.152   9.002  1.00  0.00    -0.617 OA
HETATM   16  O4  UNL     1      47.097  30.203   8.275  1.00  0.00    -0.617 OA
HETATM   17  O5  UNL     1      45.067  29.577   9.233  1.00  0.00    -0.617 OA
ENDBRANCH  13  14
ENDBRANCH  12  13
ENDBRANCH  11  12
ENDBRANCH   9  11
ENDBRANCH   1   7
BRANCH   4  18
HETATM   18  O6  UNL     1      51.840  22.524  15.256  1.00  0.00    -0.255 OA
BRANCH  18  19
HETATM   19  C8  UNL     1      52.217  21.701  14.145  1.00  0.00     0.530 C 
HETATM   20  F1  UNL     1      51.174  21.645  13.239  1.00  0.00    -0.144 F 
HETATM   21  F2  UNL     1      52.508  20.413  14.581  1.00  0.00    -0.144 F 
HETATM   22  F3  UNL     1      53.327  22.192  13.502  1.00  0.00    -0.144 F 
ENDBRANCH  18  19
ENDBRANCH   4  18
TORSDOF 7
ENDMDL
