MODEL 14
REMARK VINA RESULT: -7.475710030      6.227      8.667
REMARK  7 active torsions:
REMARK  status: ('A' for Active; 'I' for Inactive)
REMARK       I    between atoms: C1_2  and  N1_3 
REMARK    1  A    between atoms: C1_2  and  C4_12 
REMARK    2  A    between atoms: N1_3  and  C2_5 
REMARK    3  A    between atoms: C2_5  and  C3_6 
REMARK    4  A    between atoms: C3_6  and  O2_7 
REMARK    5  A    between atoms: O2_7  and  P1_8 
REMARK    6  A    between atoms: C7_15  and  O6_16 
REMARK    7  A    between atoms: O6_16  and  C8_17 
ROOT
HETATM    1  C4  UNL     1      51.493  26.787  10.413  1.00  0.00     0.032 A 
HETATM    2  C5  UNL     1      51.659  26.571  11.760  1.00  0.00     0.020 A 
HETATM    3  C6  UNL     1      50.643  26.838  12.653  1.00  0.00     0.038 A 
HETATM    4  C7  UNL     1      49.412  27.339  12.217  1.00  0.00     0.078 A 
HETATM    5  C9  UNL     1      49.249  27.554  10.869  1.00  0.00     0.038 A 
HETATM    6  C10 UNL     1      50.276  27.280   9.995  1.00  0.00     0.020 A 
ENDROOT
BRANCH   1   7
HETATM    7  C1  UNL     1      52.583  26.494   9.502  1.00  0.00     0.251 C 
HETATM    8  O1  UNL     1      53.163  27.452   8.921  1.00  0.00    -0.268 OA
HETATM    9  N1  UNL     1      53.048  25.191   9.214  1.00  0.00    -0.355 N 
ATOM     10  H1  UNL     1      52.596  24.400   9.673  1.00  0.00     0.162 HD
BRANCH   9  11
HETATM   11  C2  UNL     1      54.125  24.930   8.307  1.00  0.00     0.149 C 
BRANCH  11  12
HETATM   12  C3  UNL     1      54.303  23.454   8.005  1.00  0.00     0.202 C 
BRANCH  12  13
HETATM   13  O2  UNL     1      55.381  22.938   8.683  1.00  0.00    -0.281 OA
BRANCH  13  14
HETATM   14  P1  UNL     1      55.003  21.414   9.230  1.00  0.00     0.422 P 
HETATM   15  O3  UNL     1      54.050  20.412   8.282  1.00  0.00    -0.617 OA
HETATM   16  O4  UNL     1      56.248  20.817   8.585  1.00  0.00    -0.617 OA
HETATM   17  O5  UNL     1      55.359  20.946  10.736  1.00  0.00    -0.617 OA
ENDBRANCH  13  14
ENDBRANCH  12  13
ENDBRANCH  11  12
ENDBRANCH   9  11
ENDBRANCH   1   7
BRANCH   4  18
HETATM   18  O6  UNL     1      48.381  27.612  13.107  1.00  0.00    -0.255 OA
BRANCH  18  19
HETATM   19  C8  UNL     1      48.499  28.837  13.843  1.00  0.00     0.530 C 
HETATM   20  F1  UNL     1      47.242  29.267  14.224  1.00  0.00    -0.144 F 
HETATM   21  F2  UNL     1      49.092  29.814  13.052  1.00  0.00    -0.144 F 
HETATM   22  F3  UNL     1      49.267  28.679  14.970  1.00  0.00    -0.144 F 
ENDBRANCH  18  19
ENDBRANCH   4  18
TORSDOF 7
ENDMDL
