MODEL 13
REMARK VINA RESULT: -7.485320087      6.227      8.651
REMARK  7 active torsions:
REMARK  status: ('A' for Active; 'I' for Inactive)
REMARK       I    between atoms: C1_2  and  N1_3 
REMARK    1  A    between atoms: C1_2  and  C4_12 
REMARK    2  A    between atoms: N1_3  and  C2_5 
REMARK    3  A    between atoms: C2_5  and  C3_6 
REMARK    4  A    between atoms: C3_6  and  O2_7 
REMARK    5  A    between atoms: O2_7  and  P1_8 
REMARK    6  A    between atoms: C7_15  and  O6_16 
REMARK    7  A    between atoms: O6_16  and  C8_17 
ROOT
HETATM    1  C4  UNL     1      51.542  26.791  10.440  1.00  0.00     0.032 A 
HETATM    2  C5  UNL     1      50.352  27.298   9.978  1.00  0.00     0.020 A 
HETATM    3  C6  UNL     1      49.311  27.567  10.840  1.00  0.00     0.038 A 
HETATM    4  C7  UNL     1      49.432  27.332  12.213  1.00  0.00     0.078 A 
HETATM    5  C9  UNL     1      50.624  26.825  12.674  1.00  0.00     0.038 A 
HETATM    6  C10 UNL     1      51.651  26.564  11.795  1.00  0.00     0.020 A 
ENDROOT
BRANCH   1   7
HETATM    7  C1  UNL     1      52.617  26.521   9.505  1.00  0.00     0.251 C 
HETATM    8  O1  UNL     1      53.125  27.484   8.867  1.00  0.00    -0.268 OA
HETATM    9  N1  UNL     1      53.145  25.234   9.253  1.00  0.00    -0.355 N 
ATOM     10  H1  UNL     1      52.752  24.439   9.757  1.00  0.00     0.162 HD
BRANCH   9  11
HETATM   11  C2  UNL     1      54.205  24.995   8.322  1.00  0.00     0.149 C 
BRANCH  11  12
HETATM   12  C3  UNL     1      54.367  23.527   7.968  1.00  0.00     0.202 C 
BRANCH  12  13
HETATM   13  O2  UNL     1      55.406  22.963   8.666  1.00  0.00    -0.281 OA
BRANCH  13  14
HETATM   14  P1  UNL     1      54.958  21.447   9.183  1.00  0.00     0.422 P 
HETATM   15  O3  UNL     1      54.019  20.482   8.184  1.00  0.00    -0.617 OA
HETATM   16  O4  UNL     1      56.213  20.817   8.590  1.00  0.00    -0.617 OA
HETATM   17  O5  UNL     1      55.231  20.959  10.699  1.00  0.00    -0.617 OA
ENDBRANCH  13  14
ENDBRANCH  12  13
ENDBRANCH  11  12
ENDBRANCH   9  11
ENDBRANCH   1   7
BRANCH   4  18
HETATM   18  O6  UNL     1      48.390  27.598  13.092  1.00  0.00    -0.255 OA
BRANCH  18  19
HETATM   19  C8  UNL     1      48.496  28.822  13.833  1.00  0.00     0.530 C 
HETATM   20  F1  UNL     1      47.233  29.246  14.202  1.00  0.00    -0.144 F 
HETATM   21  F2  UNL     1      49.093  29.804  13.051  1.00  0.00    -0.144 F 
HETATM   22  F3  UNL     1      49.252  28.664  14.968  1.00  0.00    -0.144 F 
ENDBRANCH  18  19
ENDBRANCH   4  18
TORSDOF 7
ENDMDL
