MODEL 3
REMARK VINA RESULT: -8.328141814      1.099      2.083
REMARK  7 active torsions:
REMARK  status: ('A' for Active; 'I' for Inactive)
REMARK       I    between atoms: C1_2  and  N1_3 
REMARK    1  A    between atoms: C1_2  and  C4_12 
REMARK    2  A    between atoms: N1_3  and  C2_5 
REMARK    3  A    between atoms: C2_5  and  C3_6 
REMARK    4  A    between atoms: C3_6  and  O2_7 
REMARK    5  A    between atoms: O2_7  and  P1_8 
REMARK    6  A    between atoms: C7_15  and  O6_16 
REMARK    7  A    between atoms: O6_16  and  C8_17 
ROOT
HETATM    1  C4  UNL     1      50.006  26.192  14.341  1.00  0.00     0.032 A 
HETATM    2  C5  UNL     1      49.410  25.110  14.942  1.00  0.00     0.020 A 
HETATM    3  C6  UNL     1      50.093  23.924  15.110  1.00  0.00     0.038 A 
HETATM    4  C7  UNL     1      51.413  23.784  14.672  1.00  0.00     0.078 A 
HETATM    5  C9  UNL     1      52.008  24.868  14.071  1.00  0.00     0.038 A 
HETATM    6  C10 UNL     1      51.307  26.042  13.914  1.00  0.00     0.020 A 
ENDROOT
BRANCH   1   7
HETATM    7  C1  UNL     1      49.258  27.424  14.182  1.00  0.00     0.251 C 
HETATM    8  O1  UNL     1      49.769  28.502  14.592  1.00  0.00    -0.268 OA
HETATM    9  N1  UNL     1      47.977  27.504  13.590  1.00  0.00    -0.355 N 
ATOM     10  H1  UNL     1      47.543  26.646  13.249  1.00  0.00     0.162 HD
BRANCH   9  11
HETATM   11  C2  UNL     1      47.260  28.735  13.448  1.00  0.00     0.149 C 
BRANCH  11  12
HETATM   12  C3  UNL     1      46.522  28.843  12.126  1.00  0.00     0.202 C 
BRANCH  12  13
HETATM   13  O2  UNL     1      47.192  28.175  11.130  1.00  0.00    -0.281 OA
BRANCH  13  14
HETATM   14  P1  UNL     1      48.122  29.256  10.276  1.00  0.00     0.422 P 
HETATM   15  O3  UNL     1      48.120  29.198   8.599  1.00  0.00    -0.617 OA
HETATM   16  O4  UNL     1      46.989  30.274  10.228  1.00  0.00    -0.617 OA
HETATM   17  O5  UNL     1      49.182  30.226  11.016  1.00  0.00    -0.617 OA
ENDBRANCH  13  14
ENDBRANCH  12  13
ENDBRANCH  11  12
ENDBRANCH   9  11
ENDBRANCH   1   7
BRANCH   4  18
HETATM   18  O6  UNL     1      52.113  22.595  14.834  1.00  0.00    -0.255 OA
BRANCH  18  19
HETATM   19  C8  UNL     1      52.171  21.742  13.683  1.00  0.00     0.530 C 
HETATM   20  F1  UNL     1      52.493  20.457  14.078  1.00  0.00    -0.144 F 
HETATM   21  F2  UNL     1      53.141  22.200  12.798  1.00  0.00    -0.144 F 
HETATM   22  F3  UNL     1      50.972  21.706  13.016  1.00  0.00    -0.144 F 
ENDBRANCH  18  19
ENDBRANCH   4  18
TORSDOF 7
ENDMDL
