MODEL 12
REMARK VINA RESULT: -7.507792875      6.263      8.797
REMARK  7 active torsions:
REMARK  status: ('A' for Active; 'I' for Inactive)
REMARK       I    between atoms: C1_2  and  N1_3 
REMARK    1  A    between atoms: C1_2  and  C4_12 
REMARK    2  A    between atoms: N1_3  and  C2_5 
REMARK    3  A    between atoms: C2_5  and  C3_6 
REMARK    4  A    between atoms: C3_6  and  O2_7 
REMARK    5  A    between atoms: O2_7  and  P1_8 
REMARK    6  A    between atoms: C7_15  and  O6_16 
REMARK    7  A    between atoms: O6_16  and  C8_17 
ROOT
HETATM    1  C4  UNL     1      51.434  26.627  10.524  1.00  0.00     0.032 A 
HETATM    2  C5  UNL     1      50.291  27.170   9.988  1.00  0.00     0.020 A 
HETATM    3  C6  UNL     1      49.238  27.546  10.794  1.00  0.00     0.038 A 
HETATM    4  C7  UNL     1      49.298  27.384  12.182  1.00  0.00     0.078 A 
HETATM    5  C9  UNL     1      50.442  26.841  12.715  1.00  0.00     0.038 A 
HETATM    6  C10 UNL     1      51.482  26.473  11.892  1.00  0.00     0.020 A 
ENDROOT
BRANCH   1   7
HETATM    7  C1  UNL     1      52.524  26.244   9.647  1.00  0.00     0.251 C 
HETATM    8  O1  UNL     1      53.234  27.149   9.128  1.00  0.00    -0.268 OA
HETATM    9  N1  UNL     1      52.852  24.907   9.326  1.00  0.00    -0.355 N 
ATOM     10  H1  UNL     1      52.294  24.157   9.735  1.00  0.00     0.162 HD
BRANCH   9  11
HETATM   11  C2  UNL     1      53.933  24.557   8.455  1.00  0.00     0.149 C 
BRANCH  11  12
HETATM   12  C3  UNL     1      54.162  23.059   8.365  1.00  0.00     0.202 C 
BRANCH  12  13
HETATM   13  O2  UNL     1      55.504  22.764   8.378  1.00  0.00    -0.281 OA
BRANCH  13  14
HETATM   14  P1  UNL     1      55.771  21.479   9.398  1.00  0.00     0.422 P 
HETATM   15  O3  UNL     1      54.823  21.308  10.771  1.00  0.00    -0.617 OA
HETATM   16  O4  UNL     1      54.793  20.598   8.630  1.00  0.00    -0.617 OA
HETATM   17  O5  UNL     1      57.048  20.506   9.213  1.00  0.00    -0.617 OA
ENDBRANCH  13  14
ENDBRANCH  12  13
ENDBRANCH  11  12
ENDBRANCH   9  11
ENDBRANCH   1   7
BRANCH   4  18
HETATM   18  O6  UNL     1      48.243  27.759  13.005  1.00  0.00    -0.255 OA
BRANCH  18  19
HETATM   19  C8  UNL     1      48.401  29.005  13.696  1.00  0.00     0.530 C 
HETATM   20  F1  UNL     1      49.137  28.801  14.848  1.00  0.00    -0.144 F 
HETATM   21  F2  UNL     1      47.157  29.523  14.038  1.00  0.00    -0.144 F 
HETATM   22  F3  UNL     1      49.050  29.935  12.922  1.00  0.00    -0.144 F 
ENDBRANCH  18  19
ENDBRANCH   4  18
TORSDOF 7
ENDMDL
