MODEL 2
REMARK VINA RESULT: -8.383685540      1.094      1.806
REMARK  7 active torsions:
REMARK  status: ('A' for Active; 'I' for Inactive)
REMARK       I    between atoms: C1_2  and  N1_3 
REMARK    1  A    between atoms: C1_2  and  C4_12 
REMARK    2  A    between atoms: N1_3  and  C2_5 
REMARK    3  A    between atoms: C2_5  and  C3_6 
REMARK    4  A    between atoms: C3_6  and  O2_7 
REMARK    5  A    between atoms: O2_7  and  P1_8 
REMARK    6  A    between atoms: C7_15  and  O6_16 
REMARK    7  A    between atoms: O6_16  and  C8_17 
ROOT
HETATM    1  C4  UNL     1      49.939  26.146  14.380  1.00  0.00     0.032 A 
HETATM    2  C5  UNL     1      51.235  26.023  13.942  1.00  0.00     0.020 A 
HETATM    3  C6  UNL     1      51.929  24.843  14.097  1.00  0.00     0.038 A 
HETATM    4  C7  UNL     1      51.337  23.733  14.708  1.00  0.00     0.078 A 
HETATM    5  C9  UNL     1      50.040  23.858  15.146  1.00  0.00     0.038 A 
HETATM    6  C10 UNL     1      49.366  25.046  14.980  1.00  0.00     0.020 A 
ENDROOT
BRANCH   1   7
HETATM    7  C1  UNL     1      49.237  27.403  14.200  1.00  0.00     0.251 C 
HETATM    8  O1  UNL     1      49.791  28.469  14.587  1.00  0.00    -0.268 OA
HETATM    9  N1  UNL     1      47.957  27.520  13.611  1.00  0.00    -0.355 N 
ATOM     10  H1  UNL     1      47.490  26.673  13.288  1.00  0.00     0.162 HD
BRANCH   9  11
HETATM   11  C2  UNL     1      47.287  28.774  13.447  1.00  0.00     0.149 C 
BRANCH  11  12
HETATM   12  C3  UNL     1      46.534  28.878  12.133  1.00  0.00     0.202 C 
BRANCH  12  13
HETATM   13  O2  UNL     1      47.181  28.187  11.137  1.00  0.00    -0.281 OA
BRANCH  13  14
HETATM   14  P1  UNL     1      48.125  29.242  10.264  1.00  0.00     0.422 P 
HETATM   15  O3  UNL     1      48.094  29.178   8.588  1.00  0.00    -0.617 OA
HETATM   16  O4  UNL     1      47.017  30.288  10.231  1.00  0.00    -0.617 OA
HETATM   17  O5  UNL     1      49.221  30.186  10.984  1.00  0.00    -0.617 OA
ENDBRANCH  13  14
ENDBRANCH  12  13
ENDBRANCH  11  12
ENDBRANCH   9  11
ENDBRANCH   1   7
BRANCH   4  18
HETATM   18  O6  UNL     1      52.026  22.537  14.871  1.00  0.00    -0.255 OA
BRANCH  18  19
HETATM   19  C8  UNL     1      52.141  21.718  13.700  1.00  0.00     0.530 C 
HETATM   20  F1  UNL     1      52.452  20.424  14.073  1.00  0.00    -0.144 F 
HETATM   21  F2  UNL     1      53.147  22.205  12.873  1.00  0.00    -0.144 F 
HETATM   22  F3  UNL     1      50.972  21.696  12.979  1.00  0.00    -0.144 F 
ENDBRANCH  18  19
ENDBRANCH   4  18
TORSDOF 7
ENDMDL
