MODEL 2
REMARK VINA RESULT: -10.502701193      0.073      1.086
REMARK  6 active torsions:
REMARK  status: ('A' for Active; 'I' for Inactive)
REMARK    1  A    between atoms: S1_2  and  N1_4 
REMARK    2  A    between atoms: S1_2  and  C3_13 
REMARK    3  A    between atoms: N1_4  and  C1_6 
REMARK    4  A    between atoms: C1_6  and  C2_7 
REMARK    5  A    between atoms: C2_7  and  O3_8 
REMARK    6  A    between atoms: O3_8  and  P1_9 
ROOT
HETATM    1  O1  UNL     1      49.768  28.319  14.873  1.00  0.00    -0.201 OA
HETATM    2  S1  UNL     1      48.827  27.173  15.105  1.00  0.00     0.258 S 
HETATM    3  O2  UNL     1      48.160  27.343  16.447  1.00  0.00    -0.201 OA
ENDROOT
BRANCH   2   4
HETATM    4  N1  UNL     1      47.614  27.218  13.908  1.00  0.00    -0.313 N 
ATOM      5  H1  UNL     1      47.119  26.388  13.581  1.00  0.00     0.172 HD
BRANCH   4   6
HETATM    6  C1  UNL     1      47.356  28.541  13.403  1.00  0.00     0.159 C 
BRANCH   6   7
HETATM    7  C2  UNL     1      46.616  28.365  12.093  1.00  0.00     0.202 C 
BRANCH   7   8
HETATM    8  O3  UNL     1      47.606  28.160  11.147  1.00  0.00    -0.281 OA
BRANCH   8   9
HETATM    9  P1  UNL     1      47.936  29.166  10.063  1.00  0.00     0.422 P 
HETATM   10  O4  UNL     1      48.356  27.995   8.948  1.00  0.00    -0.617 OA
HETATM   11  O5  UNL     1      49.016  30.038  10.842  1.00  0.00    -0.617 OA
HETATM   12  O6  UNL     1      46.289  29.593  10.074  1.00  0.00    -0.617 OA
ENDBRANCH   8   9
ENDBRANCH   7   8
ENDBRANCH   6   7
ENDBRANCH   4   6
ENDBRANCH   2   4
BRANCH   2  13
HETATM   13  C3  UNL     1      49.627  25.630  15.059  1.00  0.00     0.080 A 
HETATM   14  C4  UNL     1      51.001  25.555  15.009  1.00  0.00     0.026 A 
HETATM   15  C5  UNL     1      51.665  24.347  14.972  1.00  0.00     0.014 A 
HETATM   16  C6  UNL     1      50.901  23.203  14.985  1.00  0.00    -0.026 A 
HETATM   17  C7  UNL     1      51.494  21.972  14.950  1.00  0.00     0.012 A 
HETATM   18  C11 UNL     1      49.515  23.246  15.035  1.00  0.00    -0.025 A 
HETATM   19  C8  UNL     1      50.741  20.822  14.963  1.00  0.00     0.001 A 
HETATM   20  C9  UNL     1      49.368  20.875  15.013  1.00  0.00     0.001 A 
HETATM   21  C10 UNL     1      48.734  22.107  15.050  1.00  0.00     0.012 A 
HETATM   22  C12 UNL     1      48.893  24.471  15.072  1.00  0.00     0.037 A 
ENDBRANCH   2  13
TORSDOF 6
ENDMDL
