MODEL 16
REMARK VINA RESULT: -7.584782616      5.258      7.425
REMARK  6 active torsions:
REMARK  status: ('A' for Active; 'I' for Inactive)
REMARK    1  A    between atoms: S1_2  and  N1_4 
REMARK    2  A    between atoms: S1_2  and  C3_13 
REMARK    3  A    between atoms: N1_4  and  C1_6 
REMARK    4  A    between atoms: C1_6  and  C2_7 
REMARK    5  A    between atoms: C2_7  and  O3_8 
REMARK    6  A    between atoms: O3_8  and  P1_9 
ROOT
HETATM    1  O1  UNL     1      52.795  24.675  15.720  1.00  0.00    -0.201 OA
HETATM    2  S1  UNL     1      51.614  24.128  14.973  1.00  0.00     0.258 S 
HETATM    3  O2  UNL     1      51.977  23.970  13.517  1.00  0.00    -0.201 OA
ENDROOT
BRANCH   2   4
HETATM    4  N1  UNL     1      51.249  22.582  15.592  1.00  0.00    -0.313 N 
ATOM      5  H1  UNL     1      50.633  22.430  16.391  1.00  0.00     0.172 HD
BRANCH   4   6
HETATM    6  C1  UNL     1      51.897  21.512  14.879  1.00  0.00     0.159 C 
BRANCH   6   7
HETATM    7  C2  UNL     1      50.990  20.305  14.999  1.00  0.00     0.202 C 
BRANCH   7   8
HETATM    8  O3  UNL     1      51.437  19.424  14.028  1.00  0.00    -0.281 OA
BRANCH   8   9
HETATM    9  P1  UNL     1      50.765  19.269  12.678  1.00  0.00     0.422 P 
HETATM   10  O4  UNL     1      50.732  17.601  12.760  1.00  0.00    -0.617 OA
HETATM   11  O5  UNL     1      51.810  20.066  11.779  1.00  0.00    -0.617 OA
HETATM   12  O6  UNL     1      49.413  20.051  13.355  1.00  0.00    -0.617 OA
ENDBRANCH   8   9
ENDBRANCH   7   8
ENDBRANCH   6   7
ENDBRANCH   4   6
ENDBRANCH   2   4
BRANCH   2  13
HETATM   13  C3  UNL     1      50.210  25.147  15.100  1.00  0.00     0.080 A 
HETATM   14  C4  UNL     1      49.179  24.814  15.950  1.00  0.00     0.026 A 
HETATM   15  C5  UNL     1      48.053  25.600  16.075  1.00  0.00     0.014 A 
HETATM   16  C6  UNL     1      47.991  26.743  15.311  1.00  0.00    -0.026 A 
HETATM   17  C7  UNL     1      46.903  27.568  15.385  1.00  0.00     0.012 A 
HETATM   18  C11 UNL     1      49.013  27.105  14.446  1.00  0.00    -0.025 A 
HETATM   19  C8  UNL     1      46.830  28.713  14.627  1.00  0.00     0.001 A 
HETATM   20  C9  UNL     1      47.849  29.063  13.773  1.00  0.00     0.001 A 
HETATM   21  C10 UNL     1      48.966  28.249  13.674  1.00  0.00     0.012 A 
HETATM   22  C12 UNL     1      50.118  26.294  14.353  1.00  0.00     0.037 A 
ENDBRANCH   2  13
TORSDOF 6
ENDMDL
