MODEL 14
REMARK VINA RESULT: -8.070423529      5.405      7.124
REMARK  6 active torsions:
REMARK  status: ('A' for Active; 'I' for Inactive)
REMARK    1  A    between atoms: S1_2  and  N1_4 
REMARK    2  A    between atoms: S1_2  and  C3_13 
REMARK    3  A    between atoms: N1_4  and  C1_6 
REMARK    4  A    between atoms: C1_6  and  C2_7 
REMARK    5  A    between atoms: C2_7  and  O3_8 
REMARK    6  A    between atoms: O3_8  and  P1_9 
ROOT
HETATM    1  O1  UNL     1      48.053  21.188  15.250  1.00  0.00    -0.201 OA
HETATM    2  S1  UNL     1      49.524  21.417  15.061  1.00  0.00     0.258 S 
HETATM    3  O2  UNL     1      50.281  20.704  16.154  1.00  0.00    -0.201 OA
ENDROOT
BRANCH   2   4
HETATM    4  N1  UNL     1      49.991  20.736  13.570  1.00  0.00    -0.313 N 
ATOM      5  H1  UNL     1      49.912  21.228  12.680  1.00  0.00     0.172 HD
BRANCH   4   6
HETATM    6  C1  UNL     1      50.508  19.398  13.688  1.00  0.00     0.159 C 
BRANCH   6   7
HETATM    7  C2  UNL     1      51.017  19.010  12.315  1.00  0.00     0.202 C 
BRANCH   7   8
HETATM    8  O3  UNL     1      52.264  19.603  12.215  1.00  0.00    -0.281 OA
BRANCH   8   9
HETATM    9  P1  UNL     1      52.577  20.709  11.227  1.00  0.00     0.422 P 
HETATM   10  O4  UNL     1      54.062  20.070  10.810  1.00  0.00    -0.617 OA
HETATM   11  O5  UNL     1      52.422  21.967  12.191  1.00  0.00    -0.617 OA
HETATM   12  O6  UNL     1      51.263  20.143  10.304  1.00  0.00    -0.617 OA
ENDBRANCH   8   9
ENDBRANCH   7   8
ENDBRANCH   6   7
ENDBRANCH   4   6
ENDBRANCH   2   4
BRANCH   2  13
HETATM   13  C3  UNL     1      49.947  23.104  15.083  1.00  0.00     0.080 A 
HETATM   14  C4  UNL     1      51.265  23.495  14.996  1.00  0.00     0.026 A 
HETATM   15  C5  UNL     1      51.634  24.824  15.010  1.00  0.00     0.014 A 
HETATM   16  C6  UNL     1      50.630  25.759  15.117  1.00  0.00    -0.026 A 
HETATM   17  C7  UNL     1      50.925  27.094  15.138  1.00  0.00     0.012 A 
HETATM   18  C11 UNL     1      49.294  25.396  15.207  1.00  0.00    -0.025 A 
HETATM   19  C8  UNL     1      49.930  28.037  15.244  1.00  0.00     0.001 A 
HETATM   20  C9  UNL     1      48.609  27.666  15.333  1.00  0.00     0.001 A 
HETATM   21  C10 UNL     1      48.275  26.322  15.314  1.00  0.00     0.012 A 
HETATM   22  C12 UNL     1      48.970  24.060  15.188  1.00  0.00     0.037 A 
ENDBRANCH   2  13
TORSDOF 6
ENDMDL
