MODEL 5
REMARK VINA RESULT: -9.905097513      1.108      1.293
REMARK  6 active torsions:
REMARK  status: ('A' for Active; 'I' for Inactive)
REMARK    1  A    between atoms: S1_2  and  N1_4 
REMARK    2  A    between atoms: S1_2  and  C3_13 
REMARK    3  A    between atoms: N1_4  and  C1_6 
REMARK    4  A    between atoms: C1_6  and  C2_7 
REMARK    5  A    between atoms: C2_7  and  O3_8 
REMARK    6  A    between atoms: O3_8  and  P1_9 
ROOT
HETATM    1  O1  UNL     1      48.424  27.465  16.812  1.00  0.00    -0.201 OA
HETATM    2  S1  UNL     1      48.560  27.072  15.370  1.00  0.00     0.258 S 
HETATM    3  O2  UNL     1      47.186  26.897  14.772  1.00  0.00    -0.201 OA
ENDROOT
BRANCH   2   4
HETATM    4  N1  UNL     1      49.337  28.338  14.534  1.00  0.00    -0.313 N 
ATOM      5  H1  UNL     1      50.341  28.510  14.587  1.00  0.00     0.172 HD
BRANCH   4   6
HETATM    6  C1  UNL     1      48.438  29.142  13.747  1.00  0.00     0.159 C 
BRANCH   6   7
HETATM    7  C2  UNL     1      48.900  29.020  12.310  1.00  0.00     0.202 C 
BRANCH   7   8
HETATM    8  O3  UNL     1      47.920  29.656  11.565  1.00  0.00    -0.281 OA
BRANCH   8   9
HETATM    9  P1  UNL     1      47.194  28.990  10.413  1.00  0.00     0.422 P 
HETATM   10  O4  UNL     1      45.851  28.613  11.331  1.00  0.00    -0.617 OA
HETATM   11  O5  UNL     1      48.291  27.910  10.007  1.00  0.00    -0.617 OA
HETATM   12  O6  UNL     1      47.151  30.520   9.666  1.00  0.00    -0.617 OA
ENDBRANCH   8   9
ENDBRANCH   7   8
ENDBRANCH   6   7
ENDBRANCH   4   6
ENDBRANCH   2   4
BRANCH   2  13
HETATM   13  C3  UNL     1      49.463  25.601  15.158  1.00  0.00     0.080 A 
HETATM   14  C4  UNL     1      50.827  25.638  14.978  1.00  0.00     0.026 A 
HETATM   15  C5  UNL     1      51.572  24.490  14.808  1.00  0.00     0.014 A 
HETATM   16  C6  UNL     1      50.899  23.290  14.823  1.00  0.00    -0.026 A 
HETATM   17  C7  UNL     1      51.576  22.112  14.660  1.00  0.00     0.012 A 
HETATM   18  C11 UNL     1      49.526  23.220  15.002  1.00  0.00    -0.025 A 
HETATM   19  C8  UNL     1      50.914  20.908  14.673  1.00  0.00     0.001 A 
HETATM   20  C9  UNL     1      49.552  20.850  14.851  1.00  0.00     0.001 A 
HETATM   21  C10 UNL     1      48.836  22.024  15.020  1.00  0.00     0.012 A 
HETATM   22  C12 UNL     1      48.821  24.388  15.169  1.00  0.00     0.037 A 
ENDBRANCH   2  13
TORSDOF 6
ENDMDL
