MODEL 17
REMARK VINA RESULT: -7.539090056      5.293      7.322
REMARK  6 active torsions:
REMARK  status: ('A' for Active; 'I' for Inactive)
REMARK    1  A    between atoms: S1_2  and  N1_4 
REMARK    2  A    between atoms: S1_2  and  C3_13 
REMARK    3  A    between atoms: N1_4  and  C1_6 
REMARK    4  A    between atoms: C1_6  and  C2_7 
REMARK    5  A    between atoms: C2_7  and  O3_8 
REMARK    6  A    between atoms: O3_8  and  P1_9 
ROOT
HETATM    1  O1  UNL     1      48.572  22.651  15.081  1.00  0.00    -0.201 OA
HETATM    2  S1  UNL     1      49.958  23.204  15.242  1.00  0.00     0.258 S 
HETATM    3  O2  UNL     1      50.457  22.897  16.632  1.00  0.00    -0.201 OA
ENDROOT
BRANCH   2   4
HETATM    4  N1  UNL     1      50.986  22.418  14.132  1.00  0.00    -0.313 N 
ATOM      5  H1  UNL     1      50.934  22.560  13.123  1.00  0.00     0.172 HD
BRANCH   4   6
HETATM    6  C1  UNL     1      51.935  21.534  14.756  1.00  0.00     0.159 C 
BRANCH   6   7
HETATM    7  C2  UNL     1      51.223  20.212  14.958  1.00  0.00     0.202 C 
BRANCH   7   8
HETATM    8  O3  UNL     1      51.600  19.434  13.876  1.00  0.00    -0.281 OA
BRANCH   8   9
HETATM    9  P1  UNL     1      50.686  19.151  12.700  1.00  0.00     0.422 P 
HETATM   10  O4  UNL     1      49.379  19.933  13.385  1.00  0.00    -0.617 OA
HETATM   11  O5  UNL     1      50.811  17.565  12.653  1.00  0.00    -0.617 OA
HETATM   12  O6  UNL     1      51.713  20.141  11.771  1.00  0.00    -0.617 OA
ENDBRANCH   8   9
ENDBRANCH   7   8
ENDBRANCH   6   7
ENDBRANCH   4   6
ENDBRANCH   2   4
BRANCH   2  13
HETATM   13  C3  UNL     1      50.030  24.921  14.978  1.00  0.00     0.080 A 
HETATM   14  C4  UNL     1      51.161  25.633  15.308  1.00  0.00     0.026 A 
HETATM   15  C5  UNL     1      51.250  26.995  15.112  1.00  0.00     0.014 A 
HETATM   16  C6  UNL     1      50.156  27.629  14.569  1.00  0.00    -0.026 A 
HETATM   17  C7  UNL     1      50.176  28.979  14.348  1.00  0.00     0.012 A 
HETATM   18  C11 UNL     1      49.002  26.940  14.227  1.00  0.00    -0.025 A 
HETATM   19  C8  UNL     1      49.089  29.623  13.806  1.00  0.00     0.001 A 
HETATM   20  C9  UNL     1      47.950  28.930  13.470  1.00  0.00     0.001 A 
HETATM   21  C10 UNL     1      47.897  27.562  13.681  1.00  0.00     0.012 A 
HETATM   22  C12 UNL     1      48.956  25.583  14.438  1.00  0.00     0.037 A 
ENDBRANCH   2  13
TORSDOF 6
ENDMDL
