MODEL 3
REMARK VINA RESULT: -10.495974883      0.908      1.278
REMARK  6 active torsions:
REMARK  status: ('A' for Active; 'I' for Inactive)
REMARK    1  A    between atoms: S1_2  and  N1_4 
REMARK    2  A    between atoms: S1_2  and  C3_13 
REMARK    3  A    between atoms: N1_4  and  C1_6 
REMARK    4  A    between atoms: C1_6  and  C2_7 
REMARK    5  A    between atoms: C2_7  and  O3_8 
REMARK    6  A    between atoms: O3_8  and  P1_9 
ROOT
HETATM    1  O1  UNL     1      49.752  28.624  14.775  1.00  0.00    -0.201 OA
HETATM    2  S1  UNL     1      48.771  27.489  14.727  1.00  0.00     0.258 S 
HETATM    3  O2  UNL     1      47.765  27.656  15.839  1.00  0.00    -0.201 OA
ENDROOT
BRANCH   2   4
HETATM    4  N1  UNL     1      47.931  27.563  13.245  1.00  0.00    -0.313 N 
ATOM      5  H1  UNL     1      47.472  26.756  12.821  1.00  0.00     0.172 HD
BRANCH   4   6
HETATM    6  C1  UNL     1      47.931  28.874  12.651  1.00  0.00     0.159 C 
BRANCH   6   7
HETATM    7  C2  UNL     1      47.916  28.666  11.151  1.00  0.00     0.202 C 
BRANCH   7   8
HETATM    8  O3  UNL     1      47.245  29.766  10.643  1.00  0.00    -0.281 OA
BRANCH   8   9
HETATM    9  P1  UNL     1      46.578  29.774   9.282  1.00  0.00     0.422 P 
HETATM   10  O4  UNL     1      46.618  31.438   9.147  1.00  0.00    -0.617 OA
HETATM   11  O5  UNL     1      45.251  28.971   9.643  1.00  0.00    -0.617 OA
HETATM   12  O6  UNL     1      47.958  28.968   8.694  1.00  0.00    -0.617 OA
ENDBRANCH   8   9
ENDBRANCH   7   8
ENDBRANCH   6   7
ENDBRANCH   4   6
ENDBRANCH   2   4
BRANCH   2  13
HETATM   13  C3  UNL     1      49.535  25.935  14.881  1.00  0.00     0.080 A 
HETATM   14  C4  UNL     1      50.905  25.835  14.968  1.00  0.00     0.026 A 
HETATM   15  C5  UNL     1      51.542  24.618  15.090  1.00  0.00     0.014 A 
HETATM   16  C6  UNL     1      50.753  23.491  15.123  1.00  0.00    -0.026 A 
HETATM   17  C7  UNL     1      51.318  22.251  15.244  1.00  0.00     0.012 A 
HETATM   18  C11 UNL     1      49.370  23.559  15.039  1.00  0.00    -0.025 A 
HETATM   19  C8  UNL     1      50.540  21.119  15.278  1.00  0.00     0.001 A 
HETATM   20  C9  UNL     1      49.170  21.198  15.193  1.00  0.00     0.001 A 
HETATM   21  C10 UNL     1      48.565  22.438  15.071  1.00  0.00     0.012 A 
HETATM   22  C12 UNL     1      48.776  24.793  14.918  1.00  0.00     0.037 A 
ENDBRANCH   2  13
TORSDOF 6
ENDMDL
