MODEL 4
REMARK VINA RESULT: -10.495161829      0.162      1.092
REMARK  6 active torsions:
REMARK  status: ('A' for Active; 'I' for Inactive)
REMARK    1  A    between atoms: S1_2  and  N1_4 
REMARK    2  A    between atoms: S1_2  and  C3_13 
REMARK    3  A    between atoms: N1_4  and  C1_6 
REMARK    4  A    between atoms: C1_6  and  C2_7 
REMARK    5  A    between atoms: C2_7  and  O3_8 
REMARK    6  A    between atoms: O3_8  and  P1_9 
ROOT
HETATM    1  O1  UNL     1      49.785  28.346  14.954  1.00  0.00    -0.201 OA
HETATM    2  S1  UNL     1      48.857  27.208  15.264  1.00  0.00     0.258 S 
HETATM    3  O2  UNL     1      48.326  27.370  16.667  1.00  0.00    -0.201 OA
ENDROOT
BRANCH   2   4
HETATM    4  N1  UNL     1      47.533  27.281  14.192  1.00  0.00    -0.313 N 
ATOM      5  H1  UNL     1      46.800  26.573  14.159  1.00  0.00     0.172 HD
BRANCH   4   6
HETATM    6  C1  UNL     1      47.551  28.440  13.339  1.00  0.00     0.159 C 
BRANCH   6   7
HETATM    7  C2  UNL     1      46.836  28.046  12.063  1.00  0.00     0.202 C 
BRANCH   7   8
HETATM    8  O3  UNL     1      47.806  28.109  11.075  1.00  0.00    -0.281 OA
BRANCH   8   9
HETATM    9  P1  UNL     1      47.848  29.201  10.025  1.00  0.00     0.422 P 
HETATM   10  O4  UNL     1      49.058  30.054  10.800  1.00  0.00    -0.617 OA
HETATM   11  O5  UNL     1      46.321  29.650  10.060  1.00  0.00    -0.617 OA
HETATM   12  O6  UNL     1      48.390  28.013   8.932  1.00  0.00    -0.617 OA
ENDBRANCH   8   9
ENDBRANCH   7   8
ENDBRANCH   6   7
ENDBRANCH   4   6
ENDBRANCH   2   4
BRANCH   2  13
HETATM   13  C3  UNL     1      49.628  25.656  15.124  1.00  0.00     0.080 A 
HETATM   14  C4  UNL     1      50.999  25.562  15.027  1.00  0.00     0.026 A 
HETATM   15  C5  UNL     1      51.641  24.347  14.915  1.00  0.00     0.014 A 
HETATM   16  C6  UNL     1      50.858  23.215  14.901  1.00  0.00    -0.026 A 
HETATM   17  C7  UNL     1      51.429  21.978  14.792  1.00  0.00     0.012 A 
HETATM   18  C11 UNL     1      49.475  23.277  14.997  1.00  0.00    -0.025 A 
HETATM   19  C8  UNL     1      50.657  20.840  14.777  1.00  0.00     0.001 A 
HETATM   20  C9  UNL     1      49.287  20.913  14.873  1.00  0.00     0.001 A 
HETATM   21  C10 UNL     1      48.676  22.151  14.985  1.00  0.00     0.012 A 
HETATM   22  C12 UNL     1      48.876  24.509  15.108  1.00  0.00     0.037 A 
ENDBRANCH   2  13
TORSDOF 6
ENDMDL
