MODEL 1
REMARK VINA RESULT: -10.521355259      0.000      0.000
REMARK  6 active torsions:
REMARK  status: ('A' for Active; 'I' for Inactive)
REMARK    1  A    between atoms: S1_2  and  N1_4 
REMARK    2  A    between atoms: S1_2  and  C3_13 
REMARK    3  A    between atoms: N1_4  and  C1_6 
REMARK    4  A    between atoms: C1_6  and  C2_7 
REMARK    5  A    between atoms: C2_7  and  O3_8 
REMARK    6  A    between atoms: O3_8  and  P1_9 
ROOT
HETATM    1  O1  UNL     1      49.795  28.313  14.868  1.00  0.00    -0.201 OA
HETATM    2  S1  UNL     1      48.844  27.178  15.117  1.00  0.00     0.258 S 
HETATM    3  O2  UNL     1      48.200  27.359  16.469  1.00  0.00    -0.201 OA
ENDROOT
BRANCH   2   4
HETATM    4  N1  UNL     1      47.613  27.235  13.938  1.00  0.00    -0.313 N 
ATOM      5  H1  UNL     1      47.116  26.408  13.608  1.00  0.00     0.172 HD
BRANCH   4   6
HETATM    6  C1  UNL     1      47.344  28.564  13.455  1.00  0.00     0.159 C 
BRANCH   6   7
HETATM    7  C2  UNL     1      46.687  28.404  12.100  1.00  0.00     0.202 C 
BRANCH   7   8
HETATM    8  O3  UNL     1      47.736  28.275  11.206  1.00  0.00    -0.281 OA
BRANCH   8   9
HETATM    9  P1  UNL     1      47.907  29.171   9.995  1.00  0.00     0.422 P 
HETATM   10  O4  UNL     1      46.339  29.742  10.057  1.00  0.00    -0.617 OA
HETATM   11  O5  UNL     1      48.384  28.082   8.935  1.00  0.00    -0.617 OA
HETATM   12  O6  UNL     1      49.035  30.056  10.913  1.00  0.00    -0.617 OA
ENDBRANCH   8   9
ENDBRANCH   7   8
ENDBRANCH   6   7
ENDBRANCH   4   6
ENDBRANCH   2   4
BRANCH   2  13
HETATM   13  C3  UNL     1      49.625  25.626  15.062  1.00  0.00     0.080 A 
HETATM   14  C4  UNL     1      50.998  25.534  15.013  1.00  0.00     0.026 A 
HETATM   15  C5  UNL     1      51.647  24.318  14.969  1.00  0.00     0.014 A 
HETATM   16  C6  UNL     1      50.869  23.184  14.975  1.00  0.00    -0.026 A 
HETATM   17  C7  UNL     1      51.447  21.945  14.933  1.00  0.00     0.012 A 
HETATM   18  C11 UNL     1      49.484  23.243  15.024  1.00  0.00    -0.025 A 
HETATM   19  C8  UNL     1      50.679  20.805  14.938  1.00  0.00     0.001 A 
HETATM   20  C9  UNL     1      49.307  20.875  14.987  1.00  0.00     0.001 A 
HETATM   21  C10 UNL     1      48.689  22.114  15.031  1.00  0.00     0.012 A 
HETATM   22  C12 UNL     1      48.877  24.476  15.068  1.00  0.00     0.037 A 
ENDBRANCH   2  13
TORSDOF 6
ENDMDL
