MODEL 11
REMARK VINA RESULT: -8.138765681      4.493      7.892
REMARK  8 active torsions:
REMARK  status: ('A' for Active; 'I' for Inactive)
REMARK    1  A    between atoms: S1_2  and  N1_4 
REMARK    2  A    between atoms: S1_2  and  C3_13 
REMARK    3  A    between atoms: N1_4  and  C1_6 
REMARK    4  A    between atoms: C1_6  and  C2_7 
REMARK    5  A    between atoms: C2_7  and  O3_8 
REMARK    6  A    between atoms: O3_8  and  P1_9 
REMARK    7  A    between atoms: C6_16  and  O7_17 
REMARK    8  A    between atoms: O7_17  and  C7_18 
ROOT
HETATM    1  O1  UNL     1      51.162  27.853  15.896  1.00  0.00    -0.201 OA
HETATM    2  S1  UNL     1      49.898  27.188  15.430  1.00  0.00     0.258 S 
HETATM    3  O2  UNL     1      48.828  27.315  16.507  1.00  0.00    -0.201 OA
ENDROOT
BRANCH   2   4
HETATM    4  N1  UNL     1      50.102  25.529  15.114  1.00  0.00    -0.313 N 
ATOM      5  H1  UNL     1      49.331  24.862  15.133  1.00  0.00     0.172 HD
BRANCH   4   6
HETATM    6  C1  UNL     1      51.448  25.152  14.818  1.00  0.00     0.159 C 
BRANCH   6   7
HETATM    7  C2  UNL     1      51.715  23.725  15.223  1.00  0.00     0.202 C 
BRANCH   7   8
HETATM    8  O3  UNL     1      51.696  22.934  14.133  1.00  0.00    -0.281 OA
BRANCH   8   9
HETATM    9  P1  UNL     1      51.069  21.431  14.265  1.00  0.00     0.422 P 
HETATM   10  O4  UNL     1      50.169  20.795  13.018  1.00  0.00    -0.617 OA
HETATM   11  O5  UNL     1      51.115  20.572  15.678  1.00  0.00    -0.617 OA
HETATM   12  O6  UNL     1      52.321  20.769  13.705  1.00  0.00    -0.617 OA
ENDBRANCH   8   9
ENDBRANCH   7   8
ENDBRANCH   6   7
ENDBRANCH   4   6
ENDBRANCH   2   4
BRANCH   2  13
HETATM   13  C3  UNL     1      49.354  28.066  14.002  1.00  0.00     0.079 A 
HETATM   14  C4  UNL     1      48.332  27.592  13.223  1.00  0.00     0.028 A 
HETATM   15  C5  UNL     1      47.911  28.289  12.102  1.00  0.00     0.038 A 
HETATM   16  C6  UNL     1      48.524  29.465  11.770  1.00  0.00     0.078 A 
HETATM   17  C8  UNL     1      49.559  29.950  12.555  1.00  0.00     0.038 A 
HETATM   18  C9  UNL     1      49.985  29.263  13.673  1.00  0.00     0.028 A 
BRANCH  16  19
HETATM   19  O7  UNL     1      48.129  30.177  10.665  1.00  0.00    -0.255 OA
BRANCH  19  20
HETATM   20  C7  UNL     1      47.710  29.565   9.453  1.00  0.00     0.530 C 
HETATM   21  F1  UNL     1      46.375  29.237   9.472  1.00  0.00    -0.144 F 
HETATM   22  F2  UNL     1      48.454  28.444   9.221  1.00  0.00    -0.144 F 
HETATM   23  F3  UNL     1      47.879  30.441   8.378  1.00  0.00    -0.144 F 
ENDBRANCH  19  20
ENDBRANCH  16  19
ENDBRANCH   2  13
TORSDOF 8
ENDMDL
