MODEL 5
REMARK VINA RESULT: -9.623275785      0.757      1.366
REMARK  8 active torsions:
REMARK  status: ('A' for Active; 'I' for Inactive)
REMARK    1  A    between atoms: S1_2  and  N1_4 
REMARK    2  A    between atoms: S1_2  and  C3_13 
REMARK    3  A    between atoms: N1_4  and  C1_6 
REMARK    4  A    between atoms: C1_6  and  C2_7 
REMARK    5  A    between atoms: C2_7  and  O3_8 
REMARK    6  A    between atoms: O3_8  and  P1_9 
REMARK    7  A    between atoms: C6_16  and  O7_17 
REMARK    8  A    between atoms: O7_17  and  C7_18 
ROOT
HETATM    1  O1  UNL     1      48.409  27.121  16.403  1.00  0.00    -0.201 OA
HETATM    2  S1  UNL     1      49.201  26.939  15.140  1.00  0.00     0.258 S 
HETATM    3  O2  UNL     1      50.389  27.892  15.141  1.00  0.00    -0.201 OA
ENDROOT
BRANCH   2   4
HETATM    4  N1  UNL     1      48.293  27.265  13.739  1.00  0.00    -0.313 N 
ATOM      5  H1  UNL     1      47.878  26.532  13.164  1.00  0.00     0.172 HD
BRANCH   4   6
HETATM    6  C1  UNL     1      48.164  28.656  13.436  1.00  0.00     0.159 C 
BRANCH   6   7
HETATM    7  C2  UNL     1      48.624  28.953  12.032  1.00  0.00     0.202 C 
BRANCH   7   8
HETATM    8  O3  UNL     1      47.749  29.785  11.435  1.00  0.00    -0.281 OA
BRANCH   8   9
HETATM    9  P1  UNL     1      47.239  29.435   9.923  1.00  0.00     0.422 P 
HETATM   10  O4  UNL     1      45.614  29.244   9.619  1.00  0.00    -0.617 OA
HETATM   11  O5  UNL     1      48.286  29.055   8.700  1.00  0.00    -0.617 OA
HETATM   12  O6  UNL     1      47.147  30.901   9.524  1.00  0.00    -0.617 OA
ENDBRANCH   8   9
ENDBRANCH   7   8
ENDBRANCH   6   7
ENDBRANCH   4   6
ENDBRANCH   2   4
BRANCH   2  13
HETATM   13  C3  UNL     1      49.815  25.287  15.153  1.00  0.00     0.079 A 
HETATM   14  C4  UNL     1      49.026  24.239  15.543  1.00  0.00     0.028 A 
HETATM   15  C5  UNL     1      49.517  22.943  15.551  1.00  0.00     0.038 A 
HETATM   16  C6  UNL     1      50.807  22.710  15.163  1.00  0.00     0.078 A 
HETATM   17  C8  UNL     1      51.611  23.768  14.767  1.00  0.00     0.038 A 
HETATM   18  C9  UNL     1      51.130  25.061  14.757  1.00  0.00     0.028 A 
BRANCH  16  19
HETATM   19  O7  UNL     1      51.321  21.437  15.160  1.00  0.00    -0.255 OA
BRANCH  19  20
HETATM   20  C7  UNL     1      51.521  20.681  13.975  1.00  0.00     0.530 C 
HETATM   21  F1  UNL     1      52.724  20.968  13.374  1.00  0.00    -0.144 F 
HETATM   22  F2  UNL     1      50.502  20.919  13.097  1.00  0.00    -0.144 F 
HETATM   23  F3  UNL     1      51.549  19.314  14.264  1.00  0.00    -0.144 F 
ENDBRANCH  19  20
ENDBRANCH  16  19
ENDBRANCH   2  13
TORSDOF 8
ENDMDL
