MODEL 3
REMARK VINA RESULT: -9.729055888      0.540      1.024
REMARK  8 active torsions:
REMARK  status: ('A' for Active; 'I' for Inactive)
REMARK    1  A    between atoms: S1_2  and  N1_4 
REMARK    2  A    between atoms: S1_2  and  C3_13 
REMARK    3  A    between atoms: N1_4  and  C1_6 
REMARK    4  A    between atoms: C1_6  and  C2_7 
REMARK    5  A    between atoms: C2_7  and  O3_8 
REMARK    6  A    between atoms: O3_8  and  P1_9 
REMARK    7  A    between atoms: C6_16  and  O7_17 
REMARK    8  A    between atoms: O7_17  and  C7_18 
ROOT
HETATM    1  O1  UNL     1      48.656  26.970  16.541  1.00  0.00    -0.201 OA
HETATM    2  S1  UNL     1      49.301  26.771  15.200  1.00  0.00     0.258 S 
HETATM    3  O2  UNL     1      50.524  27.670  15.082  1.00  0.00    -0.201 OA
ENDROOT
BRANCH   2   4
HETATM    4  N1  UNL     1      48.265  27.155  13.906  1.00  0.00    -0.313 N 
ATOM      5  H1  UNL     1      47.846  26.448  13.302  1.00  0.00     0.172 HD
BRANCH   4   6
HETATM    6  C1  UNL     1      48.034  28.555  13.738  1.00  0.00     0.159 C 
BRANCH   6   7
HETATM    7  C2  UNL     1      48.528  29.031  12.396  1.00  0.00     0.202 C 
BRANCH   7   8
HETATM    8  O3  UNL     1      47.587  28.802  11.460  1.00  0.00    -0.281 OA
BRANCH   8   9
HETATM    9  P1  UNL     1      47.810  29.407   9.959  1.00  0.00     0.422 P 
HETATM   10  O4  UNL     1      47.106  30.854   9.534  1.00  0.00    -0.617 OA
HETATM   11  O5  UNL     1      48.546  28.542   8.755  1.00  0.00    -0.617 OA
HETATM   12  O6  UNL     1      49.087  30.138  10.351  1.00  0.00    -0.617 OA
ENDBRANCH   8   9
ENDBRANCH   7   8
ENDBRANCH   6   7
ENDBRANCH   4   6
ENDBRANCH   2   4
BRANCH   2  13
HETATM   13  C3  UNL     1      49.838  25.094  15.133  1.00  0.00     0.079 A 
HETATM   14  C4  UNL     1      49.013  24.067  15.506  1.00  0.00     0.028 A 
HETATM   15  C5  UNL     1      49.444  22.751  15.451  1.00  0.00     0.038 A 
HETATM   16  C6  UNL     1      50.711  22.476  15.017  1.00  0.00     0.078 A 
HETATM   17  C8  UNL     1      51.551  23.511  14.637  1.00  0.00     0.038 A 
HETATM   18  C9  UNL     1      51.131  24.824  14.689  1.00  0.00     0.028 A 
BRANCH  16  19
HETATM   19  O7  UNL     1      51.166  21.182  14.951  1.00  0.00    -0.255 OA
BRANCH  19  20
HETATM   20  C7  UNL     1      51.103  20.394  13.771  1.00  0.00     0.530 C 
HETATM   21  F1  UNL     1      50.035  20.736  12.975  1.00  0.00    -0.144 F 
HETATM   22  F2  UNL     1      51.021  19.071  14.103  1.00  0.00    -0.144 F 
HETATM   23  F3  UNL     1      52.246  20.585  12.991  1.00  0.00    -0.144 F 
ENDBRANCH  19  20
ENDBRANCH  16  19
ENDBRANCH   2  13
TORSDOF 8
ENDMDL
