MODEL 2
REMARK VINA RESULT: -9.811566479      0.041      1.019
REMARK  8 active torsions:
REMARK  status: ('A' for Active; 'I' for Inactive)
REMARK    1  A    between atoms: S1_2  and  N1_4 
REMARK    2  A    between atoms: S1_2  and  C3_13 
REMARK    3  A    between atoms: N1_4  and  C1_6 
REMARK    4  A    between atoms: C1_6  and  C2_7 
REMARK    5  A    between atoms: C2_7  and  O3_8 
REMARK    6  A    between atoms: O3_8  and  P1_9 
REMARK    7  A    between atoms: C6_16  and  O7_17 
REMARK    8  A    between atoms: O7_17  and  C7_18 
ROOT
HETATM    1  O1  UNL     1      48.423  26.995  16.323  1.00  0.00    -0.201 OA
HETATM    2  S1  UNL     1      49.201  26.785  15.056  1.00  0.00     0.258 S 
HETATM    3  O2  UNL     1      50.395  27.730  15.027  1.00  0.00    -0.201 OA
ENDROOT
BRANCH   2   4
HETATM    4  N1  UNL     1      48.280  27.093  13.658  1.00  0.00    -0.313 N 
ATOM      5  H1  UNL     1      48.075  26.378  12.961  1.00  0.00     0.172 HD
BRANCH   4   6
HETATM    6  C1  UNL     1      47.820  28.441  13.547  1.00  0.00     0.159 C 
BRANCH   6   7
HETATM    7  C2  UNL     1      46.855  28.593  12.398  1.00  0.00     0.202 C 
BRANCH   7   8
HETATM    8  O3  UNL     1      47.416  28.117  11.270  1.00  0.00    -0.281 OA
BRANCH   8   9
HETATM    9  P1  UNL     1      48.298  29.133  10.343  1.00  0.00     0.422 P 
HETATM   10  O4  UNL     1      48.343  28.920   8.693  1.00  0.00    -0.617 OA
HETATM   11  O5  UNL     1      49.325  30.257  10.988  1.00  0.00    -0.617 OA
HETATM   12  O6  UNL     1      47.151  30.122  10.188  1.00  0.00    -0.617 OA
ENDBRANCH   8   9
ENDBRANCH   7   8
ENDBRANCH   6   7
ENDBRANCH   4   6
ENDBRANCH   2   4
BRANCH   2  13
HETATM   13  C3  UNL     1      49.803  25.130  15.091  1.00  0.00     0.079 A 
HETATM   14  C4  UNL     1      51.084  24.831  14.712  1.00  0.00     0.028 A 
HETATM   15  C5  UNL     1      51.550  23.526  14.743  1.00  0.00     0.038 A 
HETATM   16  C6  UNL     1      50.718  22.525  15.159  1.00  0.00     0.078 A 
HETATM   17  C8  UNL     1      49.419  22.821  15.544  1.00  0.00     0.038 A 
HETATM   18  C9  UNL     1      48.947  24.117  15.516  1.00  0.00     0.028 A 
BRANCH  16  19
HETATM   19  O7  UNL     1      51.151  21.222  15.200  1.00  0.00    -0.255 OA
BRANCH  19  20
HETATM   20  C7  UNL     1      51.175  20.373  14.062  1.00  0.00     0.530 C 
HETATM   21  F1  UNL     1      50.140  20.639  13.195  1.00  0.00    -0.144 F 
HETATM   22  F2  UNL     1      51.115  19.067  14.459  1.00  0.00    -0.144 F 
HETATM   23  F3  UNL     1      52.351  20.563  13.332  1.00  0.00    -0.144 F 
ENDBRANCH  19  20
ENDBRANCH  16  19
ENDBRANCH   2  13
TORSDOF 8
ENDMDL
