MODEL 9
REMARK VINA RESULT: -8.190525077      4.493      7.791
REMARK  8 active torsions:
REMARK  status: ('A' for Active; 'I' for Inactive)
REMARK    1  A    between atoms: S1_2  and  N1_4 
REMARK    2  A    between atoms: S1_2  and  C3_13 
REMARK    3  A    between atoms: N1_4  and  C1_6 
REMARK    4  A    between atoms: C1_6  and  C2_7 
REMARK    5  A    between atoms: C2_7  and  O3_8 
REMARK    6  A    between atoms: O3_8  and  P1_9 
REMARK    7  A    between atoms: C6_16  and  O7_17 
REMARK    8  A    between atoms: O7_17  and  C7_18 
ROOT
HETATM    1  O1  UNL     1      51.065  27.861  15.984  1.00  0.00    -0.201 OA
HETATM    2  S1  UNL     1      49.847  27.164  15.449  1.00  0.00     0.258 S 
HETATM    3  O2  UNL     1      48.728  27.230  16.479  1.00  0.00    -0.201 OA
ENDROOT
BRANCH   2   4
HETATM    4  N1  UNL     1      50.123  25.520  15.110  1.00  0.00    -0.313 N 
ATOM      5  H1  UNL     1      50.965  25.184  14.641  1.00  0.00     0.172 HD
BRANCH   4   6
HETATM    6  C1  UNL     1      49.074  24.650  15.537  1.00  0.00     0.159 C 
BRANCH   6   7
HETATM    7  C2  UNL     1      49.406  23.210  15.242  1.00  0.00     0.202 C 
BRANCH   7   8
HETATM    8  O3  UNL     1      50.739  23.070  15.113  1.00  0.00    -0.281 OA
BRANCH   8   9
HETATM    9  P1  UNL     1      51.329  21.655  14.548  1.00  0.00     0.422 P 
HETATM   10  O4  UNL     1      51.229  20.282  15.484  1.00  0.00    -0.617 OA
HETATM   11  O5  UNL     1      52.214  21.556  13.154  1.00  0.00    -0.617 OA
HETATM   12  O6  UNL     1      50.020  21.287  13.861  1.00  0.00    -0.617 OA
ENDBRANCH   8   9
ENDBRANCH   7   8
ENDBRANCH   6   7
ENDBRANCH   4   6
ENDBRANCH   2   4
BRANCH   2  13
HETATM   13  C3  UNL     1      49.336  28.052  14.016  1.00  0.00     0.079 A 
HETATM   14  C4  UNL     1      48.341  27.578  13.203  1.00  0.00     0.028 A 
HETATM   15  C5  UNL     1      47.945  28.283  12.078  1.00  0.00     0.038 A 
HETATM   16  C6  UNL     1      48.557  29.467  11.776  1.00  0.00     0.078 A 
HETATM   17  C8  UNL     1      49.565  29.953  12.595  1.00  0.00     0.038 A 
HETATM   18  C9  UNL     1      49.966  29.257  13.717  1.00  0.00     0.028 A 
BRANCH  16  19
HETATM   19  O7  UNL     1      48.186  30.188  10.667  1.00  0.00    -0.255 OA
BRANCH  19  20
HETATM   20  C7  UNL     1      47.720  29.587   9.468  1.00  0.00     0.530 C 
HETATM   21  F1  UNL     1      46.383  29.268   9.534  1.00  0.00    -0.144 F 
HETATM   22  F2  UNL     1      48.446  28.461   9.202  1.00  0.00    -0.144 F 
HETATM   23  F3  UNL     1      47.855  30.468   8.392  1.00  0.00    -0.144 F 
ENDBRANCH  19  20
ENDBRANCH  16  19
ENDBRANCH   2  13
TORSDOF 8
ENDMDL
