MODEL 12
REMARK VINA RESULT: -8.111809205      4.460      7.929
REMARK  8 active torsions:
REMARK  status: ('A' for Active; 'I' for Inactive)
REMARK    1  A    between atoms: S1_2  and  N1_4 
REMARK    2  A    between atoms: S1_2  and  C3_13 
REMARK    3  A    between atoms: N1_4  and  C1_6 
REMARK    4  A    between atoms: C1_6  and  C2_7 
REMARK    5  A    between atoms: C2_7  and  O3_8 
REMARK    6  A    between atoms: O3_8  and  P1_9 
REMARK    7  A    between atoms: C6_16  and  O7_17 
REMARK    8  A    between atoms: O7_17  and  C7_18 
ROOT
HETATM    1  O1  UNL     1      51.179  27.776  15.947  1.00  0.00    -0.201 OA
HETATM    2  S1  UNL     1      49.928  27.135  15.418  1.00  0.00     0.258 S 
HETATM    3  O2  UNL     1      48.825  27.226  16.465  1.00  0.00    -0.201 OA
ENDROOT
BRANCH   2   4
HETATM    4  N1  UNL     1      50.136  25.487  15.048  1.00  0.00    -0.313 N 
ATOM      5  H1  UNL     1      50.920  25.138  14.496  1.00  0.00     0.172 HD
BRANCH   4   6
HETATM    6  C1  UNL     1      49.118  24.636  15.576  1.00  0.00     0.159 C 
BRANCH   6   7
HETATM    7  C2  UNL     1      49.570  23.198  15.600  1.00  0.00     0.202 C 
BRANCH   7   8
HETATM    8  O3  UNL     1      50.740  23.080  14.943  1.00  0.00    -0.281 OA
BRANCH   8   9
HETATM    9  P1  UNL     1      51.144  21.627  14.316  1.00  0.00     0.422 P 
HETATM   10  O4  UNL     1      52.722  21.103  14.388  1.00  0.00    -0.617 OA
HETATM   11  O5  UNL     1      50.088  20.722  13.420  1.00  0.00    -0.617 OA
HETATM   12  O6  UNL     1      50.835  20.887  15.611  1.00  0.00    -0.617 OA
ENDBRANCH   8   9
ENDBRANCH   7   8
ENDBRANCH   6   7
ENDBRANCH   4   6
ENDBRANCH   2   4
BRANCH   2  13
HETATM   13  C3  UNL     1      49.431  28.066  14.007  1.00  0.00     0.079 A 
HETATM   14  C4  UNL     1      50.030  29.256  13.693  1.00  0.00     0.028 A 
HETATM   15  C5  UNL     1      49.632  29.982  12.582  1.00  0.00     0.038 A 
HETATM   16  C6  UNL     1      48.628  29.501  11.788  1.00  0.00     0.078 A 
HETATM   17  C8  UNL     1      48.017  28.296  12.101  1.00  0.00     0.038 A 
HETATM   18  C9  UNL     1      48.406  27.568  13.205  1.00  0.00     0.028 A 
BRANCH  16  19
HETATM   19  O7  UNL     1      48.213  30.198  10.681  1.00  0.00    -0.255 OA
BRANCH  19  20
HETATM   20  C7  UNL     1      47.774  29.570   9.485  1.00  0.00     0.530 C 
HETATM   21  F1  UNL     1      48.450  28.398   9.237  1.00  0.00    -0.144 F 
HETATM   22  F2  UNL     1      47.934  30.422   8.430  1.00  0.00    -0.144 F 
HETATM   23  F3  UNL     1      46.423  29.226   9.578  1.00  0.00    -0.144 F 
ENDBRANCH  19  20
ENDBRANCH  16  19
ENDBRANCH   2  13
TORSDOF 8
ENDMDL
