MODEL 1
REMARK VINA RESULT: -9.813080013      0.000      0.000
REMARK  8 active torsions:
REMARK  status: ('A' for Active; 'I' for Inactive)
REMARK    1  A    between atoms: S1_2  and  N1_4 
REMARK    2  A    between atoms: S1_2  and  C3_13 
REMARK    3  A    between atoms: N1_4  and  C1_6 
REMARK    4  A    between atoms: C1_6  and  C2_7 
REMARK    5  A    between atoms: C2_7  and  O3_8 
REMARK    6  A    between atoms: O3_8  and  P1_9 
REMARK    7  A    between atoms: C6_16  and  O7_17 
REMARK    8  A    between atoms: O7_17  and  C7_18 
ROOT
HETATM    1  O1  UNL     1      48.396  27.010  16.330  1.00  0.00    -0.201 OA
HETATM    2  S1  UNL     1      49.177  26.792  15.066  1.00  0.00     0.258 S 
HETATM    3  O2  UNL     1      50.383  27.721  15.044  1.00  0.00    -0.201 OA
ENDROOT
BRANCH   2   4
HETATM    4  N1  UNL     1      48.267  27.112  13.665  1.00  0.00    -0.313 N 
ATOM      5  H1  UNL     1      48.073  26.405  12.956  1.00  0.00     0.172 HD
BRANCH   4   6
HETATM    6  C1  UNL     1      47.798  28.458  13.567  1.00  0.00     0.159 C 
BRANCH   6   7
HETATM    7  C2  UNL     1      46.839  28.618  12.415  1.00  0.00     0.202 C 
BRANCH   7   8
HETATM    8  O3  UNL     1      47.398  28.132  11.290  1.00  0.00    -0.281 OA
BRANCH   8   9
HETATM    9  P1  UNL     1      48.285  29.137  10.357  1.00  0.00     0.422 P 
HETATM   10  O4  UNL     1      48.328  28.916   8.708  1.00  0.00    -0.617 OA
HETATM   11  O5  UNL     1      49.320  30.258  10.996  1.00  0.00    -0.617 OA
HETATM   12  O6  UNL     1      47.145  30.133  10.199  1.00  0.00    -0.617 OA
ENDBRANCH   8   9
ENDBRANCH   7   8
ENDBRANCH   6   7
ENDBRANCH   4   6
ENDBRANCH   2   4
BRANCH   2  13
HETATM   13  C3  UNL     1      49.759  25.129  15.103  1.00  0.00     0.079 A 
HETATM   14  C4  UNL     1      48.948  24.101  15.503  1.00  0.00     0.028 A 
HETATM   15  C5  UNL     1      49.415  22.796  15.530  1.00  0.00     0.038 A 
HETATM   16  C6  UNL     1      50.701  22.533  15.151  1.00  0.00     0.078 A 
HETATM   17  C8  UNL     1      51.527  23.570  14.745  1.00  0.00     0.038 A 
HETATM   18  C9  UNL     1      51.072  24.872  14.716  1.00  0.00     0.028 A 
BRANCH  16  19
HETATM   19  O7  UNL     1      51.191  21.251  15.167  1.00  0.00    -0.255 OA
BRANCH  19  20
HETATM   20  C7  UNL     1      51.209  20.410  14.023  1.00  0.00     0.530 C 
HETATM   21  F1  UNL     1      50.166  20.676  13.167  1.00  0.00    -0.144 F 
HETATM   22  F2  UNL     1      51.161  19.101  14.410  1.00  0.00    -0.144 F 
HETATM   23  F3  UNL     1      52.378  20.611  13.283  1.00  0.00    -0.144 F 
ENDBRANCH  19  20
ENDBRANCH  16  19
ENDBRANCH   2  13
TORSDOF 8
ENDMDL
