MODEL 4
REMARK VINA RESULT: -9.724466574      0.534      1.439
REMARK  8 active torsions:
REMARK  status: ('A' for Active; 'I' for Inactive)
REMARK    1  A    between atoms: S1_2  and  N1_4 
REMARK    2  A    between atoms: S1_2  and  C3_13 
REMARK    3  A    between atoms: N1_4  and  C1_6 
REMARK    4  A    between atoms: C1_6  and  C2_7 
REMARK    5  A    between atoms: C2_7  and  O3_8 
REMARK    6  A    between atoms: O3_8  and  P1_9 
REMARK    7  A    between atoms: C6_16  and  O7_17 
REMARK    8  A    between atoms: O7_17  and  C7_18 
ROOT
HETATM    1  O1  UNL     1      48.649  26.940  16.569  1.00  0.00    -0.201 OA
HETATM    2  S1  UNL     1      49.305  26.764  15.230  1.00  0.00     0.258 S 
HETATM    3  O2  UNL     1      50.509  27.691  15.125  1.00  0.00    -0.201 OA
ENDROOT
BRANCH   2   4
HETATM    4  N1  UNL     1      48.268  27.136  13.933  1.00  0.00    -0.313 N 
ATOM      5  H1  UNL     1      47.859  26.423  13.329  1.00  0.00     0.172 HD
BRANCH   4   6
HETATM    6  C1  UNL     1      48.021  28.533  13.764  1.00  0.00     0.159 C 
BRANCH   6   7
HETATM    7  C2  UNL     1      48.510  29.013  12.422  1.00  0.00     0.202 C 
BRANCH   7   8
HETATM    8  O3  UNL     1      47.557  28.808  11.492  1.00  0.00    -0.281 OA
BRANCH   8   9
HETATM    9  P1  UNL     1      47.790  29.395   9.986  1.00  0.00     0.422 P 
HETATM   10  O4  UNL     1      47.084  30.835   9.539  1.00  0.00    -0.617 OA
HETATM   11  O5  UNL     1      48.538  28.520   8.798  1.00  0.00    -0.617 OA
HETATM   12  O6  UNL     1      49.061  30.135  10.381  1.00  0.00    -0.617 OA
ENDBRANCH   8   9
ENDBRANCH   7   8
ENDBRANCH   6   7
ENDBRANCH   4   6
ENDBRANCH   2   4
BRANCH   2  13
HETATM   13  C3  UNL     1      49.879  25.100  15.154  1.00  0.00     0.079 A 
HETATM   14  C4  UNL     1      51.160  24.806  14.770  1.00  0.00     0.028 A 
HETATM   15  C5  UNL     1      51.602  23.494  14.713  1.00  0.00     0.038 A 
HETATM   16  C6  UNL     1      50.747  22.481  15.046  1.00  0.00     0.078 A 
HETATM   17  C8  UNL     1      49.449  22.772  15.436  1.00  0.00     0.038 A 
HETATM   18  C9  UNL     1      49.000  24.075  15.495  1.00  0.00     0.028 A 
BRANCH  16  19
HETATM   19  O7  UNL     1      51.157  21.171  14.999  1.00  0.00    -0.255 OA
BRANCH  19  20
HETATM   20  C7  UNL     1      51.136  20.390  13.813  1.00  0.00     0.530 C 
HETATM   21  F1  UNL     1      50.153  20.798  12.941  1.00  0.00    -0.144 F 
HETATM   22  F2  UNL     1      50.950  19.075  14.129  1.00  0.00    -0.144 F 
HETATM   23  F3  UNL     1      52.343  20.514  13.121  1.00  0.00    -0.144 F 
ENDBRANCH  19  20
ENDBRANCH  16  19
ENDBRANCH   2  13
TORSDOF 8
ENDMDL
