MODEL 6
REMARK VINA RESULT: -5.674168208      1.312      2.010
REMARK  5 active torsions:
REMARK  status: ('A' for Active; 'I' for Inactive)
REMARK    1  A    between atoms: C1_2  and  C2_3 
REMARK    2  A    between atoms: C2_3  and  O2_4 
REMARK    3  A    between atoms: C2_3  and  C3_6 
REMARK    4  A    between atoms: C3_6  and  O3_7 
REMARK    5  A    between atoms: O3_7  and  P1_8 
ROOT
HETATM    1  C3  UNL     1      47.060  28.569  12.423  1.00  0.00     0.221 C 
ENDROOT
BRANCH   1   2
HETATM    2  C2  UNL     1      47.488  28.822  13.834  1.00  0.00     0.203 C 
BRANCH   2   3
HETATM    3  C1  UNL     1      48.957  29.062  13.835  1.00  0.00     0.264 C 
HETATM    4  O1  UNL     1      49.661  28.650  14.755  1.00  0.00    -0.304 OA
ENDBRANCH   2   3
BRANCH   2   5
HETATM    5  O2  UNL     1      47.220  27.729  14.640  1.00  0.00    -0.387 OA
ATOM      6  H2  UNL     1      47.009  28.041  15.512  1.00  0.00     0.210 HD
ENDBRANCH   2   5
ENDBRANCH   1   2
BRANCH   1   7
HETATM    7  O3  UNL     1      47.503  29.593  11.633  1.00  0.00    -0.280 OA
BRANCH   7   8
HETATM    8  P1  UNL     1      47.029  29.340  10.091  1.00  0.00     0.422 P 
HETATM    9  O4  UNL     1      48.160  29.070   8.906  1.00  0.00    -0.617 OA
HETATM   10  O5  UNL     1      45.422  29.123   9.723  1.00  0.00    -0.617 OA
HETATM   11  O6  UNL     1      46.972  30.829   9.791  1.00  0.00    -0.617 OA
ENDBRANCH   7   8
ENDBRANCH   1   7
TORSDOF 5
ENDMDL
