MODEL 5
REMARK VINA RESULT: -5.705203666      2.039      4.587
REMARK  5 active torsions:
REMARK  status: ('A' for Active; 'I' for Inactive)
REMARK    1  A    between atoms: C1_2  and  C2_3 
REMARK    2  A    between atoms: C2_3  and  O2_4 
REMARK    3  A    between atoms: C2_3  and  C3_6 
REMARK    4  A    between atoms: C3_6  and  O3_7 
REMARK    5  A    between atoms: O3_7  and  P1_8 
ROOT
HETATM    1  C3  UNL     1      46.931  29.484  10.368  1.00  0.00     0.221 C 
ENDROOT
BRANCH   1   2
HETATM    2  C2  UNL     1      47.618  30.266   9.294  1.00  0.00     0.203 C 
BRANCH   2   3
HETATM    3  C1  UNL     1      46.597  31.106   8.608  1.00  0.00     0.264 C 
HETATM    4  O1  UNL     1      46.116  32.090   9.165  1.00  0.00    -0.304 OA
ENDBRANCH   2   3
BRANCH   2   5
HETATM    5  O2  UNL     1      48.199  29.427   8.358  1.00  0.00    -0.387 OA
ATOM      6  H2  UNL     1      49.114  29.663   8.267  1.00  0.00     0.210 HD
ENDBRANCH   2   5
ENDBRANCH   1   2
BRANCH   1   7
HETATM    7  O3  UNL     1      47.728  29.457  11.479  1.00  0.00    -0.280 OA
BRANCH   7   8
HETATM    8  P1  UNL     1      47.242  28.255  12.472  1.00  0.00     0.422 P 
HETATM    9  O4  UNL     1      45.717  27.617  12.323  1.00  0.00    -0.617 OA
HETATM   10  O5  UNL     1      48.325  27.502  13.485  1.00  0.00    -0.617 OA
HETATM   11  O6  UNL     1      46.801  29.232  13.551  1.00  0.00    -0.617 OA
ENDBRANCH   7   8
ENDBRANCH   1   7
TORSDOF 5
ENDMDL
