MODEL 15
REMARK VINA RESULT: -5.167492026      2.203      4.262
REMARK  5 active torsions:
REMARK  status: ('A' for Active; 'I' for Inactive)
REMARK    1  A    between atoms: C1_2  and  C2_3 
REMARK    2  A    between atoms: C2_3  and  O2_4 
REMARK    3  A    between atoms: C2_3  and  C3_6 
REMARK    4  A    between atoms: C3_6  and  O3_7 
REMARK    5  A    between atoms: O3_7  and  P1_8 
ROOT
HETATM    1  C3  UNL     1      45.975  29.502  10.245  1.00  0.00     0.221 C 
ENDROOT
BRANCH   1   2
HETATM    2  C2  UNL     1      46.274  30.395   9.082  1.00  0.00     0.203 C 
BRANCH   2   3
HETATM    3  C1  UNL     1      47.719  30.251   8.749  1.00  0.00     0.264 C 
HETATM    4  O1  UNL     1      48.254  29.144   8.736  1.00  0.00    -0.304 OA
ENDBRANCH   2   3
BRANCH   2   5
HETATM    5  O2  UNL     1      46.024  31.720   9.391  1.00  0.00    -0.387 OA
ATOM      6  H2  UNL     1      46.233  32.252   8.633  1.00  0.00     0.210 HD
ENDBRANCH   2   5
ENDBRANCH   1   2
BRANCH   1   7
HETATM    7  O3  UNL     1      47.011  29.569  11.136  1.00  0.00    -0.280 OA
BRANCH   7   8
HETATM    8  P1  UNL     1      46.692  28.609  12.418  1.00  0.00     0.422 P 
HETATM    9  O4  UNL     1      47.411  28.913  13.884  1.00  0.00    -0.617 OA
HETATM   10  O5  UNL     1      45.487  27.467  12.343  1.00  0.00    -0.617 OA
HETATM   11  O6  UNL     1      47.766  27.609  12.023  1.00  0.00    -0.617 OA
ENDBRANCH   7   8
ENDBRANCH   1   7
TORSDOF 5
ENDMDL
