MODEL 10
REMARK VINA RESULT: -5.466245073      2.264      4.735
REMARK  5 active torsions:
REMARK  status: ('A' for Active; 'I' for Inactive)
REMARK    1  A    between atoms: C1_2  and  C2_3 
REMARK    2  A    between atoms: C2_3  and  O2_4 
REMARK    3  A    between atoms: C2_3  and  C3_6 
REMARK    4  A    between atoms: C3_6  and  O3_7 
REMARK    5  A    between atoms: O3_7  and  P1_8 
ROOT
HETATM    1  C3  UNL     1      47.944  28.958  12.001  1.00  0.00     0.221 C 
ENDROOT
BRANCH   1   2
HETATM    2  C2  UNL     1      47.059  28.753  10.812  1.00  0.00     0.203 C 
BRANCH   2   3
HETATM    3  C1  UNL     1      47.430  29.761   9.781  1.00  0.00     0.264 C 
HETATM    4  O1  UNL     1      48.123  29.447   8.815  1.00  0.00    -0.304 OA
ENDBRANCH   2   3
BRANCH   2   5
HETATM    5  O2  UNL     1      45.727  28.933  11.144  1.00  0.00    -0.387 OA
ATOM      6  H2  UNL     1      45.191  28.547  10.462  1.00  0.00     0.210 HD
ENDBRANCH   2   5
ENDBRANCH   1   2
BRANCH   1   7
HETATM    7  O3  UNL     1      47.168  29.076  13.120  1.00  0.00    -0.280 OA
BRANCH   7   8
HETATM    8  P1  UNL     1      47.918  28.364  14.384  1.00  0.00     0.422 P 
HETATM    9  O4  UNL     1      49.516  28.688  14.693  1.00  0.00    -0.617 OA
HETATM   10  O5  UNL     1      47.050  27.493  15.503  1.00  0.00    -0.617 OA
HETATM   11  O6  UNL     1      48.256  27.124  13.573  1.00  0.00    -0.617 OA
ENDBRANCH   7   8
ENDBRANCH   1   7
TORSDOF 5
ENDMDL
