MODEL 11
REMARK VINA RESULT: -5.457994357      1.646      2.470
REMARK  5 active torsions:
REMARK  status: ('A' for Active; 'I' for Inactive)
REMARK    1  A    between atoms: C1_2  and  C2_3 
REMARK    2  A    between atoms: C2_3  and  O2_4 
REMARK    3  A    between atoms: C2_3  and  C3_6 
REMARK    4  A    between atoms: C3_6  and  O3_7 
REMARK    5  A    between atoms: O3_7  and  P1_8 
ROOT
HETATM    1  C3  UNL     1      48.510  29.125  12.653  1.00  0.00     0.221 C 
ENDROOT
BRANCH   1   2
HETATM    2  C2  UNL     1      48.655  28.285  13.882  1.00  0.00     0.203 C 
BRANCH   2   3
HETATM    3  C1  UNL     1      47.379  28.359  14.645  1.00  0.00     0.264 C 
HETATM    4  O1  UNL     1      47.094  27.502  15.480  1.00  0.00    -0.304 OA
ENDBRANCH   2   3
BRANCH   2   5
HETATM    5  O2  UNL     1      49.678  28.752  14.689  1.00  0.00    -0.387 OA
ATOM      6  H2  UNL     1      50.503  28.422  14.352  1.00  0.00     0.210 HD
ENDBRANCH   2   5
ENDBRANCH   1   2
BRANCH   1   7
HETATM    7  O3  UNL     1      47.601  28.539  11.817  1.00  0.00    -0.280 OA
BRANCH   7   8
HETATM    8  P1  UNL     1      47.720  29.201  10.328  1.00  0.00     0.422 P 
HETATM    9  O4  UNL     1      48.528  28.396   9.122  1.00  0.00    -0.617 OA
HETATM   10  O5  UNL     1      46.854  30.564   9.935  1.00  0.00    -0.617 OA
HETATM   11  O6  UNL     1      48.952  30.005  10.710  1.00  0.00    -0.617 OA
ENDBRANCH   7   8
ENDBRANCH   1   7
TORSDOF 5
ENDMDL
