MODEL 4
REMARK VINA RESULT: -8.695871934      3.445      6.350
REMARK  5 active torsions:
REMARK  status: ('A' for Active; 'I' for Inactive)
REMARK    1  A    between atoms: C1_2  and  C2_6 
REMARK    2  A    between atoms: C5_9  and  C6_10 
REMARK    3  A    between atoms: N3_14  and  C9_15 
REMARK    4  A    between atoms: C9_15  and  C10_16 
REMARK    5  A    between atoms: C16_23  and  C17_24 
ROOT
HETATM    1  C6  UNL     1      16.954 -16.016  22.216  1.00  0.00     0.270 C 
HETATM    2  C7  UNL     1      15.988 -15.001  21.760  1.00  0.00     0.124 C 
HETATM    3  C8  UNL     1      16.496 -13.660  21.543  1.00  0.00     0.227 C 
HETATM    4  O1  UNL     1      17.099 -12.942  22.362  1.00  0.00    -0.273 OA
HETATM    5  N3  UNL     1      16.212 -13.232  20.220  1.00  0.00    -0.337 N 
HETATM    6  C16 UNL     1      15.541 -14.281  19.486  1.00  0.00     0.159 C 
HETATM    7  C18 UNL     1      15.502 -15.476  20.407  1.00  0.00     0.063 C 
HETATM    8  C19 UNL     1      16.581 -16.431  19.957  1.00  0.00     0.231 C 
HETATM    9  C20 UNL     1      15.984 -17.638  19.242  1.00  0.00     0.038 C 
HETATM   10  C21 UNL     1      15.573 -18.498  20.417  1.00  0.00     0.032 C 
HETATM   11  C22 UNL     1      16.683 -18.254  21.395  1.00  0.00     0.274 C 
HETATM   12  N4  UNL     1      17.219 -16.940  21.136  1.00  0.00     0.103 N 
ENDROOT
BRANCH   1  13
HETATM   13  C5  UNL     1      18.240 -15.490  22.707  1.00  0.00    -0.024 A 
HETATM   14  C4  UNL     1      19.273 -15.248  21.830  1.00  0.00     0.010 A 
HETATM   15  C3  UNL     1      20.446 -14.756  22.352  1.00  0.00     0.015 A 
HETATM   16  C2  UNL     1      20.612 -14.503  23.722  1.00  0.00     0.004 A 
HETATM   17  C24 UNL     1      19.569 -14.753  24.573  1.00  0.00     0.015 A 
HETATM   18  C23 UNL     1      18.373 -15.251  24.053  1.00  0.00     0.010 A 
BRANCH  16  19
HETATM   19  C1  UNL     1      21.896 -13.980  24.194  1.00  0.00     0.120 C 
HETATM   20  N1  UNL     1      22.043 -13.565  25.565  1.00  0.00    -0.082 NA
HETATM   21  N2  UNL     1      22.899 -13.875  23.435  1.00  0.00    -0.387 N 
ATOM     22  H22 UNL     1      23.793 -13.511  23.763  1.00  0.00     0.157 HD
ATOM     23  H21 UNL     1      22.795 -14.169  22.464  1.00  0.00     0.157 HD
ENDBRANCH  16  19
ENDBRANCH   1  13
BRANCH   5  24
HETATM   24  C9  UNL     1      16.541 -11.948  19.638  1.00  0.00     0.165 C 
BRANCH  24  25
HETATM   25  C10 UNL     1      17.755 -11.954  18.806  1.00  0.00    -0.040 A 
HETATM   26  C11 UNL     1      17.668 -11.768  17.456  1.00  0.00     0.012 A 
HETATM   27  C12 UNL     1      18.778 -11.776  16.653  1.00  0.00     0.043 A 
HETATM   28  C13 UNL     1      20.029 -11.975  17.205  1.00  0.00     0.116 A 
HETATM   29  F1  UNL     1      21.120 -11.979  16.388  1.00  0.00    -0.206 F 
HETATM   30  C14 UNL     1      20.132 -12.161  18.547  1.00  0.00     0.043 A 
HETATM   31  C15 UNL     1      19.001 -12.154  19.360  1.00  0.00     0.012 A 
ENDBRANCH  24  25
ENDBRANCH   5  24
BRANCH   6  32
HETATM   32  C17 UNL     1      14.175 -13.939  19.003  1.00  0.00     0.376 C 
HETATM   33  F2  UNL     1      14.229 -13.416  17.724  1.00  0.00    -0.212 F 
HETATM   34  F3  UNL     1      13.414 -13.222  19.874  1.00  0.00    -0.212 F 
ENDBRANCH   6  32
TORSDOF 5
ENDMDL
