MODEL 2
REMARK VINA RESULT: -8.748862436      1.856      2.619
REMARK  5 active torsions:
REMARK  status: ('A' for Active; 'I' for Inactive)
REMARK    1  A    between atoms: C1_2  and  C2_6 
REMARK    2  A    between atoms: C5_9  and  C6_10 
REMARK    3  A    between atoms: N3_14  and  C9_15 
REMARK    4  A    between atoms: C9_15  and  C10_16 
REMARK    5  A    between atoms: C16_23  and  C17_24 
ROOT
HETATM    1  C6  UNL     1      16.278 -10.942  19.683  1.00  0.00     0.270 C 
HETATM    2  C7  UNL     1      17.566 -11.371  20.256  1.00  0.00     0.124 C 
HETATM    3  C8  UNL     1      17.515 -12.170  21.465  1.00  0.00     0.227 C 
HETATM    4  O1  UNL     1      16.959 -11.875  22.539  1.00  0.00    -0.273 OA
HETATM    5  N3  UNL     1      18.210 -13.394  21.279  1.00  0.00    -0.337 N 
HETATM    6  C16 UNL     1      18.718 -13.482  19.929  1.00  0.00     0.159 C 
HETATM    7  C18 UNL     1      18.207 -12.258  19.210  1.00  0.00     0.063 C 
HETATM    8  C19 UNL     1      17.043 -12.689  18.349  1.00  0.00     0.231 C 
HETATM    9  C20 UNL     1      17.435 -12.732  16.877  1.00  0.00     0.038 C 
HETATM   10  C21 UNL     1      17.304 -11.273  16.498  1.00  0.00     0.032 C 
HETATM   11  C22 UNL     1      16.106 -10.843  17.292  1.00  0.00     0.274 C 
HETATM   12  N4  UNL     1      16.031 -11.681  18.465  1.00  0.00     0.103 N 
ENDROOT
BRANCH   1  13
HETATM   13  C5  UNL     1      15.110 -11.095  20.567  1.00  0.00    -0.024 A 
HETATM   14  C4  UNL     1      14.487 -12.317  20.693  1.00  0.00     0.010 A 
HETATM   15  C3  UNL     1      13.403 -12.392  21.535  1.00  0.00     0.015 A 
HETATM   16  C2  UNL     1      12.928 -11.283  22.251  1.00  0.00     0.004 A 
HETATM   17  C24 UNL     1      13.564 -10.079  22.108  1.00  0.00     0.015 A 
HETATM   18  C23 UNL     1      14.667  -9.992  21.255  1.00  0.00     0.010 A 
BRANCH  16  19
HETATM   19  C1  UNL     1      11.766 -11.452  23.126  1.00  0.00     0.120 C 
HETATM   20  N1  UNL     1      11.692 -10.730  24.369  1.00  0.00    -0.082 NA
HETATM   21  N2  UNL     1      10.807 -12.218  22.830  1.00  0.00    -0.387 N 
ATOM     22  H22 UNL     1       9.998 -12.336  23.439  1.00  0.00     0.157 HD
ATOM     23  H21 UNL     1      10.860 -12.729  21.949  1.00  0.00     0.157 HD
ENDBRANCH  16  19
ENDBRANCH   1  13
BRANCH   5  24
HETATM   24  C9  UNL     1      18.395 -14.440  22.262  1.00  0.00     0.165 C 
BRANCH  24  25
HETATM   25  C10 UNL     1      19.442 -14.156  23.257  1.00  0.00    -0.040 A 
HETATM   26  C11 UNL     1      20.761 -14.203  22.903  1.00  0.00     0.012 A 
HETATM   27  C12 UNL     1      21.759 -13.950  23.806  1.00  0.00     0.043 A 
HETATM   28  C13 UNL     1      21.445 -13.637  25.114  1.00  0.00     0.116 A 
HETATM   29  F1  UNL     1      22.455 -13.388  25.996  1.00  0.00    -0.206 F 
HETATM   30  C14 UNL     1      20.138 -13.585  25.481  1.00  0.00     0.043 A 
HETATM   31  C15 UNL     1      19.126 -13.844  24.561  1.00  0.00     0.012 A 
ENDBRANCH  24  25
ENDBRANCH   5  24
BRANCH   6  32
HETATM   32  C17 UNL     1      20.199 -13.583  19.817  1.00  0.00     0.376 C 
HETATM   33  F2  UNL     1      20.642 -12.962  18.663  1.00  0.00    -0.212 F 
HETATM   34  F3  UNL     1      20.714 -14.826  20.022  1.00  0.00    -0.212 F 
ENDBRANCH   6  32
TORSDOF 5
ENDMDL
