MODEL 5
REMARK VINA RESULT: -8.556223615      2.931      6.280
REMARK  5 active torsions:
REMARK  status: ('A' for Active; 'I' for Inactive)
REMARK    1  A    between atoms: C1_2  and  C2_6 
REMARK    2  A    between atoms: C5_9  and  C6_10 
REMARK    3  A    between atoms: N3_14  and  C9_15 
REMARK    4  A    between atoms: C9_15  and  C10_16 
REMARK    5  A    between atoms: C16_23  and  C17_24 
ROOT
HETATM    1  C6  UNL     1      13.279 -13.759  21.512  1.00  0.00     0.270 C 
HETATM    2  C7  UNL     1      14.744 -13.619  21.576  1.00  0.00     0.124 C 
HETATM    3  C8  UNL     1      15.510 -14.206  20.494  1.00  0.00     0.227 C 
HETATM    4  O1  UNL     1      15.485 -15.390  20.111  1.00  0.00    -0.273 OA
HETATM    5  N3  UNL     1      16.339 -13.227  19.886  1.00  0.00    -0.337 N 
HETATM    6  C16 UNL     1      16.133 -11.939  20.509  1.00  0.00     0.159 C 
HETATM    7  C18 UNL     1      15.019 -12.132  21.508  1.00  0.00     0.063 C 
HETATM    8  C19 UNL     1      13.758 -11.566  20.897  1.00  0.00     0.231 C 
HETATM    9  C20 UNL     1      13.383 -10.237  21.543  1.00  0.00     0.038 C 
HETATM   10  C21 UNL     1      12.683 -10.711  22.798  1.00  0.00     0.032 C 
HETATM   11  C22 UNL     1      11.953 -11.928  22.316  1.00  0.00     0.274 C 
HETATM   12  N4  UNL     1      12.692 -12.474  21.203  1.00  0.00     0.103 N 
ENDROOT
BRANCH   1  13
HETATM   13  C5  UNL     1      12.780 -14.747  20.538  1.00  0.00    -0.024 A 
HETATM   14  C4  UNL     1      12.512 -14.371  19.241  1.00  0.00     0.010 A 
HETATM   15  C3  UNL     1      12.050 -15.341  18.383  1.00  0.00     0.015 A 
HETATM   16  C2  UNL     1      11.850 -16.670  18.787  1.00  0.00     0.004 A 
HETATM   17  C24 UNL     1      12.124 -17.017  20.082  1.00  0.00     0.015 A 
HETATM   18  C23 UNL     1      12.595 -16.040  20.962  1.00  0.00     0.010 A 
BRANCH  16  19
HETATM   19  C1  UNL     1      11.355 -17.639  17.808  1.00  0.00     0.120 C 
HETATM   20  N1  UNL     1      11.750 -19.020  17.900  1.00  0.00    -0.082 NA
HETATM   21  N2  UNL     1      10.580 -17.308  16.867  1.00  0.00    -0.387 N 
ATOM     22  H22 UNL     1      10.235 -17.983  16.185  1.00  0.00     0.157 HD
ATOM     23  H21 UNL     1      10.301 -16.330  16.802  1.00  0.00     0.157 HD
ENDBRANCH  16  19
ENDBRANCH   1  13
BRANCH   5  24
HETATM   24  C9  UNL     1      17.261 -13.436  18.790  1.00  0.00     0.165 C 
BRANCH  24  25
HETATM   25  C10 UNL     1      16.905 -12.718  17.556  1.00  0.00    -0.040 A 
HETATM   26  C11 UNL     1      15.801 -13.084  16.839  1.00  0.00     0.012 A 
HETATM   27  C12 UNL     1      15.446 -12.440  15.683  1.00  0.00     0.043 A 
HETATM   28  C13 UNL     1      16.211 -11.390  15.213  1.00  0.00     0.116 A 
HETATM   29  F1  UNL     1      15.839 -10.763  14.061  1.00  0.00    -0.206 F 
HETATM   30  C14 UNL     1      17.311 -11.014  15.916  1.00  0.00     0.043 A 
HETATM   31  C15 UNL     1      17.670 -11.671  17.090  1.00  0.00     0.012 A 
ENDBRANCH  24  25
ENDBRANCH   5  24
BRANCH   6  32
HETATM   32  C17 UNL     1      17.336 -11.354  21.163  1.00  0.00     0.376 C 
HETATM   33  F2  UNL     1      18.186 -10.809  20.217  1.00  0.00    -0.212 F 
HETATM   34  F3  UNL     1      17.948 -12.156  22.076  1.00  0.00    -0.212 F 
ENDBRANCH   6  32
TORSDOF 5
ENDMDL
