MODEL 7
REMARK VINA RESULT: -8.470494633      3.562      6.525
REMARK  5 active torsions:
REMARK  status: ('A' for Active; 'I' for Inactive)
REMARK    1  A    between atoms: C1_2  and  C2_6 
REMARK    2  A    between atoms: C5_9  and  C6_10 
REMARK    3  A    between atoms: N3_14  and  C9_15 
REMARK    4  A    between atoms: C9_15  and  C10_16 
REMARK    5  A    between atoms: C16_23  and  C17_24 
ROOT
HETATM    1  C6  UNL     1      16.504 -15.621  20.147  1.00  0.00     0.270 C 
HETATM    2  C7  UNL     1      16.319 -14.316  19.489  1.00  0.00     0.124 C 
HETATM    3  C8  UNL     1      14.959 -13.926  19.171  1.00  0.00     0.227 C 
HETATM    4  O1  UNL     1      14.134 -14.561  18.488  1.00  0.00    -0.273 OA
HETATM    5  N3  UNL     1      14.655 -12.668  19.755  1.00  0.00    -0.337 N 
HETATM    6  C16 UNL     1      15.783 -12.185  20.520  1.00  0.00     0.159 C 
HETATM    7  C18 UNL     1      16.818 -13.282  20.477  1.00  0.00     0.063 C 
HETATM    8  C19 UNL     1      16.768 -14.005  21.801  1.00  0.00     0.231 C 
HETATM    9  C20 UNL     1      17.967 -13.644  22.670  1.00  0.00     0.038 C 
HETATM   10  C21 UNL     1      19.028 -14.558  22.096  1.00  0.00     0.032 C 
HETATM   11  C22 UNL     1      18.246 -15.799  21.787  1.00  0.00     0.274 C 
HETATM   12  N4  UNL     1      16.882 -15.407  21.526  1.00  0.00     0.103 N 
ENDROOT
BRANCH   1  13
HETATM   13  C5  UNL     1      15.334 -16.516  20.117  1.00  0.00    -0.024 A 
HETATM   14  C4  UNL     1      14.372 -16.438  21.099  1.00  0.00     0.010 A 
HETATM   15  C3  UNL     1      13.305 -17.301  21.011  1.00  0.00     0.015 A 
HETATM   16  C2  UNL     1      13.177 -18.236  19.972  1.00  0.00     0.004 A 
HETATM   17  C24 UNL     1      14.147 -18.293  19.009  1.00  0.00     0.015 A 
HETATM   18  C23 UNL     1      15.235 -17.420  19.088  1.00  0.00     0.010 A 
BRANCH  16  19
HETATM   19  C1  UNL     1      12.008 -19.118  19.956  1.00  0.00     0.120 C 
HETATM   20  N1  UNL     1      11.083 -19.065  18.855  1.00  0.00    -0.082 NA
HETATM   21  N2  UNL     1      11.773 -19.939  20.886  1.00  0.00    -0.387 N 
ATOM     22  H22 UNL     1      10.959 -20.554  20.875  1.00  0.00     0.157 HD
ATOM     23  H21 UNL     1      12.429 -19.977  21.666  1.00  0.00     0.157 HD
ENDBRANCH  16  19
ENDBRANCH   1  13
BRANCH   5  24
HETATM   24  C9  UNL     1      13.408 -11.942  19.644  1.00  0.00     0.165 C 
BRANCH  24  25
HETATM   25  C10 UNL     1      12.854 -11.492  20.931  1.00  0.00    -0.040 A 
HETATM   26  C11 UNL     1      12.638 -10.163  21.162  1.00  0.00     0.012 A 
HETATM   27  C12 UNL     1      12.130  -9.712  22.352  1.00  0.00     0.043 A 
HETATM   28  C13 UNL     1      11.821 -10.609  23.357  1.00  0.00     0.116 A 
HETATM   29  F1  UNL     1      11.316 -10.138  24.532  1.00  0.00    -0.206 F 
HETATM   30  C14 UNL     1      12.030 -11.934  23.141  1.00  0.00     0.043 A 
HETATM   31  C15 UNL     1      12.548 -12.389  21.931  1.00  0.00     0.012 A 
ENDBRANCH  24  25
ENDBRANCH   5  24
BRANCH   6  32
HETATM   32  C17 UNL     1      16.359 -10.895  20.049  1.00  0.00     0.376 C 
HETATM   33  F2  UNL     1      17.736 -10.903  20.177  1.00  0.00    -0.212 F 
HETATM   34  F3  UNL     1      15.754  -9.777  20.536  1.00  0.00    -0.212 F 
ENDBRANCH   6  32
TORSDOF 5
ENDMDL
