MODEL 18
REMARK VINA RESULT: -6.228299730      3.643      5.409
REMARK  5 active torsions:
REMARK  status: ('A' for Active; 'I' for Inactive)
REMARK    1  A    between atoms: N1_1  and  C1_5 
REMARK    2  A    between atoms: C1_5  and  C2_6 
REMARK    3  A    between atoms: C2_6  and  N2_7 
REMARK    4  A    between atoms: N2_7  and  S1_9 
REMARK    5  A    between atoms: S1_9  and  C3_12 
ROOT
HETATM    1  C3  UNL     1     -23.469  49.537  50.408  1.00  0.00     0.092 A 
HETATM    2  C4  UNL     1     -23.186  50.610  51.220  1.00  0.00     0.028 A 
HETATM    3  C5  UNL     1     -23.891  51.795  51.157  1.00  0.00     0.026 A 
HETATM    4  C6  UNL     1     -24.923  51.921  50.251  1.00  0.00     0.045 A 
HETATM    5 CL1  UNL     1     -25.831  53.415  50.156  1.00  0.00    -0.083 Cl
HETATM    6  C7  UNL     1     -25.228  50.872  49.428  1.00  0.00     0.000 A 
HETATM    7  C8  UNL     1     -26.254  51.001  48.510  1.00  0.00     0.031 A 
HETATM    8  C9  UNL     1     -26.570  49.955  47.660  1.00  0.00     0.088 A 
HETATM    9  N3  UNL     1     -25.847  48.829  47.765  1.00  0.00    -0.374 N 
ATOM     10  H3  UNL     1     -26.068  48.050  47.145  1.00  0.00     0.164 HD
HETATM   11  C10 UNL     1     -24.847  48.681  48.650  1.00  0.00     0.101 A 
HETATM   12  C11 UNL     1     -24.502  49.697  49.515  1.00  0.00     0.015 A 
ENDROOT
BRANCH   1  13
HETATM   13  S1  UNL     1     -22.565  48.070  50.599  1.00  0.00     0.259 S 
HETATM   14  O1  UNL     1     -21.467  48.302  51.623  1.00  0.00    -0.201 OA
HETATM   15  O2  UNL     1     -21.860  47.783  49.299  1.00  0.00    -0.201 OA
BRANCH  13  16
HETATM   16  N2  UNL     1     -23.462  46.731  51.144  1.00  0.00    -0.314 N 
ATOM     17  H2  UNL     1     -24.385  46.478  50.790  1.00  0.00     0.172 HD
BRANCH  16  18
HETATM   18  C2  UNL     1     -22.745  45.984  52.185  1.00  0.00     0.159 C 
BRANCH  18  19
HETATM   19  C1  UNL     1     -23.486  46.146  53.516  1.00  0.00     0.249 C 
BRANCH  19  20
HETATM   20  N1  UNL     1     -23.113  47.356  54.177  1.00  0.00    -0.078 N 
ATOM     21  H13 UNL     1     -22.296  47.221  54.772  1.00  0.00     0.274 HD
ATOM     22  H12 UNL     1     -22.720  48.032  53.522  1.00  0.00     0.274 HD
ATOM     23  H11 UNL     1     -23.895  47.751  54.699  1.00  0.00     0.274 HD
ENDBRANCH  19  20
ENDBRANCH  18  19
ENDBRANCH  16  18
ENDBRANCH  13  16
ENDBRANCH   1  13
TORSDOF 5
ENDMDL
