MODEL 8
REMARK VINA RESULT: -6.404015661      3.600      4.871
REMARK  5 active torsions:
REMARK  status: ('A' for Active; 'I' for Inactive)
REMARK    1  A    between atoms: N1_1  and  C1_5 
REMARK    2  A    between atoms: C1_5  and  C2_6 
REMARK    3  A    between atoms: C2_6  and  N2_7 
REMARK    4  A    between atoms: N2_7  and  S1_9 
REMARK    5  A    between atoms: S1_9  and  C3_12 
ROOT
HETATM    1  C3  UNL     1     -24.080  50.421  49.961  1.00  0.00     0.092 A 
HETATM    2  C4  UNL     1     -24.835  50.291  48.819  1.00  0.00     0.028 A 
HETATM    3  C5  UNL     1     -25.745  51.248  48.417  1.00  0.00     0.026 A 
HETATM    4  C6  UNL     1     -25.913  52.385  49.180  1.00  0.00     0.045 A 
HETATM    5 CL1  UNL     1     -27.061  53.612  48.687  1.00  0.00    -0.083 Cl
HETATM    6  C7  UNL     1     -25.178  52.543  50.322  1.00  0.00     0.000 A 
HETATM    7  C8  UNL     1     -25.354  53.677  51.095  1.00  0.00     0.031 A 
HETATM    8  C9  UNL     1     -24.629  53.850  52.262  1.00  0.00     0.088 A 
HETATM    9  N3  UNL     1     -23.762  52.884  52.603  1.00  0.00    -0.374 N 
ATOM     10  H3  UNL     1     -23.221  52.998  53.460  1.00  0.00     0.164 HD
HETATM   11  C10 UNL     1     -23.573  51.776  51.868  1.00  0.00     0.101 A 
HETATM   12  C11 UNL     1     -24.274  51.566  50.699  1.00  0.00     0.015 A 
ENDROOT
BRANCH   1  13
HETATM   13  S1  UNL     1     -22.922  49.193  50.355  1.00  0.00     0.259 S 
HETATM   14  O1  UNL     1     -21.533  49.704  50.010  1.00  0.00    -0.201 OA
HETATM   15  O2  UNL     1     -23.163  48.016  49.447  1.00  0.00    -0.201 OA
BRANCH  13  16
HETATM   16  N2  UNL     1     -22.879  48.735  51.993  1.00  0.00    -0.314 N 
ATOM     17  H2  UNL     1     -23.292  49.279  52.750  1.00  0.00     0.172 HD
BRANCH  16  18
HETATM   18  C2  UNL     1     -22.174  47.461  52.181  1.00  0.00     0.159 C 
BRANCH  18  19
HETATM   19  C1  UNL     1     -22.975  46.585  53.150  1.00  0.00     0.249 C 
BRANCH  19  20
HETATM   20  N1  UNL     1     -23.033  47.168  54.452  1.00  0.00    -0.078 N 
ATOM     21  H13 UNL     1     -22.112  47.202  54.888  1.00  0.00     0.274 HD
ATOM     22  H12 UNL     1     -23.222  48.169  54.405  1.00  0.00     0.274 HD
ATOM     23  H11 UNL     1     -23.710  46.687  55.045  1.00  0.00     0.274 HD
ENDBRANCH  19  20
ENDBRANCH  18  19
ENDBRANCH  16  18
ENDBRANCH  13  16
ENDBRANCH   1  13
TORSDOF 5
ENDMDL
