MODEL 6
REMARK VINA RESULT: -6.412246735      1.971      3.361
REMARK  5 active torsions:
REMARK  status: ('A' for Active; 'I' for Inactive)
REMARK    1  A    between atoms: N1_1  and  C1_5 
REMARK    2  A    between atoms: C1_5  and  C2_6 
REMARK    3  A    between atoms: C2_6  and  N2_7 
REMARK    4  A    between atoms: N2_7  and  S1_9 
REMARK    5  A    between atoms: S1_9  and  C3_12 
ROOT
HETATM    1  C3  UNL     1     -24.534  50.838  50.165  1.00  0.00     0.092 A 
HETATM    2  C4  UNL     1     -23.757  50.756  51.297  1.00  0.00     0.028 A 
HETATM    3  C5  UNL     1     -23.587  51.820  52.159  1.00  0.00     0.026 A 
HETATM    4  C6  UNL     1     -24.216  53.018  51.889  1.00  0.00     0.045 A 
HETATM    5 CL1  UNL     1     -24.014  54.379  52.972  1.00  0.00    -0.083 Cl
HETATM    6  C7  UNL     1     -24.995  53.131  50.771  1.00  0.00     0.000 A 
HETATM    7  C8  UNL     1     -25.616  54.336  50.492  1.00  0.00     0.031 A 
HETATM    8  C9  UNL     1     -26.398  54.474  49.358  1.00  0.00     0.088 A 
HETATM    9  N3  UNL     1     -26.523  53.407  48.556  1.00  0.00    -0.374 N 
ATOM     10  H3  UNL     1     -27.096  53.494  47.716  1.00  0.00     0.164 HD
HETATM   11  C10 UNL     1     -25.931  52.228  48.807  1.00  0.00     0.101 A 
HETATM   12  C11 UNL     1     -25.145  52.047  49.925  1.00  0.00     0.015 A 
ENDROOT
BRANCH   1  13
HETATM   13  S1  UNL     1     -24.735  49.432  49.172  1.00  0.00     0.259 S 
HETATM   14  O1  UNL     1     -26.215  49.097  49.091  1.00  0.00    -0.201 OA
HETATM   15  O2  UNL     1     -24.089  48.267  49.876  1.00  0.00    -0.201 OA
BRANCH  13  16
HETATM   16  N2  UNL     1     -24.184  49.590  47.570  1.00  0.00    -0.314 N 
ATOM     17  H2  UNL     1     -23.403  50.183  47.290  1.00  0.00     0.172 HD
BRANCH  16  18
HETATM   18  C2  UNL     1     -24.972  48.769  46.642  1.00  0.00     0.159 C 
BRANCH  18  19
HETATM   19  C1  UNL     1     -25.732  49.689  45.683  1.00  0.00     0.249 C 
BRANCH  19  20
HETATM   20  N1  UNL     1     -27.036  49.996  46.179  1.00  0.00    -0.078 N 
ATOM     21  H13 UNL     1     -27.092  50.956  46.516  1.00  0.00     0.274 HD
ATOM     22  H12 UNL     1     -27.719  50.054  45.423  1.00  0.00     0.274 HD
ATOM     23  H11 UNL     1     -27.328  49.330  46.895  1.00  0.00     0.274 HD
ENDBRANCH  19  20
ENDBRANCH  18  19
ENDBRANCH  16  18
ENDBRANCH  13  16
ENDBRANCH   1  13
TORSDOF 5
ENDMDL
