MODEL 20
REMARK VINA RESULT: -6.211909876      2.534      3.511
REMARK  5 active torsions:
REMARK  status: ('A' for Active; 'I' for Inactive)
REMARK    1  A    between atoms: N1_1  and  C1_5 
REMARK    2  A    between atoms: C1_5  and  C2_6 
REMARK    3  A    between atoms: C2_6  and  N2_7 
REMARK    4  A    between atoms: N2_7  and  S1_9 
REMARK    5  A    between atoms: S1_9  and  C3_12 
ROOT
HETATM    1  C3  UNL     1     -24.950  51.497  49.910  1.00  0.00     0.092 A 
HETATM    2  C4  UNL     1     -24.276  50.599  50.705  1.00  0.00     0.028 A 
HETATM    3  C5  UNL     1     -23.722  50.952  51.919  1.00  0.00     0.026 A 
HETATM    4  C6  UNL     1     -23.841  52.252  52.365  1.00  0.00     0.045 A 
HETATM    5 CL1  UNL     1     -23.147  52.720  53.903  1.00  0.00    -0.083 Cl
HETATM    6  C7  UNL     1     -24.505  53.168  51.597  1.00  0.00     0.000 A 
HETATM    7  C8  UNL     1     -24.615  54.475  52.038  1.00  0.00     0.031 A 
HETATM    8  C9  UNL     1     -25.271  55.421  51.268  1.00  0.00     0.088 A 
HETATM    9  N3  UNL     1     -25.786  55.020  50.096  1.00  0.00    -0.374 N 
ATOM     10  H3  UNL     1     -26.272  55.705  49.519  1.00  0.00     0.164 HD
HETATM   11  C10 UNL     1     -25.692  53.757  49.649  1.00  0.00     0.101 A 
HETATM   12  C11 UNL     1     -25.049  52.784  50.385  1.00  0.00     0.015 A 
ENDROOT
BRANCH   1  13
HETATM   13  S1  UNL     1     -25.661  50.948  48.428  1.00  0.00     0.259 S 
HETATM   14  O1  UNL     1     -26.709  49.896  48.750  1.00  0.00    -0.201 OA
HETATM   15  O2  UNL     1     -24.597  50.235  47.635  1.00  0.00    -0.201 OA
BRANCH  13  16
HETATM   16  N2  UNL     1     -26.442  52.148  47.510  1.00  0.00    -0.314 N 
ATOM     17  H2  UNL     1     -26.996  52.905  47.910  1.00  0.00     0.172 HD
BRANCH  16  18
HETATM   18  C2  UNL     1     -26.221  51.959  46.070  1.00  0.00     0.159 C 
BRANCH  18  19
HETATM   19  C1  UNL     1     -27.357  51.107  45.497  1.00  0.00     0.249 C 
BRANCH  19  20
HETATM   20  N1  UNL     1     -27.056  49.714  45.582  1.00  0.00    -0.078 N 
ATOM     21  H13 UNL     1     -27.743  49.152  45.079  1.00  0.00     0.274 HD
ATOM     22  H12 UNL     1     -26.229  49.476  45.035  1.00  0.00     0.274 HD
ATOM     23  H11 UNL     1     -26.963  49.411  46.552  1.00  0.00     0.274 HD
ENDBRANCH  19  20
ENDBRANCH  18  19
ENDBRANCH  16  18
ENDBRANCH  13  16
ENDBRANCH   1  13
TORSDOF 5
ENDMDL
