MODEL 9
REMARK VINA RESULT: -6.393435522      3.461      5.429
REMARK  5 active torsions:
REMARK  status: ('A' for Active; 'I' for Inactive)
REMARK    1  A    between atoms: N1_1  and  C1_5 
REMARK    2  A    between atoms: C1_5  and  C2_6 
REMARK    3  A    between atoms: C2_6  and  N2_7 
REMARK    4  A    between atoms: N2_7  and  S1_9 
REMARK    5  A    between atoms: S1_9  and  C3_12 
ROOT
HETATM    1  C3  UNL     1     -25.832  52.619  49.570  1.00  0.00     0.092 A 
HETATM    2  C4  UNL     1     -26.377  53.575  48.745  1.00  0.00     0.028 A 
HETATM    3  C5  UNL     1     -26.767  53.304  47.450  1.00  0.00     0.026 A 
HETATM    4  C6  UNL     1     -26.611  52.027  46.949  1.00  0.00     0.045 A 
HETATM    5 CL1  UNL     1     -27.101  51.662  45.308  1.00  0.00    -0.083 Cl
HETATM    6  C7  UNL     1     -26.072  51.054  47.745  1.00  0.00     0.000 A 
HETATM    7  C8  UNL     1     -25.904  49.777  47.240  1.00  0.00     0.031 A 
HETATM    8  C9  UNL     1     -25.348  48.781  48.025  1.00  0.00     0.088 A 
HETATM    9  N3  UNL     1     -24.985  49.106  49.275  1.00  0.00    -0.374 N 
ATOM     10  H3  UNL     1     -24.574  48.383  49.865  1.00  0.00     0.164 HD
HETATM   11  C10 UNL     1     -25.139  50.338  49.786  1.00  0.00     0.101 A 
HETATM   12  C11 UNL     1     -25.690  51.358  49.039  1.00  0.00     0.015 A 
ENDROOT
BRANCH   1  13
HETATM   13  S1  UNL     1     -25.425  53.040  51.202  1.00  0.00     0.259 S 
HETATM   14  O1  UNL     1     -26.412  52.366  52.141  1.00  0.00    -0.201 OA
HETATM   15  O2  UNL     1     -25.646  54.521  51.371  1.00  0.00    -0.201 OA
BRANCH  13  16
HETATM   16  N2  UNL     1     -23.872  52.567  51.707  1.00  0.00    -0.314 N 
ATOM     17  H2  UNL     1     -23.018  52.749  51.179  1.00  0.00     0.172 HD
BRANCH  16  18
HETATM   18  C2  UNL     1     -23.911  51.863  52.996  1.00  0.00     0.159 C 
BRANCH  18  19
HETATM   19  C1  UNL     1     -23.794  52.888  54.128  1.00  0.00     0.249 C 
BRANCH  19  20
HETATM   20  N1  UNL     1     -23.108  52.342  55.256  1.00  0.00    -0.078 N 
ATOM     21  H13 UNL     1     -23.748  52.153  56.027  1.00  0.00     0.274 HD
ATOM     22  H12 UNL     1     -22.794  51.388  55.076  1.00  0.00     0.274 HD
ATOM     23  H11 UNL     1     -22.336  52.941  55.549  1.00  0.00     0.274 HD
ENDBRANCH  19  20
ENDBRANCH  18  19
ENDBRANCH  16  18
ENDBRANCH  13  16
ENDBRANCH   1  13
TORSDOF 5
ENDMDL
