MODEL 5
REMARK VINA RESULT: -6.430755393      1.963      3.209
REMARK  5 active torsions:
REMARK  status: ('A' for Active; 'I' for Inactive)
REMARK    1  A    between atoms: N1_1  and  C1_5 
REMARK    2  A    between atoms: C1_5  and  C2_6 
REMARK    3  A    between atoms: C2_6  and  N2_7 
REMARK    4  A    between atoms: N2_7  and  S1_9 
REMARK    5  A    between atoms: S1_9  and  C3_12 
ROOT
HETATM    1  C3  UNL     1     -24.411  50.819  50.211  1.00  0.00     0.092 A 
HETATM    2  C4  UNL     1     -23.656  50.774  51.360  1.00  0.00     0.028 A 
HETATM    3  C5  UNL     1     -23.538  51.851  52.214  1.00  0.00     0.026 A 
HETATM    4  C6  UNL     1     -24.199  53.025  51.919  1.00  0.00     0.045 A 
HETATM    5 CL1  UNL     1     -24.065  54.403  52.991  1.00  0.00    -0.083 Cl
HETATM    6  C7  UNL     1     -24.958  53.102  50.784  1.00  0.00     0.000 A 
HETATM    7  C8  UNL     1     -25.612  54.283  50.480  1.00  0.00     0.031 A 
HETATM    8  C9  UNL     1     -26.374  54.385  49.328  1.00  0.00     0.088 A 
HETATM    9  N3  UNL     1     -26.448  53.306  48.535  1.00  0.00    -0.374 N 
ATOM     10  H3  UNL     1     -27.005  53.366  47.683  1.00  0.00     0.164 HD
HETATM   11  C10 UNL     1     -25.823  52.149  48.810  1.00  0.00     0.101 A 
HETATM   12  C11 UNL     1     -25.055  52.005  49.946  1.00  0.00     0.015 A 
ENDROOT
BRANCH   1  13
HETATM   13  S1  UNL     1     -24.545  49.397  49.229  1.00  0.00     0.259 S 
HETATM   14  O1  UNL     1     -26.010  49.006  49.133  1.00  0.00    -0.201 OA
HETATM   15  O2  UNL     1     -23.865  48.264  49.953  1.00  0.00    -0.201 OA
BRANCH  13  16
HETATM   16  N2  UNL     1     -23.980  49.562  47.633  1.00  0.00    -0.314 N 
ATOM     17  H2  UNL     1     -24.368  50.216  46.953  1.00  0.00     0.172 HD
BRANCH  16  18
HETATM   18  C2  UNL     1     -22.864  48.649  47.356  1.00  0.00     0.159 C 
BRANCH  18  19
HETATM   19  C1  UNL     1     -23.353  47.526  46.436  1.00  0.00     0.249 C 
BRANCH  19  20
HETATM   20  N1  UNL     1     -22.384  47.213  45.435  1.00  0.00    -0.078 N 
ATOM     21  H13 UNL     1     -21.671  47.939  45.365  1.00  0.00     0.274 HD
ATOM     22  H12 UNL     1     -21.790  46.435  45.721  1.00  0.00     0.274 HD
ATOM     23  H11 UNL     1     -22.825  47.035  44.532  1.00  0.00     0.274 HD
ENDBRANCH  19  20
ENDBRANCH  18  19
ENDBRANCH  16  18
ENDBRANCH  13  16
ENDBRANCH   1  13
TORSDOF 5
ENDMDL
