MODEL 14
REMARK VINA RESULT: -6.263143851      1.609      2.110
REMARK  4 active torsions:
REMARK  status: ('A' for Active; 'I' for Inactive)
REMARK    1  A    between atoms: C1_2  and  C2_4 
REMARK    2  A    between atoms: C2_4  and  O3_5 
REMARK    3  A    between atoms: C2_4  and  C3_7 
REMARK    4  A    between atoms: C3_7  and  C4_8 
ROOT
HETATM    1  C3  UNL     1      -1.320  29.650  -8.346  1.00  0.00     0.081 C 
ENDROOT
BRANCH   1   2
HETATM    2  C2  UNL     1      -2.378  29.750  -7.254  1.00  0.00     0.223 C 
BRANCH   2   3
HETATM    3  C1  UNL     1      -1.728  29.503  -5.946  1.00  0.00     0.203 C 
HETATM    4  O1  UNL     1      -2.161  28.603  -5.184  1.00  0.00    -0.646 OA
HETATM    5  O2  UNL     1      -0.636  30.252  -5.530  1.00  0.00    -0.646 OA
ENDBRANCH   2   3
BRANCH   2   6
HETATM    6  O3  UNL     1      -2.987  31.001  -7.238  1.00  0.00    -0.385 OA
ATOM      7  H3  UNL     1      -2.747  31.479  -8.023  1.00  0.00     0.210 HD
ENDBRANCH   2   6
ENDBRANCH   1   2
BRANCH   1   8
HETATM    8  C4  UNL     1      -1.906  29.811  -9.686  1.00  0.00    -0.055 A 
HETATM    9  C5  UNL     1      -1.297  30.556 -10.672  1.00  0.00     0.007 A 
HETATM   10  C6  UNL     1      -1.893  30.674 -11.914  1.00  0.00     0.001 A 
HETATM   11  C7  UNL     1      -3.103  30.049 -12.182  1.00  0.00     0.000 A 
HETATM   12  C8  UNL     1      -3.731  29.295 -11.199  1.00  0.00     0.001 A 
HETATM   13  C9  UNL     1      -3.118  29.190  -9.968  1.00  0.00     0.007 A 
ENDBRANCH   1   8
TORSDOF 4
ENDMDL
