MODEL 1
REMARK VINA RESULT: -6.817021856      0.000      0.000
REMARK  4 active torsions:
REMARK  status: ('A' for Active; 'I' for Inactive)
REMARK    1  A    between atoms: C1_2  and  C2_4 
REMARK    2  A    between atoms: C2_4  and  O3_5 
REMARK    3  A    between atoms: C2_4  and  C3_7 
REMARK    4  A    between atoms: C3_7  and  C4_8 
ROOT
HETATM    1  C3  UNL     1      -1.793  31.104 -10.138  1.00  0.00     0.081 C 
ENDROOT
BRANCH   1   2
HETATM    2  C2  UNL     1      -2.306  30.355  -8.914  1.00  0.00     0.223 C 
BRANCH   2   3
HETATM    3  C1  UNL     1      -1.182  29.586  -8.329  1.00  0.00     0.203 C 
HETATM    4  O1  UNL     1      -0.849  28.480  -8.821  1.00  0.00    -0.646 OA
HETATM    5  O2  UNL     1      -0.477  30.061  -7.233  1.00  0.00    -0.646 OA
ENDBRANCH   2   3
BRANCH   2   6
HETATM    6  O3  UNL     1      -2.820  31.223  -7.956  1.00  0.00    -0.385 OA
ATOM      7  H3  UNL     1      -2.849  32.103  -8.311  1.00  0.00     0.210 HD
ENDBRANCH   2   6
ENDBRANCH   1   2
BRANCH   1   8
HETATM    8  C4  UNL     1      -1.985  30.323 -11.371  1.00  0.00    -0.055 A 
HETATM    9  C5  UNL     1      -0.966  30.109 -12.274  1.00  0.00     0.007 A 
HETATM   10  C6  UNL     1      -1.203  29.367 -13.416  1.00  0.00     0.001 A 
HETATM   11  C7  UNL     1      -2.459  28.834 -13.668  1.00  0.00     0.000 A 
HETATM   12  C8  UNL     1      -3.498  29.041 -12.769  1.00  0.00     0.001 A 
HETATM   13  C9  UNL     1      -3.239  29.783 -11.635  1.00  0.00     0.007 A 
ENDBRANCH   1   8
TORSDOF 4
ENDMDL
