MODEL 9
REMARK VINA RESULT: -6.405028990      1.236      2.378
REMARK  4 active torsions:
REMARK  status: ('A' for Active; 'I' for Inactive)
REMARK    1  A    between atoms: C1_2  and  C2_4 
REMARK    2  A    between atoms: C2_4  and  O3_5 
REMARK    3  A    between atoms: C2_4  and  C3_7 
REMARK    4  A    between atoms: C3_7  and  C4_8 
ROOT
HETATM    1  C3  UNL     1      -2.333  30.443  -8.790  1.00  0.00     0.081 C 
ENDROOT
BRANCH   1   2
HETATM    2  C2  UNL     1      -1.220  29.653  -8.111  1.00  0.00     0.223 C 
BRANCH   2   3
HETATM    3  C1  UNL     1      -1.624  29.383  -6.711  1.00  0.00     0.203 C 
HETATM    4  O1  UNL     1      -1.002  29.916  -5.759  1.00  0.00    -0.646 OA
HETATM    5  O2  UNL     1      -2.686  28.540  -6.416  1.00  0.00    -0.646 OA
ENDBRANCH   2   3
BRANCH   2   6
HETATM    6  O3  UNL     1      -0.971  28.449  -8.761  1.00  0.00    -0.385 OA
ATOM      7  H3  UNL     1      -1.795  28.051  -9.016  1.00  0.00     0.210 HD
ENDBRANCH   2   6
ENDBRANCH   1   2
BRANCH   1   8
HETATM    8  C4  UNL     1      -2.418  30.134 -10.227  1.00  0.00    -0.055 A 
HETATM    9  C5  UNL     1      -3.470  29.428 -10.768  1.00  0.00     0.007 A 
HETATM   10  C6  UNL     1      -3.499  29.167 -12.125  1.00  0.00     0.001 A 
HETATM   11  C7  UNL     1      -2.477  29.607 -12.954  1.00  0.00     0.000 A 
HETATM   12  C8  UNL     1      -1.408  30.320 -12.425  1.00  0.00     0.001 A 
HETATM   13  C9  UNL     1      -1.401  30.570 -11.068  1.00  0.00     0.007 A 
ENDBRANCH   1   8
TORSDOF 4
ENDMDL
