MODEL 2
REMARK VINA RESULT: -6.798993545      0.079      1.384
REMARK  4 active torsions:
REMARK  status: ('A' for Active; 'I' for Inactive)
REMARK    1  A    between atoms: C1_2  and  C2_4 
REMARK    2  A    between atoms: C2_4  and  O3_5 
REMARK    3  A    between atoms: C2_4  and  C3_7 
REMARK    4  A    between atoms: C3_7  and  C4_8 
ROOT
HETATM    1  C3  UNL     1      -1.831  31.081 -10.124  1.00  0.00     0.081 C 
ENDROOT
BRANCH   1   2
HETATM    2  C2  UNL     1      -2.319  30.328  -8.892  1.00  0.00     0.223 C 
BRANCH   2   3
HETATM    3  C1  UNL     1      -1.179  29.575  -8.319  1.00  0.00     0.203 C 
HETATM    4  O1  UNL     1      -0.844  28.467  -8.807  1.00  0.00    -0.646 OA
HETATM    5  O2  UNL     1      -0.460  30.065  -7.239  1.00  0.00    -0.646 OA
ENDBRANCH   2   3
BRANCH   2   6
HETATM    6  O3  UNL     1      -2.832  31.192  -7.929  1.00  0.00    -0.385 OA
ATOM      7  H3  UNL     1      -3.536  31.705  -8.308  1.00  0.00     0.210 HD
ENDBRANCH   2   6
ENDBRANCH   1   2
BRANCH   1   8
HETATM    8  C4  UNL     1      -2.037  30.300 -11.354  1.00  0.00    -0.055 A 
HETATM    9  C5  UNL     1      -3.247  29.719 -11.663  1.00  0.00     0.007 A 
HETATM   10  C6  UNL     1      -3.385  28.995 -12.833  1.00  0.00     0.001 A 
HETATM   11  C7  UNL     1      -2.315  28.846 -13.705  1.00  0.00     0.000 A 
HETATM   12  C8  UNL     1      -1.088  29.425 -13.408  1.00  0.00     0.001 A 
HETATM   13  C9  UNL     1      -0.973  30.142 -12.236  1.00  0.00     0.007 A 
ENDBRANCH   1   8
TORSDOF 4
ENDMDL
