MODEL 5
REMARK VINA RESULT: -6.461327825      2.975      4.764
REMARK  4 active torsions:
REMARK  status: ('A' for Active; 'I' for Inactive)
REMARK    1  A    between atoms: C1_2  and  C2_4 
REMARK    2  A    between atoms: C2_4  and  O3_5 
REMARK    3  A    between atoms: C2_4  and  C3_7 
REMARK    4  A    between atoms: C3_7  and  C4_8 
ROOT
HETATM    1  C3  UNL     1      -1.975  29.660 -12.787  1.00  0.00     0.081 C 
ENDROOT
BRANCH   1   2
HETATM    2  C2  UNL     1      -3.110  28.701 -13.128  1.00  0.00     0.223 C 
BRANCH   2   3
HETATM    3  C1  UNL     1      -2.622  27.739 -14.143  1.00  0.00     0.203 C 
HETATM    4  O1  UNL     1      -1.946  28.141 -15.123  1.00  0.00    -0.646 OA
HETATM    5  O2  UNL     1      -2.897  26.383 -14.043  1.00  0.00    -0.646 OA
ENDBRANCH   2   3
BRANCH   2   6
HETATM    6  O3  UNL     1      -3.552  28.006 -12.007  1.00  0.00    -0.385 OA
ATOM      7  H3  UNL     1      -4.050  27.246 -12.283  1.00  0.00     0.210 HD
ENDBRANCH   2   6
ENDBRANCH   1   2
BRANCH   1   8
HETATM    8  C4  UNL     1      -2.154  30.259 -11.454  1.00  0.00    -0.055 A 
HETATM    9  C5  UNL     1      -1.296  29.999 -10.409  1.00  0.00     0.007 A 
HETATM   10  C6  UNL     1      -1.511  30.590  -9.177  1.00  0.00     0.001 A 
HETATM   11  C7  UNL     1      -2.586  31.446  -8.980  1.00  0.00     0.000 A 
HETATM   12  C8  UNL     1      -3.461  31.719 -10.023  1.00  0.00     0.001 A 
HETATM   13  C9  UNL     1      -3.227  31.119 -11.243  1.00  0.00     0.007 A 
ENDBRANCH   1   8
TORSDOF 4
ENDMDL
