MODEL 4
REMARK VINA RESULT: -6.474801798      3.170      4.934
REMARK  4 active torsions:
REMARK  status: ('A' for Active; 'I' for Inactive)
REMARK    1  A    between atoms: C1_2  and  C2_4 
REMARK    2  A    between atoms: C2_4  and  O3_5 
REMARK    3  A    between atoms: C2_4  and  C3_7 
REMARK    4  A    between atoms: C3_7  and  C4_8 
ROOT
HETATM    1  C3  UNL     1      -3.453  29.342 -13.289  1.00  0.00     0.081 C 
ENDROOT
BRANCH   1   2
HETATM    2  C2  UNL     1      -2.507  28.183 -13.579  1.00  0.00     0.223 C 
BRANCH   2   3
HETATM    3  C1  UNL     1      -3.214  26.915 -13.286  1.00  0.00     0.203 C 
HETATM    4  O1  UNL     1      -3.378  26.058 -14.190  1.00  0.00    -0.646 OA
HETATM    5  O2  UNL     1      -3.712  26.642 -12.020  1.00  0.00    -0.646 OA
ENDBRANCH   2   3
BRANCH   2   6
HETATM    6  O3  UNL     1      -2.085  28.181 -14.905  1.00  0.00    -0.385 OA
ATOM      7  H3  UNL     1      -1.235  28.600 -14.966  1.00  0.00     0.210 HD
ENDBRANCH   2   6
ENDBRANCH   1   2
BRANCH   1   8
HETATM    8  C4  UNL     1      -3.033  30.100 -12.099  1.00  0.00    -0.055 A 
HETATM    9  C5  UNL     1      -3.912  30.438 -11.093  1.00  0.00     0.007 A 
HETATM   10  C6  UNL     1      -3.462  31.151  -9.997  1.00  0.00     0.001 A 
HETATM   11  C7  UNL     1      -2.131  31.534  -9.897  1.00  0.00     0.000 A 
HETATM   12  C8  UNL     1      -1.233  31.201 -10.902  1.00  0.00     0.001 A 
HETATM   13  C9  UNL     1      -1.703  30.489 -11.986  1.00  0.00     0.007 A 
ENDBRANCH   1   8
TORSDOF 4
ENDMDL
