MODEL 2
REMARK VINA RESULT: -8.445154222      0.155      1.025
REMARK  9 active torsions:
REMARK  status: ('A' for Active; 'I' for Inactive)
REMARK    1  A    between atoms: C4_9  and  C5_10 
REMARK    2  A    between atoms: C5_10  and  N4_11 
REMARK    3  A    between atoms: N4_11  and  C6_13 
REMARK    4  A    between atoms: C9_16  and  C10_17 
REMARK       I    between atoms: C10_17  and  N5_19 
REMARK    5  A    between atoms: N5_19  and  C11_21 
REMARK    6  A    between atoms: C11_21  and  C12_22 
REMARK    7  A    between atoms: C11_21  and  C15_27 
REMARK    8  A    between atoms: C12_22  and  C13_23 
REMARK    9  A    between atoms: C13_23  and  C14_24 
ROOT
HETATM    1  C6  UNL     1      27.949   2.818   7.078  1.00  0.00     0.028 A 
HETATM    2  C7  UNL     1      28.418   2.571   5.786  1.00  0.00     0.030 A 
HETATM    3  C8  UNL     1      29.399   3.394   5.268  1.00  0.00     0.019 A 
HETATM    4  C9  UNL     1      29.911   4.441   6.002  1.00  0.00     0.032 A 
HETATM    5  C16 UNL     1      29.450   4.688   7.283  1.00  0.00     0.019 A 
HETATM    6  C17 UNL     1      28.474   3.871   7.801  1.00  0.00     0.030 A 
ENDROOT
BRANCH   1   7
HETATM    7  N4  UNL     1      26.916   2.001   7.594  1.00  0.00    -0.384 N 
ATOM      8  H4  UNL     1      26.388   2.297   8.414  1.00  0.00     0.160 HD
BRANCH   7   9
HETATM    9  C5  UNL     1      26.615   0.749   6.953  1.00  0.00     0.178 C 
BRANCH   9  10
HETATM   10  C4  UNL     1      27.150  -0.386   7.788  1.00  0.00     0.043 A 
HETATM   11  C3  UNL     1      27.318  -1.656   7.278  1.00  0.00     0.116 A 
HETATM   12  N3  UNL     1      27.797  -2.653   8.053  1.00  0.00    -0.348 N 
HETATM   13  C2  UNL     1      28.129  -2.461   9.341  1.00  0.00     0.140 A 
ATOM     14  H3  UNL     1      27.910  -3.582   7.647  1.00  0.00     0.167 HD
HETATM   15  N2  UNL     1      28.606  -3.459  10.112  1.00  0.00    -0.314 N 
HETATM   16  C18 UNL     1      27.962  -1.191   9.856  1.00  0.00     0.146 A 
HETATM   17  C1  UNL     1      28.939  -3.276  11.402  1.00  0.00     0.196 A 
ATOM     18  H2  UNL     1      28.719  -4.387   9.702  1.00  0.00     0.170 HD
HETATM   19  N1  UNL     1      29.446  -4.355  12.199  1.00  0.00    -0.063 NA
HETATM   20  N7  UNL     1      28.779  -2.043  11.908  1.00  0.00    -0.295 N 
HETATM   21  C19 UNL     1      28.305  -1.007  11.178  1.00  0.00     0.278 A 
ATOM     22  H7  UNL     1      29.025  -1.880  12.885  1.00  0.00     0.171 HD
HETATM   23  O6  UNL     1      28.162   0.135  11.663  1.00  0.00    -0.265 OA
HETATM   24  N6  UNL     1      27.482  -0.193   9.077  1.00  0.00    -0.350 N 
ATOM     25  H6  UNL     1      27.369   0.737   9.481  1.00  0.00     0.166 HD
ENDBRANCH   9  10
ENDBRANCH   7   9
ENDBRANCH   1   7
BRANCH   4  26
HETATM   26  C10 UNL     1      30.928   5.354   5.506  1.00  0.00     0.252 C 
HETATM   27  O1  UNL     1      31.865   4.967   4.750  1.00  0.00    -0.268 OA
HETATM   28  N5  UNL     1      30.924   6.725   5.845  1.00  0.00    -0.342 N 
ATOM     29  H5  UNL     1      30.190   7.103   6.443  1.00  0.00     0.163 HD
BRANCH  28  30
HETATM   30  C11 UNL     1      31.998   7.618   5.322  1.00  0.00     0.186 C 
BRANCH  30  31
HETATM   31  C12 UNL     1      31.254   8.731   4.658  1.00  0.00     0.046 C 
BRANCH  31  32
HETATM   32  C13 UNL     1      30.420   8.370   3.493  1.00  0.00     0.116 C 
BRANCH  32  33
HETATM   33  C14 UNL     1      29.185   9.126   3.267  1.00  0.00     0.172 C 
HETATM   34  O2  UNL     1      28.032   8.650   3.568  1.00  0.00    -0.648 OA
HETATM   35  O3  UNL     1      29.221  10.403   2.713  1.00  0.00    -0.648 OA
ENDBRANCH  32  33
ENDBRANCH  31  32
ENDBRANCH  30  31
BRANCH  30  36
HETATM   36  C15 UNL     1      32.784   7.971   6.504  1.00  0.00     0.196 C 
HETATM   37  O4  UNL     1      32.882   9.194   6.858  1.00  0.00    -0.646 OA
HETATM   38  O5  UNL     1      33.443   7.072   7.298  1.00  0.00    -0.646 OA
ENDBRANCH  30  36
ENDBRANCH  28  30
ENDBRANCH   4  26
TORSDOF 9
ENDMDL
