MODEL 15
REMARK VINA RESULT: -7.801381166      3.223      5.113
REMARK  9 active torsions:
REMARK  status: ('A' for Active; 'I' for Inactive)
REMARK    1  A    between atoms: C4_9  and  C5_10 
REMARK    2  A    between atoms: C5_10  and  N4_11 
REMARK    3  A    between atoms: N4_11  and  C6_13 
REMARK    4  A    between atoms: C9_16  and  C10_17 
REMARK       I    between atoms: C10_17  and  N5_19 
REMARK    5  A    between atoms: N5_19  and  C11_21 
REMARK    6  A    between atoms: C11_21  and  C12_22 
REMARK    7  A    between atoms: C11_21  and  C15_27 
REMARK    8  A    between atoms: C12_22  and  C13_23 
REMARK    9  A    between atoms: C13_23  and  C14_24 
ROOT
HETATM    1  C6  UNL     1      29.552   3.471   8.069  1.00  0.00     0.028 A 
HETATM    2  C7  UNL     1      28.653   4.533   7.954  1.00  0.00     0.030 A 
HETATM    3  C8  UNL     1      29.026   5.640   7.218  1.00  0.00     0.019 A 
HETATM    4  C9  UNL     1      30.257   5.707   6.605  1.00  0.00     0.032 A 
HETATM    5  C16 UNL     1      31.150   4.655   6.715  1.00  0.00     0.019 A 
HETATM    6  C17 UNL     1      30.782   3.552   7.447  1.00  0.00     0.030 A 
ENDROOT
BRANCH   1   7
HETATM    7  N4  UNL     1      29.187   2.354   8.856  1.00  0.00    -0.384 N 
ATOM      8  H4  UNL     1      28.767   2.488   9.776  1.00  0.00     0.160 HD
BRANCH   7   9
HETATM    9  C5  UNL     1      29.412   1.026   8.351  1.00  0.00     0.178 C 
BRANCH   9  10
HETATM   10  C4  UNL     1      28.378   0.703   7.303  1.00  0.00     0.043 A 
HETATM   11  C3  UNL     1      27.123   0.237   7.631  1.00  0.00     0.116 A 
HETATM   12  N3  UNL     1      26.218  -0.046   6.668  1.00  0.00    -0.348 N 
HETATM   13  C2  UNL     1      26.493   0.110   5.361  1.00  0.00     0.140 A 
ATOM     14  H3  UNL     1      25.297  -0.389   6.942  1.00  0.00     0.167 HD
HETATM   15  N2  UNL     1      25.588  -0.175   4.403  1.00  0.00    -0.314 N 
HETATM   16  C18 UNL     1      27.749   0.576   5.029  1.00  0.00     0.146 A 
HETATM   17  C1  UNL     1      25.854  -0.024   3.093  1.00  0.00     0.196 A 
ATOM     18  H2  UNL     1      24.667  -0.516   4.681  1.00  0.00     0.170 HD
HETATM   19  N1  UNL     1      24.873  -0.332   2.095  1.00  0.00    -0.063 NA
HETATM   20  N7  UNL     1      27.074   0.429   2.764  1.00  0.00    -0.295 N 
HETATM   21  C19 UNL     1      28.018   0.730   3.685  1.00  0.00     0.278 A 
ATOM     22  H7  UNL     1      27.299   0.552   1.776  1.00  0.00     0.171 HD
HETATM   23  O6  UNL     1      29.149   1.150   3.363  1.00  0.00    -0.265 OA
HETATM   24  N6  UNL     1      28.653   0.859   5.995  1.00  0.00    -0.350 N 
ATOM     25  H6  UNL     1      29.575   1.203   5.723  1.00  0.00     0.166 HD
ENDBRANCH   9  10
ENDBRANCH   7   9
ENDBRANCH   1   7
BRANCH   4  26
HETATM   26  C10 UNL     1      30.715   6.851   5.834  1.00  0.00     0.252 C 
HETATM   27  O1  UNL     1      31.688   7.566   6.211  1.00  0.00    -0.268 OA
HETATM   28  N5  UNL     1      30.095   7.227   4.622  1.00  0.00    -0.342 N 
ATOM     29  H5  UNL     1      29.311   6.686   4.258  1.00  0.00     0.163 HD
BRANCH  28  30
HETATM   30  C11 UNL     1      30.594   8.417   3.876  1.00  0.00     0.186 C 
BRANCH  30  31
HETATM   31  C12 UNL     1      31.296   7.837   2.692  1.00  0.00     0.046 C 
BRANCH  31  32
HETATM   32  C13 UNL     1      32.724   8.184   2.530  1.00  0.00     0.116 C 
BRANCH  32  33
HETATM   33  C14 UNL     1      33.241   9.342   3.263  1.00  0.00     0.172 C 
HETATM   34  O2  UNL     1      33.003  10.546   2.886  1.00  0.00    -0.648 OA
HETATM   35  O3  UNL     1      34.015   9.176   4.408  1.00  0.00    -0.648 OA
ENDBRANCH  32  33
ENDBRANCH  31  32
ENDBRANCH  30  31
BRANCH  30  36
HETATM   36  C15 UNL     1      29.392   9.204   3.602  1.00  0.00     0.196 C 
HETATM   37  O4  UNL     1      29.493  10.456   3.368  1.00  0.00    -0.646 OA
HETATM   38  O5  UNL     1      28.121   8.698   3.564  1.00  0.00    -0.646 OA
ENDBRANCH  30  36
ENDBRANCH  28  30
ENDBRANCH   4  26
TORSDOF 9
ENDMDL
