MODEL 1
REMARK VINA RESULT: -8.462290577      0.000      0.000
REMARK  9 active torsions:
REMARK  status: ('A' for Active; 'I' for Inactive)
REMARK    1  A    between atoms: C4_9  and  C5_10 
REMARK    2  A    between atoms: C5_10  and  N4_11 
REMARK    3  A    between atoms: N4_11  and  C6_13 
REMARK    4  A    between atoms: C9_16  and  C10_17 
REMARK       I    between atoms: C10_17  and  N5_19 
REMARK    5  A    between atoms: N5_19  and  C11_21 
REMARK    6  A    between atoms: C11_21  and  C12_22 
REMARK    7  A    between atoms: C11_21  and  C15_27 
REMARK    8  A    between atoms: C12_22  and  C13_23 
REMARK    9  A    between atoms: C13_23  and  C14_24 
ROOT
HETATM    1  C6  UNL     1      27.838   2.744   7.085  1.00  0.00     0.028 A 
HETATM    2  C7  UNL     1      28.259   3.788   7.911  1.00  0.00     0.030 A 
HETATM    3  C8  UNL     1      29.245   4.639   7.452  1.00  0.00     0.019 A 
HETATM    4  C9  UNL     1      29.809   4.470   6.208  1.00  0.00     0.032 A 
HETATM    5  C16 UNL     1      29.393   3.437   5.386  1.00  0.00     0.019 A 
HETATM    6  C17 UNL     1      28.413   2.589   5.839  1.00  0.00     0.030 A 
ENDROOT
BRANCH   1   7
HETATM    7  N4  UNL     1      26.857   1.847   7.570  1.00  0.00    -0.384 N 
ATOM      8  H4  UNL     1      26.295   2.092   8.385  1.00  0.00     0.160 HD
BRANCH   7   9
HETATM    9  C5  UNL     1      26.656   0.588   6.905  1.00  0.00     0.178 C 
BRANCH   9  10
HETATM   10  C4  UNL     1      27.176  -0.530   7.773  1.00  0.00     0.043 A 
HETATM   11  C3  UNL     1      27.334  -1.814   7.298  1.00  0.00     0.116 A 
HETATM   12  N3  UNL     1      27.800  -2.795   8.102  1.00  0.00    -0.348 N 
HETATM   13  C2  UNL     1      28.127  -2.571   9.386  1.00  0.00     0.140 A 
ATOM     14  H3  UNL     1      27.906  -3.735   7.722  1.00  0.00     0.167 HD
HETATM   15  N2  UNL     1      28.591  -3.552  10.187  1.00  0.00    -0.314 N 
HETATM   16  C18 UNL     1      27.969  -1.286   9.866  1.00  0.00     0.146 A 
HETATM   17  C1  UNL     1      28.919  -3.338  11.473  1.00  0.00     0.196 A 
ATOM     18  H2  UNL     1      28.697  -4.491   9.803  1.00  0.00     0.170 HD
HETATM   19  N1  UNL     1      29.411  -4.399  12.302  1.00  0.00    -0.063 NA
HETATM   20  N7  UNL     1      28.768  -2.090  11.945  1.00  0.00    -0.295 N 
HETATM   21  C19 UNL     1      28.307  -1.070  11.185  1.00  0.00     0.278 A 
ATOM     22  H7  UNL     1      29.010  -1.904  12.918  1.00  0.00     0.171 HD
HETATM   23  O6  UNL     1      28.172   0.086  11.638  1.00  0.00    -0.265 OA
HETATM   24  N6  UNL     1      27.503  -0.305   9.058  1.00  0.00    -0.350 N 
ATOM     25  H6  UNL     1      27.396   0.637   9.437  1.00  0.00     0.166 HD
ENDBRANCH   9  10
ENDBRANCH   7   9
ENDBRANCH   1   7
BRANCH   4  26
HETATM   26  C10 UNL     1      30.864   5.319   5.677  1.00  0.00     0.252 C 
HETATM   27  O1  UNL     1      31.795   4.859   4.956  1.00  0.00    -0.268 OA
HETATM   28  N5  UNL     1      30.905   6.706   5.941  1.00  0.00    -0.342 N 
ATOM     29  H5  UNL     1      30.178   7.141   6.509  1.00  0.00     0.163 HD
BRANCH  28  30
HETATM   30  C11 UNL     1      32.016   7.531   5.385  1.00  0.00     0.186 C 
BRANCH  30  31
HETATM   31  C12 UNL     1      31.320   8.608   4.618  1.00  0.00     0.046 C 
BRANCH  31  32
HETATM   32  C13 UNL     1      30.370   8.172   3.574  1.00  0.00     0.116 C 
BRANCH  32  33
HETATM   33  C14 UNL     1      29.168   8.980   3.352  1.00  0.00     0.172 C 
HETATM   34  O2  UNL     1      28.011   8.604   3.763  1.00  0.00    -0.648 OA
HETATM   35  O3  UNL     1      29.239  10.198   2.683  1.00  0.00    -0.648 OA
ENDBRANCH  32  33
ENDBRANCH  31  32
ENDBRANCH  30  31
BRANCH  30  36
HETATM   36  C15 UNL     1      32.778   7.953   6.560  1.00  0.00     0.196 C 
HETATM   37  O4  UNL     1      33.379   7.081   7.273  1.00  0.00    -0.646 OA
HETATM   38  O5  UNL     1      32.917   9.250   6.973  1.00  0.00    -0.646 OA
ENDBRANCH  30  36
ENDBRANCH  28  30
ENDBRANCH   4  26
TORSDOF 9
ENDMDL
