MODEL 3
REMARK VINA RESULT: -8.206249505      1.259      2.634
REMARK  9 active torsions:
REMARK  status: ('A' for Active; 'I' for Inactive)
REMARK    1  A    between atoms: C4_9  and  C5_10 
REMARK    2  A    between atoms: C5_10  and  N4_11 
REMARK    3  A    between atoms: N4_11  and  C6_13 
REMARK    4  A    between atoms: C9_16  and  C10_17 
REMARK       I    between atoms: C10_17  and  N5_19 
REMARK    5  A    between atoms: N5_19  and  C11_21 
REMARK    6  A    between atoms: C11_21  and  C12_22 
REMARK    7  A    between atoms: C11_21  and  C15_27 
REMARK    8  A    between atoms: C12_22  and  C13_23 
REMARK    9  A    between atoms: C13_23  and  C14_24 
ROOT
HETATM    1  C6  UNL     1      28.199   3.136   7.464  1.00  0.00     0.028 A 
HETATM    2  C7  UNL     1      28.730   2.966   6.184  1.00  0.00     0.030 A 
HETATM    3  C8  UNL     1      29.387   4.027   5.592  1.00  0.00     0.019 A 
HETATM    4  C9  UNL     1      29.522   5.233   6.243  1.00  0.00     0.032 A 
HETATM    5  C16 UNL     1      29.000   5.404   7.513  1.00  0.00     0.019 A 
HETATM    6  C17 UNL     1      28.345   4.351   8.104  1.00  0.00     0.030 A 
ENDROOT
BRANCH   1   7
HETATM    7  N4  UNL     1      27.491   2.063   8.054  1.00  0.00    -0.384 N 
ATOM      8  H4  UNL     1      27.141   2.142   9.009  1.00  0.00     0.160 HD
BRANCH   7   9
HETATM    9  C5  UNL     1      27.267   0.860   7.298  1.00  0.00     0.178 C 
BRANCH   9  10
HETATM   10  C4  UNL     1      27.606  -0.339   8.147  1.00  0.00     0.043 A 
HETATM   11  C3  UNL     1      27.441  -1.630   7.692  1.00  0.00     0.116 A 
HETATM   12  N3  UNL     1      27.750  -2.683   8.478  1.00  0.00    -0.348 N 
HETATM   13  C2  UNL     1      28.226  -2.529   9.726  1.00  0.00     0.140 A 
ATOM     14  H3  UNL     1      27.618  -3.627   8.113  1.00  0.00     0.167 HD
HETATM   15  N2  UNL     1      28.534  -3.583  10.509  1.00  0.00    -0.314 N 
HETATM   16  C18 UNL     1      28.392  -1.238  10.186  1.00  0.00     0.146 A 
HETATM   17  C1  UNL     1      29.009  -3.438  11.759  1.00  0.00     0.196 A 
ATOM     18  H2  UNL     1      28.401  -4.525  10.140  1.00  0.00     0.170 HD
HETATM   19  N1  UNL     1      29.329  -4.576  12.569  1.00  0.00    -0.063 NA
HETATM   20  N7  UNL     1      29.172  -2.185  12.211  1.00  0.00    -0.295 N 
HETATM   21  C19 UNL     1      28.880  -1.093  11.468  1.00  0.00     0.278 A 
ATOM     22  H7  UNL     1      29.531  -2.050  13.157  1.00  0.00     0.171 HD
HETATM   23  O6  UNL     1      29.037   0.067  11.902  1.00  0.00    -0.265 OA
HETATM   24  N6  UNL     1      28.082  -0.183   9.396  1.00  0.00    -0.350 N 
ATOM     25  H6  UNL     1      28.213   0.761   9.759  1.00  0.00     0.166 HD
ENDBRANCH   9  10
ENDBRANCH   7   9
ENDBRANCH   1   7
BRANCH   4  26
HETATM   26  C10 UNL     1      30.185   6.392   5.667  1.00  0.00     0.252 C 
HETATM   27  O1  UNL     1      31.218   6.901   6.188  1.00  0.00    -0.268 OA
HETATM   28  N5  UNL     1      29.706   7.014   4.492  1.00  0.00    -0.342 N 
ATOM     29  H5  UNL     1      28.881   6.646   4.018  1.00  0.00     0.163 HD
BRANCH  28  30
HETATM   30  C11 UNL     1      30.412   8.209   3.949  1.00  0.00     0.186 C 
BRANCH  30  31
HETATM   31  C12 UNL     1      31.258   7.661   2.846  1.00  0.00     0.046 C 
BRANCH  31  32
HETATM   32  C13 UNL     1      32.714   7.897   2.946  1.00  0.00     0.116 C 
BRANCH  32  33
HETATM   33  C14 UNL     1      33.173   9.085   3.669  1.00  0.00     0.172 C 
HETATM   34  O2  UNL     1      33.127  10.258   3.148  1.00  0.00    -0.648 OA
HETATM   35  O3  UNL     1      33.681   8.984   4.961  1.00  0.00    -0.648 OA
ENDBRANCH  32  33
ENDBRANCH  31  32
ENDBRANCH  30  31
BRANCH  30  36
HETATM   36  C15 UNL     1      29.336   9.120   3.556  1.00  0.00     0.196 C 
HETATM   37  O4  UNL     1      28.123   8.722   3.593  1.00  0.00    -0.646 OA
HETATM   38  O5  UNL     1      29.521  10.412   3.146  1.00  0.00    -0.646 OA
ENDBRANCH  30  36
ENDBRANCH  28  30
ENDBRANCH   4  26
TORSDOF 9
ENDMDL
