MODEL 1
REMARK VINA RESULT: -8.330654047      0.000      0.000
REMARK  20 active torsions:
REMARK  status: ('A' for Active; 'I' for Inactive)
REMARK    1  A    between atoms: N3_4  and  C2_6 
REMARK    2  A    between atoms: C2_6  and  C3_7 
REMARK    3  A    between atoms: C8_12  and  C9_13 
REMARK    4  A    between atoms: C9_13  and  C10_14 
REMARK    5  A    between atoms: C10_14  and  C11_15 
REMARK    6  A    between atoms: C11_15  and  C12_16 
REMARK    7  A    between atoms: C12_16  and  C13_17 
REMARK    8  A    between atoms: C13_17  and  C14_18 
REMARK    9  A    between atoms: C14_18  and  C15_19 
REMARK   10  A    between atoms: C15_19  and  C16_20 
REMARK   11  A    between atoms: C16_20  and  C17_21 
REMARK   12  A    between atoms: C17_21  and  C18_22 
REMARK       I    between atoms: C18_22  and  N4_24 
REMARK   13  A    between atoms: N4_24  and  C19_26 
REMARK   14  A    between atoms: C19_26  and  C20_27 
REMARK   15  A    between atoms: C19_26  and  C24_35 
REMARK   16  A    between atoms: C20_27  and  C21_28 
REMARK   17  A    between atoms: C21_28  and  C22_29 
REMARK   18  A    between atoms: C22_29  and  C23_30 
REMARK   19  A    between atoms: C23_30  and  N5_31 
REMARK       I    between atoms: C24_35  and  N6_37 
REMARK   20  A    between atoms: N6_37  and  O3_39 
ROOT
HETATM    1  C16 UNL     1     -41.664  24.491 -15.203  1.00  0.00     0.009 C 
ENDROOT
BRANCH   1   2
HETATM    2  C15 UNL     1     -41.574  24.233 -13.742  1.00  0.00     0.000 C 
BRANCH   2   3
HETATM    3  C14 UNL     1     -40.225  23.606 -13.370  1.00  0.00     0.000 C 
BRANCH   3   4
HETATM    4  C13 UNL     1     -40.337  22.110 -13.278  1.00  0.00     0.000 C 
BRANCH   4   5
HETATM    5  C12 UNL     1     -40.255  21.592 -11.864  1.00  0.00     0.000 C 
BRANCH   5   6
HETATM    6  C11 UNL     1     -41.072  20.393 -11.599  1.00  0.00     0.000 C 
BRANCH   6   7
HETATM    7  C10 UNL     1     -41.421  19.694 -12.892  1.00  0.00     0.005 C 
BRANCH   7   8
HETATM    8  C9  UNL     1     -42.800  19.141 -12.860  1.00  0.00     0.039 C 
BRANCH   8   9
HETATM    9  C8  UNL     1     -43.866  20.156 -12.832  1.00  0.00    -0.050 A 
HETATM   10  C3  UNL     1     -44.922  20.202 -11.958  1.00  0.00    -0.034 A 
HETATM   11  C4  UNL     1     -45.883  21.216 -12.060  1.00  0.00     0.009 A 
HETATM   12  C5  UNL     1     -45.796  22.180 -13.024  1.00  0.00     0.001 A 
HETATM   13  C6  UNL     1     -44.735  22.151 -13.918  1.00  0.00     0.001 A 
HETATM   14  C7  UNL     1     -43.811  21.152 -13.797  1.00  0.00     0.007 A 
BRANCH  10  15
HETATM   15  C2  UNL     1     -45.044  19.197 -10.891  1.00  0.00     0.161 C 
BRANCH  15  16
HETATM   16  N3  UNL     1     -44.668  19.776  -9.587  1.00  0.00    -0.363 N 
HETATM   17  C1  UNL     1     -43.682  19.287  -8.921  1.00  0.00     0.197 C 
HETATM   18  N1  UNL     1     -43.352  19.872  -7.669  1.00  0.00    -0.067 NA
HETATM   19  N2  UNL     1     -42.920  18.179  -9.409  1.00  0.00    -0.067 NA
ATOM     20  H3  UNL     1     -45.193  20.567  -9.212  1.00  0.00     0.162 HD
ENDBRANCH  15  16
ENDBRANCH  10  15
ENDBRANCH   8   9
ENDBRANCH   7   8
ENDBRANCH   6   7
ENDBRANCH   5   6
ENDBRANCH   4   5
ENDBRANCH   3   4
ENDBRANCH   2   3
ENDBRANCH   1   2
BRANCH   1  21
HETATM   21  C17 UNL     1     -42.577  25.576 -15.639  1.00  0.00     0.103 C 
BRANCH  21  22
HETATM   22  C18 UNL     1     -41.923  26.641 -16.400  1.00  0.00     0.218 C 
HETATM   23  O1  UNL     1     -40.695  26.719 -16.619  1.00  0.00    -0.274 OA
HETATM   24  N4  UNL     1     -42.688  27.718 -16.969  1.00  0.00    -0.348 N 
ATOM     25  H4  UNL     1     -43.699  27.731 -16.837  1.00  0.00     0.163 HD
BRANCH  24  26
HETATM   26  C19 UNL     1     -42.069  28.775 -17.716  1.00  0.00     0.178 C 
BRANCH  26  27
HETATM   27  C20 UNL     1     -42.425  30.147 -17.179  1.00  0.00     0.035 C 
BRANCH  27  28
HETATM   28  C21 UNL     1     -43.410  29.970 -16.021  1.00  0.00     0.004 C 
BRANCH  28  29
HETATM   29  C22 UNL     1     -43.900  31.306 -15.507  1.00  0.00     0.027 C 
BRANCH  29  30
HETATM   30  C23 UNL     1     -43.902  31.327 -13.986  1.00  0.00     0.229 C 
BRANCH  30  31
HETATM   31  N5  UNL     1     -43.516  32.646 -13.543  1.00  0.00    -0.079 N 
ATOM     32  H53 UNL     1     -43.515  32.733 -12.526  1.00  0.00     0.274 HD
ATOM     33  H52 UNL     1     -42.526  32.836 -13.700  1.00  0.00     0.274 HD
ATOM     34  H51 UNL     1     -44.123  33.332 -13.992  1.00  0.00     0.274 HD
ENDBRANCH  30  31
ENDBRANCH  29  30
ENDBRANCH  28  29
ENDBRANCH  27  28
ENDBRANCH  26  27
BRANCH  26  35
HETATM   35  C24 UNL     1     -42.510  28.687 -19.112  1.00  0.00     0.263 C 
HETATM   36  O2  UNL     1     -43.587  28.135 -19.404  1.00  0.00    -0.269 OA
HETATM   37  N6  UNL     1     -41.707  29.234 -20.132  1.00  0.00    -0.236 N 
ATOM     38  H6  UNL     1     -40.823  29.690 -19.906  1.00  0.00     0.197 HD
BRANCH  37  39
HETATM   39  O3  UNL     1     -42.128  29.146 -21.427  1.00  0.00    -0.287 OA
ATOM     40  H3  UNL     1     -42.656  29.848 -21.791  1.00  0.00     0.244 HD
ENDBRANCH  37  39
ENDBRANCH  26  35
ENDBRANCH  24  26
ENDBRANCH  21  22
ENDBRANCH   1  21
TORSDOF 20
ENDMDL
