MODEL 3
REMARK VINA RESULT: -8.089778187      3.532     10.616
REMARK  20 active torsions:
REMARK  status: ('A' for Active; 'I' for Inactive)
REMARK    1  A    between atoms: N3_4  and  C2_6 
REMARK    2  A    between atoms: C2_6  and  C3_7 
REMARK    3  A    between atoms: C8_12  and  C9_13 
REMARK    4  A    between atoms: C9_13  and  C10_14 
REMARK    5  A    between atoms: C10_14  and  C11_15 
REMARK    6  A    between atoms: C11_15  and  C12_16 
REMARK    7  A    between atoms: C12_16  and  C13_17 
REMARK    8  A    between atoms: C13_17  and  C14_18 
REMARK    9  A    between atoms: C14_18  and  C15_19 
REMARK   10  A    between atoms: C15_19  and  C16_20 
REMARK   11  A    between atoms: C16_20  and  C17_21 
REMARK   12  A    between atoms: C17_21  and  C18_22 
REMARK       I    between atoms: C18_22  and  N4_24 
REMARK   13  A    between atoms: N4_24  and  C19_26 
REMARK   14  A    between atoms: C19_26  and  C20_27 
REMARK   15  A    between atoms: C19_26  and  C24_35 
REMARK   16  A    between atoms: C20_27  and  C21_28 
REMARK   17  A    between atoms: C21_28  and  C22_29 
REMARK   18  A    between atoms: C22_29  and  C23_30 
REMARK   19  A    between atoms: C23_30  and  N5_31 
REMARK       I    between atoms: C24_35  and  N6_37 
REMARK   20  A    between atoms: N6_37  and  O3_39 
ROOT
HETATM    1  C16 UNL     1     -40.327  22.105 -13.404  1.00  0.00     0.009 C 
ENDROOT
BRANCH   1   2
HETATM    2  C15 UNL     1     -40.404  23.559 -13.106  1.00  0.00     0.000 C 
BRANCH   2   3
HETATM    3  C14 UNL     1     -41.776  24.131 -13.483  1.00  0.00     0.000 C 
BRANCH   3   4
HETATM    4  C13 UNL     1     -41.744  24.739 -14.858  1.00  0.00     0.000 C 
BRANCH   4   5
HETATM    5  C12 UNL     1     -40.444  25.434 -15.171  1.00  0.00     0.000 C 
BRANCH   5   6
HETATM    6  C11 UNL     1     -40.584  26.840 -15.595  1.00  0.00     0.000 C 
BRANCH   6   7
HETATM    7  C10 UNL     1     -41.982  27.103 -16.105  1.00  0.00     0.005 C 
BRANCH   7   8
HETATM    8  C9  UNL     1     -42.541  28.362 -15.547  1.00  0.00     0.039 C 
BRANCH   8   9
HETATM    9  C8  UNL     1     -42.600  29.481 -16.501  1.00  0.00    -0.050 A 
HETATM   10  C3  UNL     1     -43.352  30.620 -16.371  1.00  0.00    -0.034 A 
HETATM   11  C4  UNL     1     -43.332  31.600 -17.372  1.00  0.00     0.009 A 
HETATM   12  C5  UNL     1     -42.570  31.451 -18.495  1.00  0.00     0.001 A 
HETATM   13  C6  UNL     1     -41.801  30.305 -18.646  1.00  0.00     0.001 A 
HETATM   14  C7  UNL     1     -41.838  29.364 -17.655  1.00  0.00     0.007 A 
BRANCH  10  15
HETATM   15  C2  UNL     1     -44.172  30.834 -15.169  1.00  0.00     0.161 C 
BRANCH  15  16
HETATM   16  N3  UNL     1     -43.583  31.888 -14.320  1.00  0.00    -0.363 N 
HETATM   17  C1  UNL     1     -43.732  31.848 -13.042  1.00  0.00     0.197 C 
HETATM   18  N1  UNL     1     -43.151  32.882 -12.260  1.00  0.00    -0.067 NA
HETATM   19  N2  UNL     1     -44.460  30.797 -12.401  1.00  0.00    -0.067 NA
ATOM     20  H3  UNL     1     -43.057  32.650 -14.747  1.00  0.00     0.162 HD
ENDBRANCH  15  16
ENDBRANCH  10  15
ENDBRANCH   8   9
ENDBRANCH   7   8
ENDBRANCH   6   7
ENDBRANCH   5   6
ENDBRANCH   4   5
ENDBRANCH   3   4
ENDBRANCH   2   3
ENDBRANCH   1   2
BRANCH   1  21
HETATM   21  C17 UNL     1     -40.171  21.190 -12.247  1.00  0.00     0.103 C 
BRANCH  21  22
HETATM   22  C18 UNL     1     -41.434  20.675 -11.715  1.00  0.00     0.218 C 
HETATM   23  O1  UNL     1     -41.719  20.579 -10.503  1.00  0.00    -0.274 OA
HETATM   24  N4  UNL     1     -42.476  20.224 -12.599  1.00  0.00    -0.348 N 
ATOM     25  H4  UNL     1     -42.326  20.269 -13.606  1.00  0.00     0.163 HD
BRANCH  24  26
HETATM   26  C19 UNL     1     -43.722  19.713 -12.102  1.00  0.00     0.178 C 
BRANCH  26  27
HETATM   27  C20 UNL     1     -44.044  18.339 -12.655  1.00  0.00     0.035 C 
BRANCH  27  28
HETATM   28  C21 UNL     1     -42.855  17.417 -12.375  1.00  0.00     0.004 C 
BRANCH  28  29
HETATM   29  C22 UNL     1     -43.086  16.584 -11.133  1.00  0.00     0.027 C 
BRANCH  29  30
HETATM   30  C23 UNL     1     -42.086  16.949 -10.047  1.00  0.00     0.229 C 
BRANCH  30  31
HETATM   31  N5  UNL     1     -42.648  18.006  -9.239  1.00  0.00    -0.079 N 
ATOM     32  H53 UNL     1     -43.575  17.774  -8.882  1.00  0.00     0.274 HD
ATOM     33  H52 UNL     1     -42.173  18.107  -8.342  1.00  0.00     0.274 HD
ATOM     34  H51 UNL     1     -42.644  18.869  -9.783  1.00  0.00     0.274 HD
ENDBRANCH  30  31
ENDBRANCH  29  30
ENDBRANCH  28  29
ENDBRANCH  27  28
ENDBRANCH  26  27
BRANCH  26  35
HETATM   35  C24 UNL     1     -44.795  20.637 -12.483  1.00  0.00     0.263 C 
HETATM   36  O2  UNL     1     -44.629  21.868 -12.415  1.00  0.00    -0.269 OA
HETATM   37  N6  UNL     1     -46.029  20.124 -12.932  1.00  0.00    -0.236 N 
ATOM     38  H6  UNL     1     -46.178  19.116 -12.993  1.00  0.00     0.197 HD
BRANCH  37  39
HETATM   39  O3  UNL     1     -47.021  20.992 -13.284  1.00  0.00    -0.287 OA
ATOM     40  H3  UNL     1     -47.789  21.066 -12.730  1.00  0.00     0.244 HD
ENDBRANCH  37  39
ENDBRANCH  26  35
ENDBRANCH  24  26
ENDBRANCH  21  22
ENDBRANCH   1  21
TORSDOF 20
ENDMDL
