MODEL 2
REMARK VINA RESULT: -8.261046706      3.779     11.213
REMARK  20 active torsions:
REMARK  status: ('A' for Active; 'I' for Inactive)
REMARK    1  A    between atoms: N3_4  and  C2_6 
REMARK    2  A    between atoms: C2_6  and  C3_7 
REMARK    3  A    between atoms: C8_12  and  C9_13 
REMARK    4  A    between atoms: C9_13  and  C10_14 
REMARK    5  A    between atoms: C10_14  and  C11_15 
REMARK    6  A    between atoms: C11_15  and  C12_16 
REMARK    7  A    between atoms: C12_16  and  C13_17 
REMARK    8  A    between atoms: C13_17  and  C14_18 
REMARK    9  A    between atoms: C14_18  and  C15_19 
REMARK   10  A    between atoms: C15_19  and  C16_20 
REMARK   11  A    between atoms: C16_20  and  C17_21 
REMARK   12  A    between atoms: C17_21  and  C18_22 
REMARK       I    between atoms: C18_22  and  N4_24 
REMARK   13  A    between atoms: N4_24  and  C19_26 
REMARK   14  A    between atoms: C19_26  and  C20_27 
REMARK   15  A    between atoms: C19_26  and  C24_35 
REMARK   16  A    between atoms: C20_27  and  C21_28 
REMARK   17  A    between atoms: C21_28  and  C22_29 
REMARK   18  A    between atoms: C22_29  and  C23_30 
REMARK   19  A    between atoms: C23_30  and  N5_31 
REMARK       I    between atoms: C24_35  and  N6_37 
REMARK   20  A    between atoms: N6_37  and  O3_39 
ROOT
HETATM    1  C16 UNL     1     -41.022  21.869 -13.334  1.00  0.00     0.009 C 
ENDROOT
BRANCH   1   2
HETATM    2  C15 UNL     1     -40.191  23.079 -13.568  1.00  0.00     0.000 C 
BRANCH   2   3
HETATM    3  C14 UNL     1     -41.040  24.355 -13.512  1.00  0.00     0.000 C 
BRANCH   3   4
HETATM    4  C13 UNL     1     -42.063  24.365 -14.614  1.00  0.00     0.000 C 
BRANCH   4   5
HETATM    5  C12 UNL     1     -41.881  25.504 -15.584  1.00  0.00     0.000 C 
BRANCH   5   6
HETATM    6  C11 UNL     1     -40.559  26.156 -15.528  1.00  0.00     0.000 C 
BRANCH   6   7
HETATM    7  C10 UNL     1     -40.701  27.654 -15.654  1.00  0.00     0.005 C 
BRANCH   7   8
HETATM    8  C9  UNL     1     -41.658  28.025 -16.728  1.00  0.00     0.039 C 
BRANCH   8   9
HETATM    9  C8  UNL     1     -42.422  29.256 -16.470  1.00  0.00    -0.050 A 
HETATM   10  C3  UNL     1     -42.462  30.370 -17.269  1.00  0.00    -0.034 A 
HETATM   11  C4  UNL     1     -43.215  31.488 -16.889  1.00  0.00     0.009 A 
HETATM   12  C5  UNL     1     -43.925  31.501 -15.723  1.00  0.00     0.001 A 
HETATM   13  C6  UNL     1     -43.898  30.384 -14.899  1.00  0.00     0.001 A 
HETATM   14  C7  UNL     1     -43.156  29.306 -15.293  1.00  0.00     0.007 A 
BRANCH  10  15
HETATM   15  C2  UNL     1     -41.730  30.393 -18.544  1.00  0.00     0.161 C 
BRANCH  15  16
HETATM   16  N3  UNL     1     -42.628  30.774 -19.652  1.00  0.00    -0.363 N 
HETATM   17  C1  UNL     1     -43.268  29.870 -20.307  1.00  0.00     0.197 C 
HETATM   18  N1  UNL     1     -44.123  30.278 -21.366  1.00  0.00    -0.067 NA
HETATM   19  N2  UNL     1     -43.139  28.480 -19.994  1.00  0.00    -0.067 NA
ATOM     20  H3  UNL     1     -42.742  31.758 -19.899  1.00  0.00     0.162 HD
ENDBRANCH  15  16
ENDBRANCH  10  15
ENDBRANCH   8   9
ENDBRANCH   7   8
ENDBRANCH   6   7
ENDBRANCH   5   6
ENDBRANCH   4   5
ENDBRANCH   3   4
ENDBRANCH   2   3
ENDBRANCH   1   2
BRANCH   1  21
HETATM   21  C17 UNL     1     -40.661  21.020 -12.172  1.00  0.00     0.103 C 
BRANCH  21  22
HETATM   22  C18 UNL     1     -41.803  20.370 -11.527  1.00  0.00     0.218 C 
HETATM   23  O1  UNL     1     -41.922  20.179 -10.298  1.00  0.00    -0.274 OA
HETATM   24  N4  UNL     1     -42.912  19.886 -12.304  1.00  0.00    -0.348 N 
ATOM     25  H4  UNL     1     -42.896  20.002 -13.317  1.00  0.00     0.163 HD
BRANCH  24  26
HETATM   26  C19 UNL     1     -44.041  19.244 -11.695  1.00  0.00     0.178 C 
BRANCH  26  27
HETATM   27  C20 UNL     1     -44.388  17.929 -12.364  1.00  0.00     0.035 C 
BRANCH  27  28
HETATM   28  C21 UNL     1     -44.182  16.803 -11.348  1.00  0.00     0.004 C 
BRANCH  28  29
HETATM   29  C22 UNL     1     -42.748  16.320 -11.346  1.00  0.00     0.027 C 
BRANCH  29  30
HETATM   30  C23 UNL     1     -42.266  16.075  -9.924  1.00  0.00     0.229 C 
BRANCH  30  31
HETATM   31  N5  UNL     1     -41.910  17.343  -9.334  1.00  0.00    -0.079 N 
ATOM     32  H53 UNL     1     -41.545  18.006 -10.019  1.00  0.00     0.274 HD
ATOM     33  H52 UNL     1     -42.726  17.881  -9.039  1.00  0.00     0.274 HD
ATOM     34  H51 UNL     1     -41.256  17.175  -8.569  1.00  0.00     0.274 HD
ENDBRANCH  30  31
ENDBRANCH  29  30
ENDBRANCH  28  29
ENDBRANCH  27  28
ENDBRANCH  26  27
BRANCH  26  35
HETATM   35  C24 UNL     1     -45.199  20.139 -11.788  1.00  0.00     0.263 C 
HETATM   36  O2  UNL     1     -45.601  20.766 -10.790  1.00  0.00    -0.269 OA
HETATM   37  N6  UNL     1     -45.864  20.292 -13.021  1.00  0.00    -0.236 N 
ATOM     38  H6  UNL     1     -45.545  19.785 -13.847  1.00  0.00     0.197 HD
BRANCH  37  39
HETATM   39  O3  UNL     1     -46.941  21.127 -13.097  1.00  0.00    -0.287 OA
ATOM     40  H3  UNL     1     -46.995  21.748 -13.814  1.00  0.00     0.244 HD
ENDBRANCH  37  39
ENDBRANCH  26  35
ENDBRANCH  24  26
ENDBRANCH  21  22
ENDBRANCH   1  21
TORSDOF 20
ENDMDL
