MODEL 2
REMARK VINA RESULT: -8.371214976      1.563      3.041
REMARK  20 active torsions:
REMARK  status: ('A' for Active; 'I' for Inactive)
REMARK    1  A    between atoms: N3_4  and  C2_6 
REMARK    2  A    between atoms: C2_6  and  C3_7 
REMARK    3  A    between atoms: C8_12  and  C9_13 
REMARK    4  A    between atoms: C9_13  and  C10_14 
REMARK    5  A    between atoms: C10_14  and  C11_15 
REMARK    6  A    between atoms: C11_15  and  C12_16 
REMARK    7  A    between atoms: C12_16  and  C13_17 
REMARK    8  A    between atoms: C13_17  and  C14_18 
REMARK    9  A    between atoms: C14_18  and  C15_19 
REMARK   10  A    between atoms: C15_19  and  C16_20 
REMARK   11  A    between atoms: C16_20  and  C17_21 
REMARK   12  A    between atoms: C17_21  and  C18_22 
REMARK       I    between atoms: C18_22  and  N4_24 
REMARK   13  A    between atoms: N4_24  and  C19_26 
REMARK   14  A    between atoms: C19_26  and  C20_27 
REMARK   15  A    between atoms: C19_26  and  C24_35 
REMARK   16  A    between atoms: C20_27  and  C21_28 
REMARK   17  A    between atoms: C21_28  and  C22_29 
REMARK   18  A    between atoms: C22_29  and  C23_30 
REMARK   19  A    between atoms: C23_30  and  N5_31 
REMARK       I    between atoms: C24_35  and  N6_37 
REMARK   20  A    between atoms: N6_37  and  O3_39 
ROOT
HETATM    1  C16 UNL     1      28.199   3.493  15.376  1.00  0.00     0.009 C 
ENDROOT
BRANCH   1   2
HETATM    2  C15 UNL     1      27.004   4.290  14.994  1.00  0.00     0.000 C 
BRANCH   2   3
HETATM    3  C14 UNL     1      25.743   3.418  14.962  1.00  0.00     0.000 C 
BRANCH   3   4
HETATM    4  C13 UNL     1      25.865   2.337  13.924  1.00  0.00     0.000 C 
BRANCH   4   5
HETATM    5  C12 UNL     1      24.594   1.549  13.733  1.00  0.00     0.000 C 
BRANCH   5   6
HETATM    6  C11 UNL     1      23.601   1.711  14.812  1.00  0.00     0.000 C 
BRANCH   6   7
HETATM    7  C10 UNL     1      22.218   1.901  14.235  1.00  0.00     0.005 C 
BRANCH   7   8
HETATM    8  C9  UNL     1      22.113   1.330  12.867  1.00  0.00     0.039 C 
BRANCH   8   9
HETATM    9  C8  UNL     1      20.772   1.420  12.268  1.00  0.00    -0.050 A 
HETATM   10  C3  UNL     1      20.325   2.401  11.419  1.00  0.00    -0.034 A 
HETATM   11  C4  UNL     1      19.009   2.377  10.939  1.00  0.00     0.009 A 
HETATM   12  C5  UNL     1      18.142   1.386  11.298  1.00  0.00     0.001 A 
HETATM   13  C6  UNL     1      18.574   0.383  12.156  1.00  0.00     0.001 A 
HETATM   14  C7  UNL     1      19.862   0.429  12.610  1.00  0.00     0.007 A 
BRANCH  10  15
HETATM   15  C2  UNL     1      21.230   3.477  10.989  1.00  0.00     0.161 C 
BRANCH  15  16
HETATM   16  N3  UNL     1      20.903   4.739  11.682  1.00  0.00    -0.363 N 
HETATM   17  C1  UNL     1      21.794   5.338  12.391  1.00  0.00     0.197 C 
HETATM   18  N1  UNL     1      21.439   6.550  13.042  1.00  0.00    -0.067 NA
HETATM   19  N2  UNL     1      23.118   4.816  12.536  1.00  0.00    -0.067 NA
ATOM     20  H3  UNL     1      19.967   5.137  11.597  1.00  0.00     0.162 HD
ENDBRANCH  15  16
ENDBRANCH  10  15
ENDBRANCH   8   9
ENDBRANCH   7   8
ENDBRANCH   6   7
ENDBRANCH   5   6
ENDBRANCH   4   5
ENDBRANCH   3   4
ENDBRANCH   2   3
ENDBRANCH   1   2
BRANCH   1  21
HETATM   21  C17 UNL     1      29.388   3.600  14.495  1.00  0.00     0.103 C 
BRANCH  21  22
HETATM   22  C18 UNL     1      30.371   4.593  14.932  1.00  0.00     0.218 C 
HETATM   23  O1  UNL     1      31.453   4.333  15.500  1.00  0.00    -0.274 OA
HETATM   24  N4  UNL     1      30.142   5.998  14.727  1.00  0.00    -0.348 N 
ATOM     25  H4  UNL     1      29.282   6.298  14.268  1.00  0.00     0.163 HD
BRANCH  24  26
HETATM   26  C19 UNL     1      31.089   6.990  15.148  1.00  0.00     0.178 C 
BRANCH  26  27
HETATM   27  C20 UNL     1      30.418   8.230  15.704  1.00  0.00     0.035 C 
BRANCH  27  28
HETATM   28  C21 UNL     1      30.717   8.308  17.203  1.00  0.00     0.004 C 
BRANCH  28  29
HETATM   29  C22 UNL     1      29.991   7.221  17.966  1.00  0.00     0.027 C 
BRANCH  29  30
HETATM   30  C23 UNL     1      29.285   7.799  19.183  1.00  0.00     0.229 C 
BRANCH  30  31
HETATM   31  N5  UNL     1      29.786   7.138  20.364  1.00  0.00    -0.079 N 
ATOM     32  H53 UNL     1      29.699   6.123  20.311  1.00  0.00     0.274 HD
ATOM     33  H52 UNL     1      30.803   7.187  20.438  1.00  0.00     0.274 HD
ATOM     34  H51 UNL     1      29.315   7.527  21.181  1.00  0.00     0.274 HD
ENDBRANCH  30  31
ENDBRANCH  29  30
ENDBRANCH  28  29
ENDBRANCH  27  28
ENDBRANCH  26  27
BRANCH  26  35
HETATM   35  C24 UNL     1      31.911   7.376  13.997  1.00  0.00     0.263 C 
HETATM   36  O2  UNL     1      31.599   8.354  13.293  1.00  0.00    -0.269 OA
HETATM   37  N6  UNL     1      33.067   6.633  13.685  1.00  0.00    -0.236 N 
ATOM     38  H6  UNL     1      33.335   5.830  14.255  1.00  0.00     0.197 HD
BRANCH  37  39
HETATM   39  O3  UNL     1      33.825   7.002  12.612  1.00  0.00    -0.287 OA
ATOM     40  H3  UNL     1      34.052   7.917  12.498  1.00  0.00     0.244 HD
ENDBRANCH  37  39
ENDBRANCH  26  35
ENDBRANCH  24  26
ENDBRANCH  21  22
ENDBRANCH   1  21
TORSDOF 20
ENDMDL
