MODEL 9
REMARK VINA RESULT: -8.160339408      4.327      8.739
REMARK  5 active torsions:
REMARK  status: ('A' for Active; 'I' for Inactive)
REMARK    1  A    between atoms: C7_7  and  S1_8 
REMARK    2  A    between atoms: S1_8  and  N1_11 
REMARK    3  A    between atoms: N1_11  and  C8_13 
REMARK    4  A    between atoms: C10_15  and  C11_16 
REMARK    5  A    between atoms: C18_25  and  C19_26 
ROOT
HETATM    1  C11 UNL     1       4.735  36.527  79.608  1.00  0.00    -0.019 A 
HETATM    2  C12 UNL     1       4.812  37.647  78.820  1.00  0.00     0.014 A 
HETATM    3  C13 UNL     1       3.741  38.504  78.740  1.00  0.00     0.023 A 
HETATM    4  C14 UNL     1       2.565  38.276  79.435  1.00  0.00     0.044 A 
HETATM    5  C15 UNL     1       1.447  39.183  79.342  1.00  0.00     0.099 C 
HETATM    6  N2  UNL     1       0.555  39.924  79.256  1.00  0.00    -0.191 NA
HETATM    7  C16 UNL     1       2.531  37.139  80.214  1.00  0.00     0.023 A 
HETATM    8  C17 UNL     1       3.597  36.271  80.306  1.00  0.00     0.014 A 
ENDROOT
BRANCH   1   9
HETATM    9  C10 UNL     1       5.891  35.596  79.700  1.00  0.00     0.018 A 
HETATM   10  C9  UNL     1       6.948  35.499  78.838  1.00  0.00     0.051 A 
HETATM   11  C8  UNL     1       7.892  34.576  79.119  1.00  0.00     0.068 A 
HETATM   12  C18 UNL     1       7.702  33.819  80.244  1.00  0.00     0.109 A 
HETATM   13  S2  UNL     1       6.232  34.408  80.870  1.00  0.00    -0.080 SA
BRANCH  11  14
HETATM   14  N1  UNL     1       9.081  34.367  78.296  1.00  0.00    -0.279 N 
ATOM     15  H1  UNL     1      10.003  34.401  78.730  1.00  0.00     0.179 HD
BRANCH  14  16
HETATM   16  S1  UNL     1       8.951  34.066  76.617  1.00  0.00     0.263 S 
HETATM   17  O1  UNL     1       7.689  33.312  76.319  1.00  0.00    -0.200 OA
HETATM   18  O2  UNL     1      10.101  33.220  76.144  1.00  0.00    -0.200 OA
BRANCH  16  19
HETATM   19  C7  UNL     1       8.905  35.565  75.732  1.00  0.00     0.085 A 
HETATM   20  C2  UNL     1      10.041  36.260  75.402  1.00  0.00    -0.039 A 
HETATM   21  C1  UNL     1      11.351  35.694  75.830  1.00  0.00     0.050 C 
HETATM   22  C3  UNL     1       9.989  37.456  74.689  1.00  0.00     0.008 A 
HETATM   23  C4  UNL     1       8.760  37.952  74.307  1.00  0.00     0.001 A 
HETATM   24  C5  UNL     1       7.619  37.259  74.637  1.00  0.00     0.002 A 
HETATM   25  C6  UNL     1       7.697  36.076  75.342  1.00  0.00     0.026 A 
ENDBRANCH  16  19
ENDBRANCH  14  16
ENDBRANCH  11  14
BRANCH  12  26
HETATM   26  C19 UNL     1       8.526  32.747  80.814  1.00  0.00     0.219 C 
HETATM   27  O3  UNL     1       9.525  32.246  80.300  1.00  0.00    -0.643 OA
HETATM   28  O4  UNL     1       8.152  32.232  82.071  1.00  0.00    -0.643 OA
ENDBRANCH  12  26
ENDBRANCH   1   9
TORSDOF 5
ENDMDL
