MODEL 3
REMARK VINA RESULT: -8.709099910      1.457      1.721
REMARK  5 active torsions:
REMARK  status: ('A' for Active; 'I' for Inactive)
REMARK    1  A    between atoms: C7_7  and  S1_8 
REMARK    2  A    between atoms: S1_8  and  N1_11 
REMARK    3  A    between atoms: N1_11  and  C8_13 
REMARK    4  A    between atoms: C10_15  and  C11_16 
REMARK    5  A    between atoms: C18_25  and  C19_26 
ROOT
HETATM    1  C11 UNL     1       9.900  30.813  74.319  1.00  0.00    -0.019 A 
HETATM    2  C12 UNL     1      11.100  31.472  74.403  1.00  0.00     0.014 A 
HETATM    3  C13 UNL     1      12.161  31.066  73.631  1.00  0.00     0.023 A 
HETATM    4  C14 UNL     1      12.064  29.998  72.754  1.00  0.00     0.044 A 
HETATM    5  C15 UNL     1      13.186  29.581  71.948  1.00  0.00     0.099 C 
HETATM    6  N2  UNL     1      14.099  29.257  71.305  1.00  0.00    -0.191 NA
HETATM    7  C16 UNL     1      10.841  29.364  72.701  1.00  0.00     0.023 A 
HETATM    8  C17 UNL     1       9.767  29.760  73.469  1.00  0.00     0.014 A 
ENDROOT
BRANCH   1   9
HETATM    9  C10 UNL     1       8.747  31.248  75.152  1.00  0.00     0.018 A 
HETATM   10  C9  UNL     1       8.533  32.487  75.688  1.00  0.00     0.051 A 
HETATM   11  C8  UNL     1       7.410  32.660  76.417  1.00  0.00     0.068 A 
HETATM   12  C18 UNL     1       6.588  31.574  76.553  1.00  0.00     0.109 A 
HETATM   13  S2  UNL     1       7.393  30.359  75.672  1.00  0.00    -0.080 SA
BRANCH  11  14
HETATM   14  N1  UNL     1       7.045  33.930  77.041  1.00  0.00    -0.279 N 
ATOM     15  H1  UNL     1       6.061  34.187  77.114  1.00  0.00     0.179 HD
BRANCH  14  16
HETATM   16  S1  UNL     1       8.240  34.992  77.650  1.00  0.00     0.263 S 
HETATM   17  O1  UNL     1       9.375  34.211  78.242  1.00  0.00    -0.200 OA
HETATM   18  O2  UNL     1       7.670  35.854  78.742  1.00  0.00    -0.200 OA
BRANCH  16  19
HETATM   19  C7  UNL     1       8.879  35.986  76.371  1.00  0.00     0.085 A 
HETATM   20  C2  UNL     1       8.102  36.876  75.672  1.00  0.00    -0.039 A 
HETATM   21  C1  UNL     1       6.661  36.974  76.037  1.00  0.00     0.050 C 
HETATM   22  C3  UNL     1       8.627  37.668  74.655  1.00  0.00     0.008 A 
HETATM   23  C4  UNL     1       9.967  37.553  74.343  1.00  0.00     0.001 A 
HETATM   24  C5  UNL     1      10.749  36.662  75.040  1.00  0.00     0.002 A 
HETATM   25  C6  UNL     1      10.204  35.888  76.045  1.00  0.00     0.026 A 
ENDBRANCH  16  19
ENDBRANCH  14  16
ENDBRANCH  11  14
BRANCH  12  26
HETATM   26  C19 UNL     1       5.317  31.433  77.273  1.00  0.00     0.219 C 
HETATM   27  O3  UNL     1       5.024  30.537  78.064  1.00  0.00    -0.643 OA
HETATM   28  O4  UNL     1       4.327  32.409  77.049  1.00  0.00    -0.643 OA
ENDBRANCH  12  26
ENDBRANCH   1   9
TORSDOF 5
ENDMDL
