MODEL 8
REMARK VINA RESULT: -8.163379698      4.895      9.089
REMARK  5 active torsions:
REMARK  status: ('A' for Active; 'I' for Inactive)
REMARK    1  A    between atoms: C7_7  and  S1_8 
REMARK    2  A    between atoms: S1_8  and  N1_11 
REMARK    3  A    between atoms: N1_11  and  C8_13 
REMARK    4  A    between atoms: C10_15  and  C11_16 
REMARK    5  A    between atoms: C18_25  and  C19_26 
ROOT
HETATM    1  C11 UNL     1       3.800  35.916  80.349  1.00  0.00    -0.019 A 
HETATM    2  C12 UNL     1       3.461  37.186  79.955  1.00  0.00     0.014 A 
HETATM    3  C13 UNL     1       2.148  37.588  79.994  1.00  0.00     0.023 A 
HETATM    4  C14 UNL     1       1.135  36.747  80.424  1.00  0.00     0.044 A 
HETATM    5  C15 UNL     1      -0.240  37.182  80.460  1.00  0.00     0.099 C 
HETATM    6  N2  UNL     1      -1.343  37.548  80.484  1.00  0.00    -0.191 NA
HETATM    7  C16 UNL     1       1.519  35.481  80.810  1.00  0.00     0.023 A 
HETATM    8  C17 UNL     1       2.832  35.063  80.777  1.00  0.00     0.014 A 
ENDROOT
BRANCH   1   9
HETATM    9  C10 UNL     1       5.220  35.474  80.310  1.00  0.00     0.018 A 
HETATM   10  C9  UNL     1       6.200  35.911  79.463  1.00  0.00     0.051 A 
HETATM   11  C8  UNL     1       7.428  35.368  79.607  1.00  0.00     0.068 A 
HETATM   12  C18 UNL     1       7.576  34.426  80.590  1.00  0.00     0.109 A 
HETATM   13  S2  UNL     1       6.021  34.327  81.277  1.00  0.00    -0.080 SA
BRANCH  11  14
HETATM   14  N1  UNL     1       8.574  35.744  78.783  1.00  0.00    -0.279 N 
ATOM     15  H1  UNL     1       9.178  36.509  79.085  1.00  0.00     0.179 HD
BRANCH  14  16
HETATM   16  S1  UNL     1       8.919  34.924  77.322  1.00  0.00     0.263 S 
HETATM   17  O1  UNL     1       7.854  33.909  77.032  1.00  0.00    -0.200 OA
HETATM   18  O2  UNL     1      10.224  34.186  77.428  1.00  0.00    -0.200 OA
BRANCH  16  19
HETATM   19  C7  UNL     1       8.969  36.047  75.992  1.00  0.00     0.085 A 
HETATM   20  C2  UNL     1       7.833  36.512  75.378  1.00  0.00    -0.039 A 
HETATM   21  C1  UNL     1       6.520  36.021  75.882  1.00  0.00     0.050 C 
HETATM   22  C3  UNL     1       7.888  37.414  74.318  1.00  0.00     0.008 A 
HETATM   23  C4  UNL     1       9.120  37.849  73.875  1.00  0.00     0.001 A 
HETATM   24  C5  UNL     1      10.261  37.386  74.487  1.00  0.00     0.002 A 
HETATM   25  C6  UNL     1      10.180  36.493  75.536  1.00  0.00     0.026 A 
ENDBRANCH  16  19
ENDBRANCH  14  16
ENDBRANCH  11  14
BRANCH  12  26
HETATM   26  C19 UNL     1       8.760  33.658  80.994  1.00  0.00     0.219 C 
HETATM   27  O3  UNL     1       9.395  32.877  80.287  1.00  0.00    -0.643 OA
HETATM   28  O4  UNL     1       9.225  33.818  82.313  1.00  0.00    -0.643 OA
ENDBRANCH  12  26
ENDBRANCH   1   9
TORSDOF 5
ENDMDL
