MODEL 6
REMARK VINA RESULT: -8.327158563      1.366      1.835
REMARK  5 active torsions:
REMARK  status: ('A' for Active; 'I' for Inactive)
REMARK    1  A    between atoms: C7_7  and  S1_8 
REMARK    2  A    between atoms: S1_8  and  N1_11 
REMARK    3  A    between atoms: N1_11  and  C8_13 
REMARK    4  A    between atoms: C10_15  and  C11_16 
REMARK    5  A    between atoms: C18_25  and  C19_26 
ROOT
HETATM    1  C11 UNL     1      10.349  30.773  75.211  1.00  0.00    -0.019 A 
HETATM    2  C12 UNL     1      11.102  31.467  74.298  1.00  0.00     0.014 A 
HETATM    3  C13 UNL     1      12.386  31.064  74.021  1.00  0.00     0.023 A 
HETATM    4  C14 UNL     1      12.960  29.966  74.640  1.00  0.00     0.044 A 
HETATM    5  C15 UNL     1      14.310  29.553  74.341  1.00  0.00     0.099 C 
HETATM    6  N2  UNL     1      15.399  29.234  74.089  1.00  0.00    -0.191 NA
HETATM    7  C16 UNL     1      12.169  29.298  75.550  1.00  0.00     0.023 A 
HETATM    8  C17 UNL     1      10.879  29.690  75.838  1.00  0.00     0.014 A 
ENDROOT
BRANCH   1   9
HETATM    9  C10 UNL     1       8.958  31.204  75.514  1.00  0.00     0.018 A 
HETATM   10  C9  UNL     1       8.439  32.464  75.409  1.00  0.00     0.051 A 
HETATM   11  C8  UNL     1       7.140  32.627  75.740  1.00  0.00     0.068 A 
HETATM   12  C18 UNL     1       6.462  31.511  76.152  1.00  0.00     0.109 A 
HETATM   13  S2  UNL     1       7.638  30.283  76.067  1.00  0.00    -0.080 SA
BRANCH  11  14
HETATM   14  N1  UNL     1       6.448  33.911  75.667  1.00  0.00    -0.279 N 
ATOM     15  H1  UNL     1       5.638  34.010  75.055  1.00  0.00     0.179 HD
BRANCH  14  16
HETATM   16  S1  UNL     1       6.973  35.252  76.590  1.00  0.00     0.263 S 
HETATM   17  O1  UNL     1       7.586  34.788  77.878  1.00  0.00    -0.200 OA
HETATM   18  O2  UNL     1       5.810  36.138  76.941  1.00  0.00    -0.200 OA
BRANCH  16  19
HETATM   19  C7  UNL     1       8.177  36.158  75.717  1.00  0.00     0.085 A 
HETATM   20  C2  UNL     1       9.523  35.979  75.919  1.00  0.00    -0.039 A 
HETATM   21  C1  UNL     1       9.945  34.970  76.929  1.00  0.00     0.050 C 
HETATM   22  C3  UNL     1      10.475  36.707  75.209  1.00  0.00     0.008 A 
HETATM   23  C4  UNL     1      10.049  37.634  74.279  1.00  0.00     0.001 A 
HETATM   24  C5  UNL     1       8.702  37.817  74.075  1.00  0.00     0.002 A 
HETATM   25  C6  UNL     1       7.778  37.082  74.790  1.00  0.00     0.026 A 
ENDBRANCH  16  19
ENDBRANCH  14  16
ENDBRANCH  11  14
BRANCH  12  26
HETATM   26  C19 UNL     1       5.066  31.354  76.577  1.00  0.00     0.219 C 
HETATM   27  O3  UNL     1       4.314  32.254  76.948  1.00  0.00    -0.643 OA
HETATM   28  O4  UNL     1       4.519  30.056  76.563  1.00  0.00    -0.643 OA
ENDBRANCH  12  26
ENDBRANCH   1   9
TORSDOF 5
ENDMDL
