MODEL 4
REMARK VINA RESULT: -8.668896700      4.797      9.780
REMARK  5 active torsions:
REMARK  status: ('A' for Active; 'I' for Inactive)
REMARK    1  A    between atoms: C7_7  and  S1_8 
REMARK    2  A    between atoms: S1_8  and  N1_11 
REMARK    3  A    between atoms: N1_11  and  C8_13 
REMARK    4  A    between atoms: C10_15  and  C11_16 
REMARK    5  A    between atoms: C18_25  and  C19_26 
ROOT
HETATM    1  C11 UNL     1       3.167  38.274  79.607  1.00  0.00    -0.019 A 
HETATM    2  C12 UNL     1       3.575  39.457  79.046  1.00  0.00     0.014 A 
HETATM    3  C13 UNL     1       2.835  40.598  79.237  1.00  0.00     0.023 A 
HETATM    4  C14 UNL     1       1.671  40.601  79.988  1.00  0.00     0.044 A 
HETATM    5  C15 UNL     1       0.902  41.806  80.182  1.00  0.00     0.099 C 
HETATM    6  N2  UNL     1       0.293  42.786  80.328  1.00  0.00    -0.191 NA
HETATM    7  C16 UNL     1       1.297  39.391  80.534  1.00  0.00     0.023 A 
HETATM    8  C17 UNL     1       2.030  38.238  80.351  1.00  0.00     0.014 A 
ENDROOT
BRANCH   1   9
HETATM    9  C10 UNL     1       3.965  37.035  79.404  1.00  0.00     0.018 A 
HETATM   10  C9  UNL     1       5.187  36.926  78.803  1.00  0.00     0.051 A 
HETATM   11  C8  UNL     1       5.732  35.693  78.728  1.00  0.00     0.068 A 
HETATM   12  C18 UNL     1       5.005  34.662  79.262  1.00  0.00     0.109 A 
HETATM   13  S2  UNL     1       3.602  35.432  79.845  1.00  0.00    -0.080 SA
BRANCH  11  14
HETATM   14  N1  UNL     1       7.035  35.425  78.124  1.00  0.00    -0.279 N 
ATOM     15  H1  UNL     1       7.877  35.510  78.693  1.00  0.00     0.179 HD
BRANCH  14  16
HETATM   16  S1  UNL     1       7.171  34.973  76.480  1.00  0.00     0.263 S 
HETATM   17  O1  UNL     1       5.838  35.079  75.799  1.00  0.00    -0.200 OA
HETATM   18  O2  UNL     1       7.621  33.543  76.363  1.00  0.00    -0.200 OA
BRANCH  16  19
HETATM   19  C7  UNL     1       8.285  36.023  75.650  1.00  0.00     0.085 A 
HETATM   20  C2  UNL     1       9.643  35.942  75.828  1.00  0.00    -0.039 A 
HETATM   21  C1  UNL     1      10.160  34.914  76.774  1.00  0.00     0.050 C 
HETATM   22  C3  UNL     1      10.523  36.786  75.154  1.00  0.00     0.008 A 
HETATM   23  C4  UNL     1      10.011  37.727  74.285  1.00  0.00     0.001 A 
HETATM   24  C5  UNL     1       8.651  37.811  74.104  1.00  0.00     0.002 A 
HETATM   25  C6  UNL     1       7.800  36.963  74.783  1.00  0.00     0.026 A 
ENDBRANCH  16  19
ENDBRANCH  14  16
ENDBRANCH  11  14
BRANCH  12  26
HETATM   26  C19 UNL     1       5.308  33.228  79.336  1.00  0.00     0.219 C 
HETATM   27  O3  UNL     1       6.427  32.726  79.429  1.00  0.00    -0.643 OA
HETATM   28  O4  UNL     1       4.226  32.328  79.299  1.00  0.00    -0.643 OA
ENDBRANCH  12  26
ENDBRANCH   1   9
TORSDOF 5
ENDMDL
