MODEL 7
REMARK VINA RESULT: -8.243577788      1.773      2.269
REMARK  5 active torsions:
REMARK  status: ('A' for Active; 'I' for Inactive)
REMARK    1  A    between atoms: C7_7  and  S1_8 
REMARK    2  A    between atoms: S1_8  and  N1_11 
REMARK    3  A    between atoms: N1_11  and  C8_13 
REMARK    4  A    between atoms: C10_15  and  C11_16 
REMARK    5  A    between atoms: C18_25  and  C19_26 
ROOT
HETATM    1  C11 UNL     1       9.068  31.058  74.853  1.00  0.00    -0.019 A 
HETATM    2  C12 UNL     1      10.333  31.545  75.067  1.00  0.00     0.014 A 
HETATM    3  C13 UNL     1      11.389  31.055  74.337  1.00  0.00     0.023 A 
HETATM    4  C14 UNL     1      11.223  30.072  73.375  1.00  0.00     0.044 A 
HETATM    5  C15 UNL     1      12.340  29.567  72.614  1.00  0.00     0.099 C 
HETATM    6  N2  UNL     1      13.250  29.170  72.010  1.00  0.00    -0.191 NA
HETATM    7  C16 UNL     1       9.936  29.612  73.192  1.00  0.00     0.023 A 
HETATM    8  C17 UNL     1       8.867  30.094  73.917  1.00  0.00     0.014 A 
ENDROOT
BRANCH   1   9
HETATM    9  C10 UNL     1       7.921  31.584  75.640  1.00  0.00     0.018 A 
HETATM   10  C9  UNL     1       7.705  32.877  76.027  1.00  0.00     0.051 A 
HETATM   11  C8  UNL     1       6.588  33.131  76.742  1.00  0.00     0.068 A 
HETATM   12  C18 UNL     1       5.773  32.064  77.014  1.00  0.00     0.109 A 
HETATM   13  S2  UNL     1       6.577  30.757  76.276  1.00  0.00    -0.080 SA
BRANCH  11  14
HETATM   14  N1  UNL     1       6.221  34.463  77.214  1.00  0.00    -0.279 N 
ATOM     15  H1  UNL     1       5.260  34.787  77.105  1.00  0.00     0.179 HD
BRANCH  14  16
HETATM   16  S1  UNL     1       7.377  35.491  77.945  1.00  0.00     0.263 S 
HETATM   17  O1  UNL     1       8.049  34.789  79.087  1.00  0.00    -0.200 OA
HETATM   18  O2  UNL     1       6.712  36.719  78.503  1.00  0.00    -0.200 OA
BRANCH  16  19
HETATM   19  C7  UNL     1       8.604  35.943  76.794  1.00  0.00     0.085 A 
HETATM   20  C2  UNL     1       8.347  36.778  75.735  1.00  0.00    -0.039 A 
HETATM   21  C1  UNL     1       6.961  37.301  75.583  1.00  0.00     0.050 C 
HETATM   22  C3  UNL     1       9.339  37.135  74.824  1.00  0.00     0.008 A 
HETATM   23  C4  UNL     1      10.613  36.633  74.995  1.00  0.00     0.001 A 
HETATM   24  C5  UNL     1      10.874  35.796  76.054  1.00  0.00     0.002 A 
HETATM   25  C6  UNL     1       9.874  35.458  76.943  1.00  0.00     0.026 A 
ENDBRANCH  16  19
ENDBRANCH  14  16
ENDBRANCH  11  14
BRANCH  12  26
HETATM   26  C19 UNL     1       4.509  32.004  77.758  1.00  0.00     0.219 C 
HETATM   27  O3  UNL     1       4.282  32.528  78.847  1.00  0.00    -0.643 OA
HETATM   28  O4  UNL     1       3.445  31.282  77.183  1.00  0.00    -0.643 OA
ENDBRANCH  12  26
ENDBRANCH   1   9
TORSDOF 5
ENDMDL
