MODEL 1
REMARK VINA RESULT: -9.262868754      0.000      0.000
REMARK  5 active torsions:
REMARK  status: ('A' for Active; 'I' for Inactive)
REMARK    1  A    between atoms: C7_7  and  S1_8 
REMARK    2  A    between atoms: S1_8  and  N1_11 
REMARK    3  A    between atoms: N1_11  and  C8_13 
REMARK    4  A    between atoms: C10_15  and  C11_16 
REMARK    5  A    between atoms: C18_25  and  C19_26 
ROOT
HETATM    1  C11 UNL     1      11.141  30.776  74.722  1.00  0.00    -0.019 A 
HETATM    2  C12 UNL     1      11.872  31.294  73.683  1.00  0.00     0.014 A 
HETATM    3  C13 UNL     1      13.109  30.773  73.388  1.00  0.00     0.023 A 
HETATM    4  C14 UNL     1      13.656  29.727  74.112  1.00  0.00     0.044 A 
HETATM    5  C15 UNL     1      14.956  29.189  73.792  1.00  0.00     0.099 C 
HETATM    6  N2  UNL     1      16.005  28.767  73.522  1.00  0.00    -0.191 NA
HETATM    7  C16 UNL     1      12.889  29.237  75.147  1.00  0.00     0.023 A 
HETATM    8  C17 UNL     1      11.646  29.748  75.455  1.00  0.00     0.014 A 
ENDROOT
BRANCH   1   9
HETATM    9  C10 UNL     1       9.801  31.335  75.046  1.00  0.00     0.018 A 
HETATM   10  C9  UNL     1       9.491  32.220  76.040  1.00  0.00     0.051 A 
HETATM   11  C8  UNL     1       8.199  32.595  76.153  1.00  0.00     0.068 A 
HETATM   12  C18 UNL     1       7.316  32.050  75.258  1.00  0.00     0.109 A 
HETATM   13  S2  UNL     1       8.301  31.045  74.298  1.00  0.00    -0.080 SA
BRANCH  11  14
HETATM   14  N1  UNL     1       7.722  33.541  77.158  1.00  0.00    -0.279 N 
ATOM     15  H1  UNL     1       6.795  33.415  77.564  1.00  0.00     0.179 HD
BRANCH  14  16
HETATM   16  S1  UNL     1       8.692  34.856  77.665  1.00  0.00     0.263 S 
HETATM   17  O1  UNL     1      10.012  34.361  78.177  1.00  0.00    -0.200 OA
HETATM   18  O2  UNL     1       8.025  35.600  78.789  1.00  0.00    -0.200 OA
BRANCH  16  19
HETATM   19  C7  UNL     1       9.001  35.933  76.332  1.00  0.00     0.085 A 
HETATM   20  C2  UNL     1       8.003  36.648  75.717  1.00  0.00    -0.039 A 
HETATM   21  C1  UNL     1       6.613  36.478  76.224  1.00  0.00     0.050 C 
HETATM   22  C3  UNL     1       8.265  37.510  74.655  1.00  0.00     0.008 A 
HETATM   23  C4  UNL     1       9.565  37.645  74.211  1.00  0.00     0.001 A 
HETATM   24  C5  UNL     1      10.567  36.930  74.823  1.00  0.00     0.002 A 
HETATM   25  C6  UNL     1      10.281  36.083  75.874  1.00  0.00     0.026 A 
ENDBRANCH  16  19
ENDBRANCH  14  16
ENDBRANCH  11  14
BRANCH  12  26
HETATM   26  C19 UNL     1       5.869  32.246  75.118  1.00  0.00     0.219 C 
HETATM   27  O3  UNL     1       5.193  33.104  75.682  1.00  0.00    -0.643 OA
HETATM   28  O4  UNL     1       5.171  31.375  74.257  1.00  0.00    -0.643 OA
ENDBRANCH  12  26
ENDBRANCH   1   9
TORSDOF 5
ENDMDL
