MODEL 5
REMARK VINA RESULT: -8.511980167      0.369      1.307
REMARK  5 active torsions:
REMARK  status: ('A' for Active; 'I' for Inactive)
REMARK    1  A    between atoms: C7_7  and  S1_8 
REMARK    2  A    between atoms: S1_8  and  N1_11 
REMARK    3  A    between atoms: N1_11  and  C8_13 
REMARK    4  A    between atoms: C10_15  and  C11_16 
REMARK    5  A    between atoms: C18_25  and  C19_26 
ROOT
HETATM    1  C11 UNL     1      11.235  30.764  74.764  1.00  0.00    -0.019 A 
HETATM    2  C12 UNL     1      12.014  31.328  73.784  1.00  0.00     0.014 A 
HETATM    3  C13 UNL     1      13.242  30.788  73.490  1.00  0.00     0.023 A 
HETATM    4  C14 UNL     1      13.735  29.678  74.157  1.00  0.00     0.044 A 
HETATM    5  C15 UNL     1      15.027  29.121  73.838  1.00  0.00     0.099 C 
HETATM    6  N2  UNL     1      16.070  28.684  73.570  1.00  0.00    -0.191 NA
HETATM    7  C16 UNL     1      12.921  29.144  75.133  1.00  0.00     0.023 A 
HETATM    8  C17 UNL     1      11.686  29.674  75.438  1.00  0.00     0.014 A 
ENDROOT
BRANCH   1   9
HETATM    9  C10 UNL     1       9.903  31.344  75.087  1.00  0.00     0.018 A 
HETATM   10  C9  UNL     1       9.599  32.207  76.101  1.00  0.00     0.051 A 
HETATM   11  C8  UNL     1       8.314  32.608  76.208  1.00  0.00     0.068 A 
HETATM   12  C18 UNL     1       7.432  32.108  75.287  1.00  0.00     0.109 A 
HETATM   13  S2  UNL     1       8.407  31.108  74.312  1.00  0.00    -0.080 SA
BRANCH  11  14
HETATM   14  N1  UNL     1       7.844  33.535  77.234  1.00  0.00    -0.279 N 
ATOM     15  H1  UNL     1       6.981  33.331  77.736  1.00  0.00     0.179 HD
BRANCH  14  16
HETATM   16  S1  UNL     1       8.719  34.958  77.606  1.00  0.00     0.263 S 
HETATM   17  O1  UNL     1      10.133  34.618  77.971  1.00  0.00    -0.200 OA
HETATM   18  O2  UNL     1       8.107  35.657  78.788  1.00  0.00    -0.200 OA
BRANCH  16  19
HETATM   19  C7  UNL     1       8.759  36.025  76.231  1.00  0.00     0.085 A 
HETATM   20  C2  UNL     1       9.911  36.279  75.530  1.00  0.00    -0.039 A 
HETATM   21  C1  UNL     1      11.162  35.609  75.983  1.00  0.00     0.050 C 
HETATM   22  C3  UNL     1       9.928  37.131  74.428  1.00  0.00     0.008 A 
HETATM   23  C4  UNL     1       8.751  37.735  74.034  1.00  0.00     0.001 A 
HETATM   24  C5  UNL     1       7.594  37.484  74.734  1.00  0.00     0.002 A 
HETATM   25  C6  UNL     1       7.604  36.635  75.822  1.00  0.00     0.026 A 
ENDBRANCH  16  19
ENDBRANCH  14  16
ENDBRANCH  11  14
BRANCH  12  26
HETATM   26  C19 UNL     1       5.991  32.339  75.134  1.00  0.00     0.219 C 
HETATM   27  O3  UNL     1       5.341  33.245  75.653  1.00  0.00    -0.643 OA
HETATM   28  O4  UNL     1       5.269  31.447  74.317  1.00  0.00    -0.643 OA
ENDBRANCH  12  26
ENDBRANCH   1   9
TORSDOF 5
ENDMDL
