MODEL 1
REMARK VINA RESULT: -8.596032604      0.000      0.000
REMARK  5 active torsions:
REMARK  status: ('A' for Active; 'I' for Inactive)
REMARK    1  A    between atoms: C5_5  and  S1_6 
REMARK    2  A    between atoms: S1_6  and  N1_9 
REMARK    3  A    between atoms: N1_9  and  C6_11 
REMARK    4  A    between atoms: C8_13  and  C9_14 
REMARK    5  A    between atoms: C15_22  and  C16_23 
ROOT
HETATM    1  C6  UNL     1       8.339  32.242  76.034  1.00  0.00     0.068 A 
HETATM    2  C7  UNL     1       9.561  31.931  75.558  1.00  0.00     0.051 A 
HETATM    3  C8  UNL     1       9.647  31.526  74.250  1.00  0.00     0.018 A 
HETATM    4  S2  UNL     1       8.036  31.588  73.720  1.00  0.00    -0.080 SA
HETATM    5  C15 UNL     1       7.279  32.122  75.151  1.00  0.00     0.109 A 
ENDROOT
BRANCH   1   6
HETATM    6  N1  UNL     1       8.098  32.664  77.396  1.00  0.00    -0.279 N 
ATOM      7  H1  UNL     1       8.028  31.929  78.100  1.00  0.00     0.179 HD
BRANCH   6   8
HETATM    8  S1  UNL     1       7.922  34.243  77.932  1.00  0.00     0.263 S 
HETATM    9  O1  UNL     1       8.683  34.468  79.237  1.00  0.00    -0.200 OA
HETATM   10  O2  UNL     1       6.456  34.625  78.153  1.00  0.00    -0.200 OA
BRANCH   8  11
HETATM   11  C5  UNL     1       8.527  35.452  76.836  1.00  0.00     0.079 A 
HETATM   12  C4  UNL     1       9.875  35.614  76.532  1.00  0.00     0.026 A 
HETATM   13  C3  UNL     1      10.338  36.577  75.661  1.00  0.00     0.008 A 
HETATM   14  C2  UNL     1       9.464  37.441  75.040  1.00  0.00    -0.062 A 
HETATM   15  C1  UNL     1       9.913  38.496  74.094  1.00  0.00     0.048 C 
HETATM   16  C18 UNL     1       8.120  37.309  75.318  1.00  0.00     0.008 A 
HETATM   17  C17 UNL     1       7.665  36.346  76.188  1.00  0.00     0.026 A 
ENDBRANCH   8  11
ENDBRANCH   6   8
ENDBRANCH   1   6
BRANCH   5  18
HETATM   18  C16 UNL     1       5.871  32.389  75.396  1.00  0.00     0.219 C 
HETATM   19  O3  UNL     1       5.454  33.546  75.403  1.00  0.00    -0.643 OA
HETATM   20  O4  UNL     1       5.026  31.345  75.617  1.00  0.00    -0.643 OA
ENDBRANCH   5  18
BRANCH   3  21
HETATM   21  C9  UNL     1      10.833  31.139  73.504  1.00  0.00    -0.019 A 
HETATM   22  C10 UNL     1      10.754  30.165  72.540  1.00  0.00     0.016 A 
HETATM   23  C11 UNL     1      11.838  29.756  71.802  1.00  0.00     0.043 A 
HETATM   24  C12 UNL     1      13.069  30.325  72.012  1.00  0.00     0.116 A 
HETATM   25  F1  UNL     1      14.169  29.933  71.287  1.00  0.00    -0.206 F 
HETATM   26  C13 UNL     1      13.180  31.308  72.975  1.00  0.00     0.043 A 
HETATM   27  C14 UNL     1      12.061  31.710  73.717  1.00  0.00     0.016 A 
ENDBRANCH   3  21
TORSDOF 5
ENDMDL
