MODEL 2
REMARK VINA RESULT: -8.459427146      0.708      1.164
REMARK  5 active torsions:
REMARK  status: ('A' for Active; 'I' for Inactive)
REMARK    1  A    between atoms: C5_5  and  S1_6 
REMARK    2  A    between atoms: S1_6  and  N1_9 
REMARK    3  A    between atoms: N1_9  and  C6_11 
REMARK    4  A    between atoms: C8_13  and  C9_14 
REMARK    5  A    between atoms: C15_22  and  C16_23 
ROOT
HETATM    1  C6  UNL     1       8.478  32.380  76.604  1.00  0.00     0.068 A 
HETATM    2  C7  UNL     1       9.629  32.202  75.925  1.00  0.00     0.051 A 
HETATM    3  C8  UNL     1       9.553  31.582  74.702  1.00  0.00     0.018 A 
HETATM    4  S2  UNL     1       7.893  31.266  74.533  1.00  0.00    -0.080 SA
HETATM    5  C15 UNL     1       7.321  31.917  76.000  1.00  0.00     0.109 A 
ENDROOT
BRANCH   1   6
HETATM    6  N1  UNL     1       8.412  33.000  77.910  1.00  0.00    -0.279 N 
ATOM      7  H1  UNL     1       8.645  32.412  78.710  1.00  0.00     0.179 HD
BRANCH   6   8
HETATM    8  S1  UNL     1       7.991  34.589  78.237  1.00  0.00     0.263 S 
HETATM    9  O1  UNL     1       8.655  35.080  79.521  1.00  0.00    -0.200 OA
HETATM   10  O2  UNL     1       6.478  34.777  78.371  1.00  0.00    -0.200 OA
BRANCH   8  11
HETATM   11  C5  UNL     1       8.465  35.731  77.011  1.00  0.00     0.079 A 
HETATM   12  C4  UNL     1       7.576  36.587  76.367  1.00  0.00     0.026 A 
HETATM   13  C3  UNL     1       7.969  37.485  75.399  1.00  0.00     0.008 A 
HETATM   14  C2  UNL     1       9.288  37.577  75.018  1.00  0.00    -0.062 A 
HETATM   15  C1  UNL     1       9.761  38.530  73.979  1.00  0.00     0.048 C 
HETATM   16  C18 UNL     1      10.196  36.744  75.636  1.00  0.00     0.008 A 
HETATM   17  C17 UNL     1       9.799  35.849  76.601  1.00  0.00     0.026 A 
ENDBRANCH   8  11
ENDBRANCH   6   8
ENDBRANCH   1   6
BRANCH   5  18
HETATM   18  C16 UNL     1       5.959  31.978  76.505  1.00  0.00     0.219 C 
HETATM   19  O3  UNL     1       5.087  32.559  75.860  1.00  0.00    -0.643 OA
HETATM   20  O4  UNL     1       5.664  31.387  77.695  1.00  0.00    -0.643 OA
ENDBRANCH   5  18
BRANCH   3  21
HETATM   21  C9  UNL     1      10.633  31.274  73.781  1.00  0.00    -0.019 A 
HETATM   22  C10 UNL     1      10.506  30.237  72.891  1.00  0.00     0.016 A 
HETATM   23  C11 UNL     1      11.491  29.897  71.995  1.00  0.00     0.043 A 
HETATM   24  C12 UNL     1      12.667  30.604  71.963  1.00  0.00     0.116 A 
HETATM   25  F1  UNL     1      13.668  30.283  71.077  1.00  0.00    -0.206 F 
HETATM   26  C13 UNL     1      12.824  31.653  72.847  1.00  0.00     0.043 A 
HETATM   27  C14 UNL     1      11.806  31.983  73.752  1.00  0.00     0.016 A 
ENDBRANCH   3  21
TORSDOF 5
ENDMDL
