MODEL 4
REMARK VINA RESULT: -8.115645958      4.542      6.472
REMARK  5 active torsions:
REMARK  status: ('A' for Active; 'I' for Inactive)
REMARK    1  A    between atoms: C5_5  and  S1_6 
REMARK    2  A    between atoms: S1_6  and  N1_9 
REMARK    3  A    between atoms: N1_9  and  C6_11 
REMARK    4  A    between atoms: C8_13  and  C9_14 
REMARK    5  A    between atoms: C15_22  and  C16_23 
ROOT
HETATM    1  C6  UNL     1       5.504  34.146  78.341  1.00  0.00     0.068 A 
HETATM    2  C7  UNL     1       6.387  35.105  78.000  1.00  0.00     0.051 A 
HETATM    3  C8  UNL     1       6.926  35.051  76.739  1.00  0.00     0.018 A 
HETATM    4  S2  UNL     1       6.194  33.675  76.066  1.00  0.00    -0.080 SA
HETATM    5  C15 UNL     1       5.223  33.189  77.380  1.00  0.00     0.109 A 
ENDROOT
BRANCH   1   6
HETATM    6  N1  UNL     1       4.874  34.069  79.641  1.00  0.00    -0.279 N 
ATOM      7  H1  UNL     1       4.362  33.213  79.854  1.00  0.00     0.179 HD
BRANCH   6   8
HETATM    8  S1  UNL     1       4.902  35.249  80.832  1.00  0.00     0.263 S 
HETATM    9  O1  UNL     1       6.309  35.815  81.011  1.00  0.00    -0.200 OA
HETATM   10  O2  UNL     1       4.414  34.725  82.184  1.00  0.00    -0.200 OA
BRANCH   8  11
HETATM   11  C5  UNL     1       3.891  36.629  80.508  1.00  0.00     0.079 A 
HETATM   12  C4  UNL     1       4.088  37.497  79.439  1.00  0.00     0.026 A 
HETATM   13  C3  UNL     1       3.278  38.585  79.197  1.00  0.00     0.008 A 
HETATM   14  C2  UNL     1       2.213  38.867  80.024  1.00  0.00    -0.062 A 
HETATM   15  C1  UNL     1       1.311  40.028  79.806  1.00  0.00     0.048 C 
HETATM   16  C18 UNL     1       1.989  38.027  81.094  1.00  0.00     0.008 A 
HETATM   17  C17 UNL     1       2.801  36.943  81.330  1.00  0.00     0.026 A 
ENDBRANCH   8  11
ENDBRANCH   6   8
ENDBRANCH   1   6
BRANCH   5  18
HETATM   18  C16 UNL     1       4.319  32.055  77.480  1.00  0.00     0.219 C 
HETATM   19  O3  UNL     1       4.754  30.909  77.382  1.00  0.00    -0.643 OA
HETATM   20  O4  UNL     1       2.991  32.279  77.680  1.00  0.00    -0.643 OA
ENDBRANCH   5  18
BRANCH   3  21
HETATM   21  C9  UNL     1       7.889  35.954  76.132  1.00  0.00    -0.019 A 
HETATM   22  C10 UNL     1       7.457  37.068  75.456  1.00  0.00     0.016 A 
HETATM   23  C11 UNL     1       8.317  37.959  74.861  1.00  0.00     0.043 A 
HETATM   24  C12 UNL     1       9.673  37.757  74.926  1.00  0.00     0.116 A 
HETATM   25  F1  UNL     1      10.554  38.635  74.339  1.00  0.00    -0.206 F 
HETATM   26  C13 UNL     1      10.137  36.645  75.600  1.00  0.00     0.043 A 
HETATM   27  C14 UNL     1       9.243  35.749  76.200  1.00  0.00     0.016 A 
ENDBRANCH   3  21
TORSDOF 5
ENDMDL
