MODEL 3
REMARK VINA RESULT: -8.145012984      5.596      8.711
REMARK  5 active torsions:
REMARK  status: ('A' for Active; 'I' for Inactive)
REMARK    1  A    between atoms: C5_5  and  S1_6 
REMARK    2  A    between atoms: S1_6  and  N1_9 
REMARK    3  A    between atoms: N1_9  and  C6_11 
REMARK    4  A    between atoms: C8_13  and  C9_14 
REMARK    5  A    between atoms: C15_22  and  C16_23 
ROOT
HETATM    1  C6  UNL     1       5.436  35.154  79.082  1.00  0.00     0.068 A 
HETATM    2  C7  UNL     1       5.264  36.484  78.940  1.00  0.00     0.051 A 
HETATM    3  C8  UNL     1       4.174  37.050  79.553  1.00  0.00     0.018 A 
HETATM    4  S2  UNL     1       3.423  35.727  80.304  1.00  0.00    -0.080 SA
HETATM    5  C15 UNL     1       4.489  34.482  79.837  1.00  0.00     0.109 A 
ENDROOT
BRANCH   1   6
HETATM    6  N1  UNL     1       6.527  34.423  78.476  1.00  0.00    -0.279 N 
ATOM      7  H1  UNL     1       6.286  33.569  77.974  1.00  0.00     0.179 HD
BRANCH   6   8
HETATM    8  S1  UNL     1       8.150  34.842  78.517  1.00  0.00     0.263 S 
HETATM    9  O1  UNL     1       9.039  33.602  78.451  1.00  0.00    -0.200 OA
HETATM   10  O2  UNL     1       8.516  35.637  79.773  1.00  0.00    -0.200 OA
BRANCH   8  11
HETATM   11  C5  UNL     1       8.672  35.849  77.196  1.00  0.00     0.079 A 
HETATM   12  C4  UNL     1       9.957  35.821  76.664  1.00  0.00     0.026 A 
HETATM   13  C3  UNL     1      10.353  36.626  75.618  1.00  0.00     0.008 A 
HETATM   14  C2  UNL     1       9.473  37.513  75.040  1.00  0.00    -0.062 A 
HETATM   15  C1  UNL     1       9.853  38.402  73.910  1.00  0.00     0.048 C 
HETATM   16  C18 UNL     1       8.191  37.567  75.543  1.00  0.00     0.008 A 
HETATM   17  C17 UNL     1       7.801  36.762  76.587  1.00  0.00     0.026 A 
ENDBRANCH   8  11
ENDBRANCH   6   8
ENDBRANCH   1   6
BRANCH   5  18
HETATM   18  C16 UNL     1       4.431  33.063  80.147  1.00  0.00     0.219 C 
HETATM   19  O3  UNL     1       4.238  32.691  81.303  1.00  0.00    -0.643 OA
HETATM   20  O4  UNL     1       4.594  32.156  79.144  1.00  0.00    -0.643 OA
ENDBRANCH   5  18
BRANCH   3  21
HETATM   21  C9  UNL     1       3.768  38.445  79.555  1.00  0.00    -0.019 A 
HETATM   22  C10 UNL     1       4.622  39.413  79.088  1.00  0.00     0.016 A 
HETATM   23  C11 UNL     1       4.296  40.748  79.064  1.00  0.00     0.043 A 
HETATM   24  C12 UNL     1       3.071  41.166  79.520  1.00  0.00     0.116 A 
HETATM   25  F1  UNL     1       2.721  42.496  79.507  1.00  0.00    -0.206 F 
HETATM   26  C13 UNL     1       2.190  40.215  79.996  1.00  0.00     0.043 A 
HETATM   27  C14 UNL     1       2.543  38.859  80.011  1.00  0.00     0.016 A 
ENDBRANCH   3  21
TORSDOF 5
ENDMDL
