MODEL 6
REMARK VINA RESULT: -8.063950870      4.547      6.484
REMARK  5 active torsions:
REMARK  status: ('A' for Active; 'I' for Inactive)
REMARK    1  A    between atoms: C5_5  and  S1_6 
REMARK    2  A    between atoms: S1_6  and  N1_9 
REMARK    3  A    between atoms: N1_9  and  C6_11 
REMARK    4  A    between atoms: C8_13  and  C9_14 
REMARK    5  A    between atoms: C15_22  and  C16_23 
ROOT
HETATM    1  C6  UNL     1       5.474  34.153  78.373  1.00  0.00     0.068 A 
HETATM    2  C7  UNL     1       6.347  35.118  78.022  1.00  0.00     0.051 A 
HETATM    3  C8  UNL     1       6.853  35.081  76.748  1.00  0.00     0.018 A 
HETATM    4  S2  UNL     1       6.106  33.713  76.076  1.00  0.00    -0.080 SA
HETATM    5  C15 UNL     1       5.169  33.209  77.408  1.00  0.00     0.109 A 
ENDROOT
BRANCH   1   6
HETATM    6  N1  UNL     1       4.877  34.059  79.688  1.00  0.00    -0.279 N 
ATOM      7  H1  UNL     1       4.402  33.185  79.916  1.00  0.00     0.179 HD
BRANCH   6   8
HETATM    8  S1  UNL     1       4.888  35.244  80.874  1.00  0.00     0.263 S 
HETATM    9  O1  UNL     1       6.292  35.813  81.068  1.00  0.00    -0.200 OA
HETATM   10  O2  UNL     1       4.384  34.726  82.222  1.00  0.00    -0.200 OA
BRANCH   8  11
HETATM   11  C5  UNL     1       3.880  36.622  80.531  1.00  0.00     0.079 A 
HETATM   12  C4  UNL     1       4.086  37.482  79.458  1.00  0.00     0.026 A 
HETATM   13  C3  UNL     1       3.278  38.568  79.201  1.00  0.00     0.008 A 
HETATM   14  C2  UNL     1       2.206  38.855  80.016  1.00  0.00    -0.062 A 
HETATM   15  C1  UNL     1       1.305  40.014  79.781  1.00  0.00     0.048 C 
HETATM   16  C18 UNL     1       1.972  38.023  81.089  1.00  0.00     0.008 A 
HETATM   17  C17 UNL     1       2.782  36.940  81.340  1.00  0.00     0.026 A 
ENDBRANCH   8  11
ENDBRANCH   6   8
ENDBRANCH   1   6
BRANCH   5  18
HETATM   18  C16 UNL     1       4.270  32.072  77.516  1.00  0.00     0.219 C 
HETATM   19  O3  UNL     1       3.061  32.252  77.650  1.00  0.00    -0.643 OA
HETATM   20  O4  UNL     1       4.783  30.812  77.467  1.00  0.00    -0.643 OA
ENDBRANCH   5  18
BRANCH   3  21
HETATM   21  C9  UNL     1       7.799  35.994  76.128  1.00  0.00    -0.019 A 
HETATM   22  C10 UNL     1       9.148  35.763  76.231  1.00  0.00     0.016 A 
HETATM   23  C11 UNL     1      10.091  36.588  75.668  1.00  0.00     0.043 A 
HETATM   24  C12 UNL     1       9.702  37.701  74.964  1.00  0.00     0.116 A 
HETATM   25  F1  UNL     1      10.626  38.542  74.392  1.00  0.00    -0.206 F 
HETATM   26  C13 UNL     1       8.351  37.958  74.844  1.00  0.00     0.043 A 
HETATM   27  C14 UNL     1       7.406  37.104  75.426  1.00  0.00     0.016 A 
ENDBRANCH   3  21
TORSDOF 5
ENDMDL
