MODEL 2
REMARK VINA RESULT: -10.942827200      1.434      1.652
REMARK  15 active torsions:
REMARK  status: ('A' for Active; 'I' for Inactive)
REMARK    1  A    between atoms: C1_2  and  C2_4 
REMARK    2  A    between atoms: N2_6  and  C4_7 
REMARK    3  A    between atoms: C5_9  and  C6_10 
REMARK    4  A    between atoms: C6_10  and  O3_11 
REMARK    5  A    between atoms: O3_11  and  P1_12 
REMARK    6  A    between atoms: P1_12  and  O6_15 
REMARK    7  A    between atoms: O6_15  and  P2_16 
REMARK    8  A    between atoms: P2_16  and  O9_19 
REMARK    9  A    between atoms: O9_19  and  C7_20 
REMARK   10  A    between atoms: C7_20  and  C8_21 
REMARK   11  A    between atoms: C9_23  and  N3_24 
REMARK   12  A    between atoms: C15_37  and  O11_38 
REMARK   13  A    between atoms: C16_40  and  O12_41 
REMARK   14  A    between atoms: C17_43  and  O13_44 
REMARK   15  A    between atoms: C18_46  and  O14_47 
ROOT
HETATM    1  P2  UNL     1      18.558   3.013  -1.439  1.00  0.00     0.417 P 
HETATM    2  O7  UNL     1      18.133   4.257  -0.688  1.00  0.00    -0.624 OA
HETATM    3  O8  UNL     1      19.388   2.015  -0.397  1.00  0.00    -0.624 OA
ENDROOT
BRANCH   1   4
HETATM    4  O6  UNL     1      17.190   2.313  -2.104  1.00  0.00    -0.180 OA
BRANCH   4   5
HETATM    5  P1  UNL     1      16.235   1.505  -1.014  1.00  0.00     0.417 P 
HETATM    6  O4  UNL     1      16.120   2.310   0.259  1.00  0.00    -0.624 OA
HETATM    7  O5  UNL     1      14.656   1.424  -1.668  1.00  0.00    -0.624 OA
BRANCH   5   8
HETATM    8  O3  UNL     1      16.730  -0.074  -0.716  1.00  0.00    -0.287 OA
BRANCH   8   9
HETATM    9  C6  UNL     1      15.887  -0.934  -1.375  1.00  0.00     0.216 C 
BRANCH   9  10
HETATM   10  C5  UNL     1      15.459  -2.108  -0.528  1.00  0.00     0.180 C 
HETATM   11  O2  UNL     1      14.783  -3.038  -1.317  1.00  0.00    -0.353 OA
HETATM   12  C4  UNL     1      14.793  -4.241  -0.656  1.00  0.00     0.259 C 
HETATM   13  C18 UNL     1      15.988  -4.249   0.270  1.00  0.00     0.198 C 
HETATM   14  C17 UNL     1      16.647  -2.924  -0.061  1.00  0.00     0.182 C 
BRANCH  12  15
HETATM   15  N2  UNL     1      14.939  -5.374  -1.547  1.00  0.00    -0.337 N 
HETATM   16  C3  UNL     1      13.904  -5.681  -2.459  1.00  0.00     0.105 A 
HETATM   17  C2  UNL     1      13.948  -6.710  -3.320  1.00  0.00     0.026 A 
HETATM   18  C21 UNL     1      15.136  -7.592  -3.341  1.00  0.00     0.073 A 
HETATM   19  C20 UNL     1      16.174  -7.222  -2.371  1.00  0.00    -0.005 A 
HETATM   20  C19 UNL     1      16.091  -6.193  -1.533  1.00  0.00     0.089 A 
BRANCH  17  21
HETATM   21  C1  UNL     1      12.839  -6.950  -4.221  1.00  0.00     0.262 C 
HETATM   22  N1  UNL     1      12.169  -5.862  -4.813  1.00  0.00    -0.057 NA
HETATM   23  O1  UNL     1      12.484  -8.116  -4.468  1.00  0.00    -0.271 OA
ENDBRANCH  17  21
ENDBRANCH  12  15
BRANCH  13  24
HETATM   24  O14 UNL     1      15.538  -4.265   1.587  1.00  0.00    -0.388 OA
ATOM     25  H14 UNL     1      15.907  -5.019   2.031  1.00  0.00     0.210 HD
ENDBRANCH  13  24
BRANCH  14  26
HETATM   26  O13 UNL     1      17.229  -2.397   1.081  1.00  0.00    -0.390 OA
ATOM     27  H13 UNL     1      18.177  -2.372   1.024  1.00  0.00     0.210 HD
ENDBRANCH  14  26
ENDBRANCH   9  10
ENDBRANCH   8   9
ENDBRANCH   5   8
ENDBRANCH   4   5
ENDBRANCH   1   4
BRANCH   1  28
HETATM   28  O9  UNL     1      19.537   3.555  -2.733  1.00  0.00    -0.287 OA
BRANCH  28  29
HETATM   29  C7  UNL     1      20.854   3.457  -2.278  1.00  0.00     0.216 C 
BRANCH  29  30
HETATM   30  C8  UNL     1      21.497   4.799  -2.096  1.00  0.00     0.180 C 
HETATM   31  O10 UNL     1      22.741   4.802  -2.663  1.00  0.00    -0.353 OA
HETATM   32  C9  UNL     1      22.974   5.999  -3.272  1.00  0.00     0.262 C 
HETATM   33  C15 UNL     1      21.823   6.913  -3.040  1.00  0.00     0.198 C 
HETATM   34  C16 UNL     1      20.697   5.925  -2.712  1.00  0.00     0.182 C 
BRANCH  32  35
HETATM   35  N3  UNL     1      23.202   5.854  -4.706  1.00  0.00    -0.297 N 
HETATM   36  C10 UNL     1      22.977   4.787  -5.491  1.00  0.00     0.188 A 
HETATM   37  N4  UNL     1      23.327   5.078  -6.754  1.00  0.00    -0.346 N 
HETATM   38  C11 UNL     1      23.775   6.342  -6.752  1.00  0.00     0.119 A 
ATOM     39  H4  UNL     1      23.264   4.457  -7.561  1.00  0.00     0.167 HD
HETATM   40  C12 UNL     1      24.255   7.144  -7.760  1.00  0.00     0.148 A 
HETATM   41  C14 UNL     1      23.702   6.836  -5.484  1.00  0.00     0.142 A 
HETATM   42  N5  UNL     1      24.327   6.618  -9.079  1.00  0.00    -0.080 NA
HETATM   43  N6  UNL     1      24.639   8.383  -7.472  1.00  0.00    -0.339 N 
HETATM   44  C13 UNL     1      24.563   8.858  -6.226  1.00  0.00     0.183 A 
ATOM     45  H6  UNL     1      24.998   8.982  -8.216  1.00  0.00     0.167 HD
HETATM   46  N7  UNL     1      24.096   8.090  -5.230  1.00  0.00    -0.336 N 
ATOM     47  H7  UNL     1      24.042   8.460  -4.281  1.00  0.00     0.168 HD
ENDBRANCH  32  35
BRANCH  33  48
HETATM   48  O11 UNL     1      22.066   7.714  -1.903  1.00  0.00    -0.388 OA
ATOM     49  H11 UNL     1      21.266   7.819  -1.403  1.00  0.00     0.210 HD
ENDBRANCH  33  48
BRANCH  34  50
HETATM   50  O12 UNL     1      19.783   6.457  -1.832  1.00  0.00    -0.390 OA
ATOM     51  H12 UNL     1      19.061   6.886  -2.277  1.00  0.00     0.210 HD
ENDBRANCH  34  50
ENDBRANCH  29  30
ENDBRANCH  28  29
ENDBRANCH   1  28
TORSDOF 15
ENDMDL
