MODEL 3
REMARK VINA RESULT: -10.924380579      4.654      7.038
REMARK  15 active torsions:
REMARK  status: ('A' for Active; 'I' for Inactive)
REMARK    1  A    between atoms: C1_2  and  C2_4 
REMARK    2  A    between atoms: N2_6  and  C4_7 
REMARK    3  A    between atoms: C5_9  and  C6_10 
REMARK    4  A    between atoms: C6_10  and  O3_11 
REMARK    5  A    between atoms: O3_11  and  P1_12 
REMARK    6  A    between atoms: P1_12  and  O6_15 
REMARK    7  A    between atoms: O6_15  and  P2_16 
REMARK    8  A    between atoms: P2_16  and  O9_19 
REMARK    9  A    between atoms: O9_19  and  C7_20 
REMARK   10  A    between atoms: C7_20  and  C8_21 
REMARK   11  A    between atoms: C9_23  and  N3_24 
REMARK   12  A    between atoms: C15_37  and  O11_38 
REMARK   13  A    between atoms: C16_40  and  O12_41 
REMARK   14  A    between atoms: C17_43  and  O13_44 
REMARK   15  A    between atoms: C18_46  and  O14_47 
ROOT
HETATM    1  P2  UNL     1      18.251  -4.532  -1.146  1.00  0.00     0.417 P 
HETATM    2  O7  UNL     1      17.465  -5.522  -0.312  1.00  0.00    -0.624 OA
HETATM    3  O8  UNL     1      19.865  -4.930  -1.069  1.00  0.00    -0.624 OA
ENDROOT
BRANCH   1   4
HETATM    4  O6  UNL     1      17.621  -4.542  -2.698  1.00  0.00    -0.180 OA
BRANCH   4   5
HETATM    5  P1  UNL     1      18.004  -5.891  -3.583  1.00  0.00     0.417 P 
HETATM    6  O4  UNL     1      17.374  -5.799  -4.953  1.00  0.00    -0.624 OA
HETATM    7  O5  UNL     1      19.696  -5.881  -3.839  1.00  0.00    -0.624 OA
BRANCH   5   8
HETATM    8  O3  UNL     1      17.628  -7.339  -2.816  1.00  0.00    -0.287 OA
BRANCH   8   9
HETATM    9  C6  UNL     1      16.393  -7.759  -3.243  1.00  0.00     0.216 C 
BRANCH   9  10
HETATM   10  C5  UNL     1      15.302  -6.747  -2.990  1.00  0.00     0.180 C 
HETATM   11  O2  UNL     1      14.350  -6.815  -4.006  1.00  0.00    -0.353 OA
HETATM   12  C4  UNL     1      13.198  -6.228  -3.546  1.00  0.00     0.259 C 
HETATM   13  C18 UNL     1      13.201  -6.324  -2.037  1.00  0.00     0.198 C 
HETATM   14  C17 UNL     1      14.469  -7.115  -1.779  1.00  0.00     0.182 C 
BRANCH  12  15
HETATM   15  N2  UNL     1      11.999  -6.896  -4.010  1.00  0.00    -0.337 N 
HETATM   16  C3  UNL     1      11.629  -6.798  -5.371  1.00  0.00     0.105 A 
HETATM   17  C2  UNL     1      10.538  -7.380  -5.892  1.00  0.00     0.026 A 
HETATM   18  C21 UNL     1       9.650  -8.178  -5.019  1.00  0.00     0.073 A 
HETATM   19  C20 UNL     1      10.087  -8.242  -3.619  1.00  0.00    -0.005 A 
HETATM   20  C19 UNL     1      11.177  -7.649  -3.141  1.00  0.00     0.089 A 
BRANCH  17  21
HETATM   21  C1  UNL     1      10.237  -7.225  -7.302  1.00  0.00     0.262 C 
HETATM   22  N1  UNL     1      11.285  -7.124  -8.236  1.00  0.00    -0.057 NA
HETATM   23  O1  UNL     1       9.052  -7.184  -7.679  1.00  0.00    -0.271 OA
ENDBRANCH  17  21
ENDBRANCH  12  15
BRANCH  13  24
HETATM   24  O14 UNL     1      13.299  -5.042  -1.504  1.00  0.00    -0.388 OA
ATOM     25  H14 UNL     1      14.120  -4.654  -1.783  1.00  0.00     0.210 HD
ENDBRANCH  13  24
BRANCH  14  26
HETATM   26  O13 UNL     1      15.048  -6.689  -0.594  1.00  0.00    -0.390 OA
ATOM     27  H13 UNL     1      15.819  -7.196  -0.367  1.00  0.00     0.210 HD
ENDBRANCH  14  26
ENDBRANCH   9  10
ENDBRANCH   8   9
ENDBRANCH   5   8
ENDBRANCH   4   5
ENDBRANCH   1   4
BRANCH   1  28
HETATM   28  O9  UNL     1      17.932  -2.992  -0.473  1.00  0.00    -0.287 OA
BRANCH  28  29
HETATM   29  C7  UNL     1      16.732  -3.125   0.227  1.00  0.00     0.216 C 
BRANCH  29  30
HETATM   30  C8  UNL     1      15.780  -2.002  -0.051  1.00  0.00     0.180 C 
HETATM   31  O10 UNL     1      16.224  -0.854   0.546  1.00  0.00    -0.353 OA
HETATM   32  C9  UNL     1      15.996   0.214  -0.269  1.00  0.00     0.262 C 
HETATM   33  C15 UNL     1      15.272  -0.230  -1.491  1.00  0.00     0.198 C 
HETATM   34  C16 UNL     1      15.607  -1.727  -1.528  1.00  0.00     0.182 C 
BRANCH  32  35
HETATM   35  N3  UNL     1      17.231   0.891  -0.652  1.00  0.00    -0.297 N 
HETATM   36  C10 UNL     1      18.446   0.363  -0.876  1.00  0.00     0.188 A 
HETATM   37  N4  UNL     1      19.305   1.340  -1.206  1.00  0.00    -0.346 N 
HETATM   38  C11 UNL     1      18.614   2.489  -1.187  1.00  0.00     0.119 A 
ATOM     39  H4  UNL     1      20.295   1.229  -1.430  1.00  0.00     0.167 HD
HETATM   40  C12 UNL     1      18.989   3.787  -1.443  1.00  0.00     0.148 A 
HETATM   41  C14 UNL     1      17.323   2.223  -0.844  1.00  0.00     0.142 A 
HETATM   42  N5  UNL     1      20.339   4.052  -1.800  1.00  0.00    -0.080 NA
HETATM   43  N6  UNL     1      18.081   4.751  -1.348  1.00  0.00    -0.339 N 
HETATM   44  C13 UNL     1      16.817   4.481  -1.011  1.00  0.00     0.183 A 
ATOM     45  H6  UNL     1      18.354   5.716  -1.535  1.00  0.00     0.167 HD
HETATM   46  N7  UNL     1      16.433   3.220  -0.758  1.00  0.00    -0.336 N 
ATOM     47  H7  UNL     1      15.466   3.022  -0.502  1.00  0.00     0.168 HD
ENDBRANCH  32  35
BRANCH  33  48
HETATM   48  O11 UNL     1      13.880  -0.084  -1.306  1.00  0.00    -0.388 OA
ATOM     49  H11 UNL     1      13.433  -0.880  -1.567  1.00  0.00     0.210 HD
ENDBRANCH  33  48
BRANCH  34  50
HETATM   50  O12 UNL     1      14.590  -2.470  -2.081  1.00  0.00    -0.390 OA
ATOM     51  H12 UNL     1      14.893  -3.312  -2.401  1.00  0.00     0.210 HD
ENDBRANCH  34  50
ENDBRANCH  29  30
ENDBRANCH  28  29
ENDBRANCH   1  28
TORSDOF 15
ENDMDL
