MODEL 1
REMARK VINA RESULT: -11.102798176      0.000      0.000
REMARK  15 active torsions:
REMARK  status: ('A' for Active; 'I' for Inactive)
REMARK    1  A    between atoms: C1_2  and  C2_4 
REMARK    2  A    between atoms: N2_6  and  C4_7 
REMARK    3  A    between atoms: C5_9  and  C6_10 
REMARK    4  A    between atoms: C6_10  and  O3_11 
REMARK    5  A    between atoms: O3_11  and  P1_12 
REMARK    6  A    between atoms: P1_12  and  O6_15 
REMARK    7  A    between atoms: O6_15  and  P2_16 
REMARK    8  A    between atoms: P2_16  and  O9_19 
REMARK    9  A    between atoms: O9_19  and  C7_20 
REMARK   10  A    between atoms: C7_20  and  C8_21 
REMARK   11  A    between atoms: C9_23  and  N3_24 
REMARK   12  A    between atoms: C15_37  and  O11_38 
REMARK   13  A    between atoms: C16_40  and  O12_41 
REMARK   14  A    between atoms: C17_43  and  O13_44 
REMARK   15  A    between atoms: C18_46  and  O14_47 
ROOT
HETATM    1  P2  UNL     1      19.922   1.383  -0.698  1.00  0.00     0.417 P 
HETATM    2  O7  UNL     1      19.254   0.953   0.591  1.00  0.00    -0.624 OA
HETATM    3  O8  UNL     1      21.052   0.236  -1.123  1.00  0.00    -0.624 OA
ENDROOT
BRANCH   1   4
HETATM    4  O6  UNL     1      18.729   1.621  -1.849  1.00  0.00    -0.180 OA
BRANCH   4   5
HETATM    5  P1  UNL     1      17.184   1.601  -1.247  1.00  0.00     0.417 P 
HETATM    6  O4  UNL     1      16.910   2.885  -0.500  1.00  0.00    -0.624 OA
HETATM    7  O5  UNL     1      16.108   1.590  -2.578  1.00  0.00    -0.624 OA
BRANCH   5   8
HETATM    8  O3  UNL     1      16.833   0.247  -0.315  1.00  0.00    -0.287 OA
BRANCH   8   9
HETATM    9  C6  UNL     1      16.207  -0.685  -1.106  1.00  0.00     0.216 C 
BRANCH   9  10
HETATM   10  C5  UNL     1      15.753  -1.903  -0.339  1.00  0.00     0.180 C 
HETATM   11  O2  UNL     1      15.078  -2.774  -1.193  1.00  0.00    -0.353 OA
HETATM   12  C4  UNL     1      15.065  -4.015  -0.607  1.00  0.00     0.259 C 
HETATM   13  C18 UNL     1      16.246  -4.096   0.333  1.00  0.00     0.198 C 
HETATM   14  C17 UNL     1      16.925  -2.760   0.093  1.00  0.00     0.182 C 
BRANCH  12  15
HETATM   15  N2  UNL     1      15.211  -5.094  -1.564  1.00  0.00    -0.337 N 
HETATM   16  C3  UNL     1      14.119  -5.443  -2.391  1.00  0.00     0.105 A 
HETATM   17  C2  UNL     1      14.159  -6.426  -3.304  1.00  0.00     0.026 A 
HETATM   18  C21 UNL     1      15.403  -7.209  -3.479  1.00  0.00     0.073 A 
HETATM   19  C20 UNL     1      16.498  -6.799  -2.591  1.00  0.00    -0.005 A 
HETATM   20  C19 UNL     1      16.418  -5.817  -1.697  1.00  0.00     0.089 A 
BRANCH  17  21
HETATM   21  C1  UNL     1      12.990  -6.715  -4.110  1.00  0.00     0.262 C 
HETATM   22  N1  UNL     1      12.581  -8.049  -4.300  1.00  0.00    -0.057 NA
HETATM   23  O1  UNL     1      12.352  -5.782  -4.631  1.00  0.00    -0.271 OA
ENDBRANCH  17  21
ENDBRANCH  12  15
BRANCH  13  24
HETATM   24  O14 UNL     1      15.777  -4.186   1.640  1.00  0.00    -0.388 OA
ATOM     25  H14 UNL     1      16.118  -4.980   2.036  1.00  0.00     0.210 HD
ENDBRANCH  13  24
BRANCH  14  26
HETATM   26  O13 UNL     1      17.497  -2.312   1.274  1.00  0.00    -0.390 OA
ATOM     27  H13 UNL     1      17.265  -2.858   2.016  1.00  0.00     0.210 HD
ENDBRANCH  14  26
ENDBRANCH   9  10
ENDBRANCH   8   9
ENDBRANCH   5   8
ENDBRANCH   4   5
ENDBRANCH   1   4
BRANCH   1  28
HETATM   28  O9  UNL     1      20.635   2.904  -0.376  1.00  0.00    -0.287 OA
BRANCH  28  29
HETATM   29  C7  UNL     1      21.314   3.260  -1.542  1.00  0.00     0.216 C 
BRANCH  29  30
HETATM   30  C8  UNL     1      20.956   4.636  -2.015  1.00  0.00     0.180 C 
HETATM   31  O10 UNL     1      22.038   5.221  -2.614  1.00  0.00    -0.353 OA
HETATM   32  C9  UNL     1      21.639   5.938  -3.702  1.00  0.00     0.262 C 
HETATM   33  C15 UNL     1      20.156   5.897  -3.815  1.00  0.00     0.198 C 
HETATM   34  C16 UNL     1      19.812   4.640  -3.006  1.00  0.00     0.182 C 
BRANCH  32  35
HETATM   35  N3  UNL     1      22.238   5.444  -4.939  1.00  0.00    -0.297 N 
HETATM   36  C10 UNL     1      22.912   4.301  -5.150  1.00  0.00     0.188 A 
HETATM   37  N4  UNL     1      23.292   4.236  -6.435  1.00  0.00    -0.346 N 
HETATM   38  C11 UNL     1      22.848   5.354  -7.029  1.00  0.00     0.119 A 
ATOM     39  H4  UNL     1      23.818   3.481  -6.876  1.00  0.00     0.167 HD
HETATM   40  C12 UNL     1      22.952   5.805  -8.323  1.00  0.00     0.148 A 
HETATM   41  C14 UNL     1      22.191   6.113  -6.109  1.00  0.00     0.142 A 
HETATM   42  N5  UNL     1      23.640   5.004  -9.275  1.00  0.00    -0.080 NA
HETATM   43  N6  UNL     1      22.408   6.973  -8.645  1.00  0.00    -0.339 N 
HETATM   44  C13 UNL     1      21.764   7.710  -7.736  1.00  0.00     0.183 A 
ATOM     45  H6  UNL     1      22.483   7.314  -9.604  1.00  0.00     0.167 HD
HETATM   46  N7  UNL     1      21.653   7.286  -6.468  1.00  0.00    -0.336 N 
ATOM     47  H7  UNL     1      21.160   7.855  -5.779  1.00  0.00     0.168 HD
ENDBRANCH  32  35
BRANCH  33  48
HETATM   48  O11 UNL     1      19.593   7.019  -3.168  1.00  0.00    -0.388 OA
ATOM     49  H11 UNL     1      18.818   7.307  -3.634  1.00  0.00     0.210 HD
ENDBRANCH  33  48
BRANCH  34  50
HETATM   50  O12 UNL     1      18.588   4.743  -2.388  1.00  0.00    -0.390 OA
ATOM     51  H12 UNL     1      18.332   3.934  -1.960  1.00  0.00     0.210 HD
ENDBRANCH  34  50
ENDBRANCH  29  30
ENDBRANCH  28  29
ENDBRANCH   1  28
TORSDOF 15
ENDMDL
