MODEL 6
REMARK VINA RESULT: -7.980622696      3.590      5.355
REMARK  10 active torsions:
REMARK  status: ('A' for Active; 'I' for Inactive)
REMARK    1  A    between atoms: N1_2  and  C3_4 
REMARK    2  A    between atoms: C8_9  and  S1_10 
REMARK    3  A    between atoms: S1_10  and  N2_13 
REMARK    4  A    between atoms: N2_13  and  C9_15 
REMARK    5  A    between atoms: C9_15  and  C10_16 
REMARK    6  A    between atoms: C10_16  and  C11_17 
REMARK    7  A    between atoms: C11_17  and  C12_18 
REMARK    8  A    between atoms: C12_18  and  N3_19 
REMARK       I    between atoms: N3_19  and  C13_21 
REMARK    9  A    between atoms: C13_21  and  C14_23 
REMARK   10  A    between atoms: C14_23  and  C15_24 
ROOT
HETATM    1  S1  UNL     1      29.362  44.818  37.145  1.00  0.00     0.259 S 
HETATM    2  O1  UNL     1      28.782  46.136  37.676  1.00  0.00    -0.201 OA
HETATM    3  O2  UNL     1      28.453  43.761  37.730  1.00  0.00    -0.201 OA
ENDROOT
BRANCH   1   4
HETATM    4  C8  UNL     1      29.268  44.884  35.425  1.00  0.00     0.090 A 
HETATM    5  C7  UNL     1      29.755  45.953  34.715  1.00  0.00    -0.000 A 
HETATM    6  C6  UNL     1      30.454  46.982  35.304  1.00  0.00     0.014 A 
HETATM    7  C19 UNL     1      29.572  46.025  33.321  1.00  0.00     0.002 A 
HETATM    8  C5  UNL     1      30.973  48.062  34.608  1.00  0.00     0.003 A 
HETATM    9  C4  UNL     1      30.765  48.083  33.256  1.00  0.00     0.030 A 
HETATM   10  C3  UNL     1      30.075  47.082  32.615  1.00  0.00     0.040 A 
HETATM   11  C18 UNL     1      28.897  44.998  32.684  1.00  0.00     0.014 A 
HETATM   12  C17 UNL     1      28.403  43.913  33.369  1.00  0.00     0.003 A 
HETATM   13  C16 UNL     1      28.595  43.874  34.713  1.00  0.00     0.026 A 
BRANCH  10  14
HETATM   14  N1  UNL     1      29.912  47.156  31.220  1.00  0.00    -0.389 N 
HETATM   15  C1  UNL     1      30.328  46.078  30.347  1.00  0.00     0.149 C 
HETATM   16  C2  UNL     1      29.303  48.362  30.689  1.00  0.00     0.149 C 
ENDBRANCH  10  14
ENDBRANCH   1   4
BRANCH   1  17
HETATM   17  N2  UNL     1      30.939  44.707  37.696  1.00  0.00    -0.315 N 
ATOM     18  H2  UNL     1      31.251  45.356  38.419  1.00  0.00     0.172 HD
BRANCH  17  19
HETATM   19  C9  UNL     1      31.844  43.766  37.208  1.00  0.00     0.132 C 
BRANCH  19  20
HETATM   20  C10 UNL     1      33.238  44.400  37.183  1.00  0.00     0.022 C 
BRANCH  20  21
HETATM   21  C11 UNL     1      33.079  45.855  36.822  1.00  0.00     0.021 C 
BRANCH  21  22
HETATM   22  C12 UNL     1      34.414  46.391  36.361  1.00  0.00     0.122 C 
BRANCH  22  23
HETATM   23  N3  UNL     1      34.410  46.693  34.944  1.00  0.00    -0.361 N 
HETATM   24  C13 UNL     1      35.621  46.576  34.221  1.00  0.00     0.218 C 
HETATM   25  O3  UNL     1      36.711  46.234  34.704  1.00  0.00    -0.274 OA
ATOM     26  H3  UNL     1      33.551  46.983  34.477  1.00  0.00     0.162 HD
BRANCH  24  27
HETATM   27  C14 UNL     1      35.560  46.897  32.756  1.00  0.00     0.113 C 
BRANCH  27  28
HETATM   28  C15 UNL     1      36.061  45.731  31.964  1.00  0.00     0.095 C 
HETATM   29  S2  UNL     1      34.831  45.312  30.697  1.00  0.00    -0.097 SA
ENDBRANCH  27  28
ENDBRANCH  24  27
ENDBRANCH  22  23
ENDBRANCH  21  22
ENDBRANCH  20  21
ENDBRANCH  19  20
ENDBRANCH  17  19
ENDBRANCH   1  17
TORSDOF 10
ENDMDL
