MODEL 4
REMARK VINA RESULT: -8.036738171      3.846      7.913
REMARK  10 active torsions:
REMARK  status: ('A' for Active; 'I' for Inactive)
REMARK    1  A    between atoms: N1_2  and  C3_4 
REMARK    2  A    between atoms: C8_9  and  S1_10 
REMARK    3  A    between atoms: S1_10  and  N2_13 
REMARK    4  A    between atoms: N2_13  and  C9_15 
REMARK    5  A    between atoms: C9_15  and  C10_16 
REMARK    6  A    between atoms: C10_16  and  C11_17 
REMARK    7  A    between atoms: C11_17  and  C12_18 
REMARK    8  A    between atoms: C12_18  and  N3_19 
REMARK       I    between atoms: N3_19  and  C13_21 
REMARK    9  A    between atoms: C13_21  and  C14_23 
REMARK   10  A    between atoms: C14_23  and  C15_24 
ROOT
HETATM    1  S1  UNL     1      28.755  46.265  35.404  1.00  0.00     0.259 S 
HETATM    2  O1  UNL     1      27.246  46.328  35.682  1.00  0.00    -0.201 OA
HETATM    3  O2  UNL     1      29.235  47.668  35.700  1.00  0.00    -0.201 OA
ENDROOT
BRANCH   1   4
HETATM    4  C8  UNL     1      29.419  45.103  36.490  1.00  0.00     0.090 A 
HETATM    5  C7  UNL     1      30.770  45.011  36.712  1.00  0.00    -0.000 A 
HETATM    6  C6  UNL     1      31.674  45.905  36.185  1.00  0.00     0.014 A 
HETATM    7  C19 UNL     1      31.290  43.986  37.526  1.00  0.00     0.002 A 
HETATM    8  C5  UNL     1      33.041  45.847  36.409  1.00  0.00     0.003 A 
HETATM    9  C4  UNL     1      33.492  44.830  37.206  1.00  0.00     0.030 A 
HETATM   10  C3  UNL     1      32.635  43.910  37.759  1.00  0.00     0.040 A 
HETATM   11  C18 UNL     1      30.414  43.081  38.097  1.00  0.00     0.014 A 
HETATM   12  C17 UNL     1      29.055  43.151  37.896  1.00  0.00     0.003 A 
HETATM   13  C16 UNL     1      28.586  44.151  37.105  1.00  0.00     0.026 A 
BRANCH  10  14
HETATM   14  N1  UNL     1      33.163  42.899  38.584  1.00  0.00    -0.389 N 
HETATM   15  C1  UNL     1      33.621  41.638  38.041  1.00  0.00     0.149 C 
HETATM   16  C2  UNL     1      33.231  43.177  40.007  1.00  0.00     0.149 C 
ENDBRANCH  10  14
ENDBRANCH   1   4
BRANCH   1  17
HETATM   17  N2  UNL     1      28.951  45.828  33.800  1.00  0.00    -0.315 N 
ATOM     18  H2  UNL     1      28.412  45.040  33.439  1.00  0.00     0.172 HD
BRANCH  17  19
HETATM   19  C9  UNL     1      29.819  46.495  32.937  1.00  0.00     0.132 C 
BRANCH  19  20
HETATM   20  C10 UNL     1      29.310  46.316  31.503  1.00  0.00     0.022 C 
BRANCH  20  21
HETATM   21  C11 UNL     1      30.417  45.690  30.693  1.00  0.00     0.021 C 
BRANCH  21  22
HETATM   22  C12 UNL     1      31.741  46.015  31.344  1.00  0.00     0.122 C 
BRANCH  22  23
HETATM   23  N3  UNL     1      32.834  45.293  30.726  1.00  0.00    -0.361 N 
HETATM   24  C13 UNL     1      34.161  45.661  31.050  1.00  0.00     0.218 C 
HETATM   25  O3  UNL     1      34.479  46.571  31.831  1.00  0.00    -0.274 OA
ATOM     26  H3  UNL     1      32.650  44.533  30.071  1.00  0.00     0.162 HD
BRANCH  24  27
HETATM   27  C14 UNL     1      35.255  44.879  30.384  1.00  0.00     0.113 C 
BRANCH  27  28
HETATM   28  C15 UNL     1      34.954  43.416  30.475  1.00  0.00     0.095 C 
HETATM   29  S2  UNL     1      36.458  42.540  30.988  1.00  0.00    -0.097 SA
ENDBRANCH  27  28
ENDBRANCH  24  27
ENDBRANCH  22  23
ENDBRANCH  21  22
ENDBRANCH  20  21
ENDBRANCH  19  20
ENDBRANCH  17  19
ENDBRANCH   1  17
TORSDOF 10
ENDMDL
