MODEL 2
REMARK VINA RESULT: -8.307129017      1.999      2.157
REMARK  10 active torsions:
REMARK  status: ('A' for Active; 'I' for Inactive)
REMARK    1  A    between atoms: N1_2  and  C3_4 
REMARK    2  A    between atoms: C8_9  and  S1_10 
REMARK    3  A    between atoms: S1_10  and  N2_13 
REMARK    4  A    between atoms: N2_13  and  C9_15 
REMARK    5  A    between atoms: C9_15  and  C10_16 
REMARK    6  A    between atoms: C10_16  and  C11_17 
REMARK    7  A    between atoms: C11_17  and  C12_18 
REMARK    8  A    between atoms: C12_18  and  N3_19 
REMARK       I    between atoms: N3_19  and  C13_21 
REMARK    9  A    between atoms: C13_21  and  C14_23 
REMARK   10  A    between atoms: C14_23  and  C15_24 
ROOT
HETATM    1  S1  UNL     1      29.637  44.554  37.329  1.00  0.00     0.259 S 
HETATM    2  O1  UNL     1      29.216  45.908  37.918  1.00  0.00    -0.201 OA
HETATM    3  O2  UNL     1      28.687  43.570  37.974  1.00  0.00    -0.201 OA
ENDROOT
BRANCH   1   4
HETATM    4  C8  UNL     1      29.413  44.657  35.623  1.00  0.00     0.090 A 
HETATM    5  C7  UNL     1      30.012  45.638  34.874  1.00  0.00    -0.000 A 
HETATM    6  C6  UNL     1      30.921  46.528  35.401  1.00  0.00     0.014 A 
HETATM    7  C19 UNL     1      29.730  45.758  33.499  1.00  0.00     0.002 A 
HETATM    8  C5  UNL     1      31.555  47.514  34.663  1.00  0.00     0.003 A 
HETATM    9  C4  UNL     1      31.243  47.587  33.333  1.00  0.00     0.030 A 
HETATM   10  C3  UNL     1      30.344  46.724  32.753  1.00  0.00     0.040 A 
HETATM   11  C18 UNL     1      28.842  44.867  32.922  1.00  0.00     0.014 A 
HETATM   12  C17 UNL     1      28.230  43.871  33.648  1.00  0.00     0.003 A 
HETATM   13  C16 UNL     1      28.523  43.784  34.971  1.00  0.00     0.026 A 
BRANCH  10  14
HETATM   14  N1  UNL     1      30.081  46.842  31.376  1.00  0.00    -0.389 N 
HETATM   15  C1  UNL     1      30.418  45.787  30.444  1.00  0.00     0.149 C 
HETATM   16  C2  UNL     1      29.453  48.072  30.927  1.00  0.00     0.149 C 
ENDBRANCH  10  14
ENDBRANCH   1   4
BRANCH   1  17
HETATM   17  N2  UNL     1      31.236  44.299  37.752  1.00  0.00    -0.315 N 
ATOM     18  H2  UNL     1      31.656  44.900  38.461  1.00  0.00     0.172 HD
BRANCH  17  19
HETATM   19  C9  UNL     1      32.018  43.300  37.175  1.00  0.00     0.132 C 
BRANCH  19  20
HETATM   20  C10 UNL     1      33.368  43.261  37.899  1.00  0.00     0.022 C 
BRANCH  20  21
HETATM   21  C11 UNL     1      33.736  41.815  38.117  1.00  0.00     0.021 C 
BRANCH  21  22
HETATM   22  C12 UNL     1      32.470  40.992  38.163  1.00  0.00     0.122 C 
BRANCH  22  23
HETATM   23  N3  UNL     1      32.241  40.434  39.479  1.00  0.00    -0.361 N 
HETATM   24  C13 UNL     1      31.351  41.101  40.354  1.00  0.00     0.218 C 
HETATM   25  O3  UNL     1      30.738  42.146  40.089  1.00  0.00    -0.274 OA
ATOM     26  H3  UNL     1      32.711  39.577  39.770  1.00  0.00     0.162 HD
BRANCH  24  27
HETATM   27  C14 UNL     1      31.147  40.478  41.705  1.00  0.00     0.113 C 
BRANCH  27  28
HETATM   28  C15 UNL     1      30.891  41.548  42.719  1.00  0.00     0.095 C 
HETATM   29  S2  UNL     1      31.943  41.248  44.165  1.00  0.00    -0.097 SA
ENDBRANCH  27  28
ENDBRANCH  24  27
ENDBRANCH  22  23
ENDBRANCH  21  22
ENDBRANCH  20  21
ENDBRANCH  19  20
ENDBRANCH  17  19
ENDBRANCH   1  17
TORSDOF 10
ENDMDL
