MODEL 1
REMARK VINA RESULT: -8.468400299      0.000      0.000
REMARK  10 active torsions:
REMARK  status: ('A' for Active; 'I' for Inactive)
REMARK    1  A    between atoms: N1_2  and  C3_4 
REMARK    2  A    between atoms: C8_9  and  S1_10 
REMARK    3  A    between atoms: S1_10  and  N2_13 
REMARK    4  A    between atoms: N2_13  and  C9_15 
REMARK    5  A    between atoms: C9_15  and  C10_16 
REMARK    6  A    between atoms: C10_16  and  C11_17 
REMARK    7  A    between atoms: C11_17  and  C12_18 
REMARK    8  A    between atoms: C12_18  and  N3_19 
REMARK       I    between atoms: N3_19  and  C13_21 
REMARK    9  A    between atoms: C13_21  and  C14_23 
REMARK   10  A    between atoms: C14_23  and  C15_24 
ROOT
HETATM    1  S1  UNL     1      29.613  44.563  37.254  1.00  0.00     0.259 S 
HETATM    2  O1  UNL     1      29.198  45.910  37.861  1.00  0.00    -0.201 OA
HETATM    3  O2  UNL     1      28.655  43.574  37.880  1.00  0.00    -0.201 OA
ENDROOT
BRANCH   1   4
HETATM    4  C8  UNL     1      29.397  44.692  35.549  1.00  0.00     0.090 A 
HETATM    5  C7  UNL     1      29.986  45.695  34.820  1.00  0.00    -0.000 A 
HETATM    6  C6  UNL     1      30.879  46.588  35.367  1.00  0.00     0.014 A 
HETATM    7  C19 UNL     1      29.708  45.834  33.446  1.00  0.00     0.002 A 
HETATM    8  C5  UNL     1      31.503  47.596  34.650  1.00  0.00     0.003 A 
HETATM    9  C4  UNL     1      31.196  47.688  33.320  1.00  0.00     0.030 A 
HETATM   10  C3  UNL     1      30.313  46.823  32.720  1.00  0.00     0.040 A 
HETATM   11  C18 UNL     1      28.837  44.941  32.849  1.00  0.00     0.014 A 
HETATM   12  C17 UNL     1      28.235  43.925  33.553  1.00  0.00     0.003 A 
HETATM   13  C16 UNL     1      28.523  43.818  34.877  1.00  0.00     0.026 A 
BRANCH  10  14
HETATM   14  N1  UNL     1      30.055  46.961  31.344  1.00  0.00    -0.389 N 
HETATM   15  C1  UNL     1      29.401  48.136  30.807  1.00  0.00     0.149 C 
HETATM   16  C2  UNL     1      30.476  45.872  30.481  1.00  0.00     0.149 C 
ENDBRANCH  10  14
ENDBRANCH   1   4
BRANCH   1  17
HETATM   17  N2  UNL     1      31.209  44.292  37.679  1.00  0.00    -0.315 N 
ATOM     18  H2  UNL     1      31.676  44.969  38.282  1.00  0.00     0.172 HD
BRANCH  17  19
HETATM   19  C9  UNL     1      31.927  43.180  37.242  1.00  0.00     0.132 C 
BRANCH  19  20
HETATM   20  C10 UNL     1      33.394  43.360  37.646  1.00  0.00     0.022 C 
BRANCH  20  21
HETATM   21  C11 UNL     1      33.856  42.082  38.298  1.00  0.00     0.021 C 
BRANCH  21  22
HETATM   22  C12 UNL     1      33.408  42.081  39.741  1.00  0.00     0.122 C 
BRANCH  22  23
HETATM   23  N3  UNL     1      34.503  42.371  40.643  1.00  0.00    -0.361 N 
HETATM   24  C13 UNL     1      34.250  42.390  42.035  1.00  0.00     0.218 C 
HETATM   25  O3  UNL     1      33.147  42.179  42.564  1.00  0.00    -0.274 OA
ATOM     26  H3  UNL     1      35.438  42.558  40.282  1.00  0.00     0.162 HD
BRANCH  24  27
HETATM   27  C14 UNL     1      35.420  42.693  42.924  1.00  0.00     0.113 C 
BRANCH  27  28
HETATM   28  C15 UNL     1      35.441  41.735  44.074  1.00  0.00     0.095 C 
HETATM   29  S2  UNL     1      36.980  40.778  44.011  1.00  0.00    -0.097 SA
ENDBRANCH  27  28
ENDBRANCH  24  27
ENDBRANCH  22  23
ENDBRANCH  21  22
ENDBRANCH  20  21
ENDBRANCH  19  20
ENDBRANCH  17  19
ENDBRANCH   1  17
TORSDOF 10
ENDMDL
