MODEL 3
REMARK VINA RESULT: -8.148303395      3.576      5.405
REMARK  10 active torsions:
REMARK  status: ('A' for Active; 'I' for Inactive)
REMARK    1  A    between atoms: N1_2  and  C3_4 
REMARK    2  A    between atoms: C8_9  and  S1_10 
REMARK    3  A    between atoms: S1_10  and  N2_13 
REMARK    4  A    between atoms: N2_13  and  C9_15 
REMARK    5  A    between atoms: C9_15  and  C10_16 
REMARK    6  A    between atoms: C10_16  and  C11_17 
REMARK    7  A    between atoms: C11_17  and  C12_18 
REMARK    8  A    between atoms: C12_18  and  N3_19 
REMARK       I    between atoms: N3_19  and  C13_21 
REMARK    9  A    between atoms: C13_21  and  C14_23 
REMARK   10  A    between atoms: C14_23  and  C15_24 
ROOT
HETATM    1  S1  UNL     1      29.280  44.756  37.115  1.00  0.00     0.259 S 
HETATM    2  O1  UNL     1      28.736  46.083  37.663  1.00  0.00    -0.201 OA
HETATM    3  O2  UNL     1      28.331  43.719  37.670  1.00  0.00    -0.201 OA
ENDROOT
BRANCH   1   4
HETATM    4  C8  UNL     1      29.208  44.856  35.395  1.00  0.00     0.090 A 
HETATM    5  C7  UNL     1      29.720  45.931  34.712  1.00  0.00    -0.000 A 
HETATM    6  C6  UNL     1      30.428  46.937  35.328  1.00  0.00     0.014 A 
HETATM    7  C19 UNL     1      29.555  46.032  33.317  1.00  0.00     0.002 A 
HETATM    8  C5  UNL     1      30.972  48.022  34.660  1.00  0.00     0.003 A 
HETATM    9  C4  UNL     1      30.782  48.071  33.306  1.00  0.00     0.030 A 
HETATM   10  C3  UNL     1      30.084  47.094  32.638  1.00  0.00     0.040 A 
HETATM   11  C18 UNL     1      28.873  45.028  32.653  1.00  0.00     0.014 A 
HETATM   12  C17 UNL     1      28.353  43.938  33.311  1.00  0.00     0.003 A 
HETATM   13  C16 UNL     1      28.528  43.871  34.656  1.00  0.00     0.026 A 
BRANCH  10  14
HETATM   14  N1  UNL     1      29.939  47.197  31.242  1.00  0.00    -0.389 N 
HETATM   15  C1  UNL     1      29.336  48.358  30.624  1.00  0.00     0.149 C 
HETATM   16  C2  UNL     1      30.423  46.084  30.445  1.00  0.00     0.149 C 
ENDBRANCH  10  14
ENDBRANCH   1   4
BRANCH   1  17
HETATM   17  N2  UNL     1      30.846  44.585  37.681  1.00  0.00    -0.315 N 
ATOM     18  H2  UNL     1      31.189  45.247  38.378  1.00  0.00     0.172 HD
BRANCH  17  19
HETATM   19  C9  UNL     1      31.701  43.575  37.242  1.00  0.00     0.132 C 
BRANCH  19  20
HETATM   20  C10 UNL     1      33.129  44.128  37.210  1.00  0.00     0.022 C 
BRANCH  20  21
HETATM   21  C11 UNL     1      33.045  45.633  37.213  1.00  0.00     0.021 C 
BRANCH  21  22
HETATM   22  C12 UNL     1      34.073  46.182  36.252  1.00  0.00     0.122 C 
BRANCH  22  23
HETATM   23  N3  UNL     1      34.259  47.608  36.422  1.00  0.00    -0.361 N 
HETATM   24  C13 UNL     1      34.589  48.390  35.289  1.00  0.00     0.218 C 
HETATM   25  O3  UNL     1      34.741  47.952  34.139  1.00  0.00    -0.274 OA
ATOM     26  H3  UNL     1      34.153  48.040  37.340  1.00  0.00     0.162 HD
BRANCH  24  27
HETATM   27  C14 UNL     1      34.768  49.862  35.521  1.00  0.00     0.113 C 
BRANCH  27  28
HETATM   28  C15 UNL     1      33.626  50.610  34.910  1.00  0.00     0.095 C 
HETATM   29  S2  UNL     1      34.289  51.958  33.892  1.00  0.00    -0.097 SA
ENDBRANCH  27  28
ENDBRANCH  24  27
ENDBRANCH  22  23
ENDBRANCH  21  22
ENDBRANCH  20  21
ENDBRANCH  19  20
ENDBRANCH  17  19
ENDBRANCH   1  17
TORSDOF 10
ENDMDL
