MODEL 2
REMARK VINA RESULT: -8.282024544      7.168     11.113
REMARK  9 active torsions:
REMARK  status: ('A' for Active; 'I' for Inactive)
REMARK    1  A    between atoms: N1_2  and  C2_3 
REMARK    2  A    between atoms: N1_2  and  C9_20 
REMARK    3  A    between atoms: C2_3  and  C3_4 
REMARK    4  A    between atoms: C12_23  and  C13_24 
REMARK       I    between atoms: C13_24  and  N8_26 
REMARK    5  A    between atoms: N8_26  and  C14_28 
REMARK    6  A    between atoms: C14_28  and  C15_29 
REMARK    7  A    between atoms: C14_28  and  C18_34 
REMARK    8  A    between atoms: C15_29  and  C16_30 
REMARK    9  A    between atoms: C16_30  and  C17_31 
ROOT
HETATM    1  C9  UNL     1      21.286  68.046  43.477  1.00  0.00     0.030 A 
HETATM    2  C10 UNL     1      21.373  67.847  42.119  1.00  0.00     0.030 A 
HETATM    3  C11 UNL     1      20.688  68.671  41.234  1.00  0.00     0.019 A 
HETATM    4  C12 UNL     1      19.898  69.715  41.653  1.00  0.00     0.032 A 
HETATM    5  C19 UNL     1      19.815  69.910  43.015  1.00  0.00     0.019 A 
HETATM    6  C20 UNL     1      20.481  69.111  43.919  1.00  0.00     0.030 A 
ENDROOT
BRANCH   1   7
HETATM    7  N1  UNL     1      21.963  67.230  44.413  1.00  0.00    -0.380 N 
HETATM    8  C1  UNL     1      23.081  67.834  45.152  1.00  0.00     0.150 C 
BRANCH   7   9
HETATM    9  C2  UNL     1      21.668  65.873  44.709  1.00  0.00     0.181 C 
BRANCH   9  10
HETATM   10  C3  UNL     1      20.262  65.651  45.161  1.00  0.00     0.043 A 
HETATM   11  C4  UNL     1      19.415  64.882  44.391  1.00  0.00     0.116 A 
HETATM   12  N2  UNL     1      18.130  64.657  44.773  1.00  0.00    -0.348 N 
HETATM   13  C5  UNL     1      17.642  65.177  45.912  1.00  0.00     0.138 A 
ATOM     14  H2  UNL     1      17.526  64.084  44.185  1.00  0.00     0.167 HD
HETATM   15  N3  UNL     1      16.362  64.972  46.320  1.00  0.00    -0.315 N 
HETATM   16  C8  UNL     1      18.476  65.944  46.684  1.00  0.00     0.119 A 
HETATM   17  C6  UNL     1      15.872  65.492  47.460  1.00  0.00     0.195 A 
ATOM     18  H3  UNL     1      15.749  64.400  45.739  1.00  0.00     0.170 HD
HETATM   19  N4  UNL     1      14.515  65.242  47.837  1.00  0.00    -0.063 NA
HETATM   20  N5  UNL     1      16.696  66.239  48.205  1.00  0.00    -0.317 N 
HETATM   21  C7  UNL     1      17.974  66.477  47.853  1.00  0.00     0.149 A 
ATOM     22  H5  UNL     1      16.342  66.642  49.073  1.00  0.00     0.169 HD
HETATM   23  N6  UNL     1      18.853  67.265  48.641  1.00  0.00    -0.080 NA
HETATM   24  N7  UNL     1      19.758  66.164  46.297  1.00  0.00    -0.351 N 
ATOM     25  H7  UNL     1      20.360  66.737  46.888  1.00  0.00     0.166 HD
ENDBRANCH   9  10
ENDBRANCH   7   9
ENDBRANCH   1   7
BRANCH   4  26
HETATM   26  C13 UNL     1      19.192  70.598  40.735  1.00  0.00     0.252 C 
HETATM   27  O1  UNL     1      19.830  71.347  39.918  1.00  0.00    -0.268 OA
HETATM   28  N8  UNL     1      17.782  70.704  40.663  1.00  0.00    -0.342 N 
ATOM     29  H8  UNL     1      17.223  70.123  41.286  1.00  0.00     0.163 HD
BRANCH  28  30
HETATM   30  C14 UNL     1      17.094  71.588  39.758  1.00  0.00     0.186 C 
BRANCH  30  31
HETATM   31  C15 UNL     1      15.976  70.939  39.000  1.00  0.00     0.046 C 
BRANCH  31  32
HETATM   32  C16 UNL     1      16.342  70.341  37.687  1.00  0.00     0.116 C 
BRANCH  32  33
HETATM   33  C17 UNL     1      17.377  71.115  36.963  1.00  0.00     0.172 C 
HETATM   34  O2  UNL     1      18.539  70.659  36.831  1.00  0.00    -0.648 OA
HETATM   35  O3  UNL     1      17.137  72.375  36.391  1.00  0.00    -0.648 OA
ENDBRANCH  32  33
ENDBRANCH  31  32
ENDBRANCH  30  31
BRANCH  30  36
HETATM   36  C18 UNL     1      16.692  72.856  40.392  1.00  0.00     0.196 C 
HETATM   37  O4  UNL     1      15.907  72.911  41.384  1.00  0.00    -0.646 OA
HETATM   38  O5  UNL     1      17.166  74.072  39.923  1.00  0.00    -0.646 OA
ENDBRANCH  30  36
ENDBRANCH  28  30
ENDBRANCH   4  26
TORSDOF 9
ENDMDL
