MODEL 3
REMARK VINA RESULT: -8.279864095      5.477      9.582
REMARK  9 active torsions:
REMARK  status: ('A' for Active; 'I' for Inactive)
REMARK    1  A    between atoms: N1_2  and  C2_3 
REMARK    2  A    between atoms: N1_2  and  C9_20 
REMARK    3  A    between atoms: C2_3  and  C3_4 
REMARK    4  A    between atoms: C12_23  and  C13_24 
REMARK       I    between atoms: C13_24  and  N8_26 
REMARK    5  A    between atoms: N8_26  and  C14_28 
REMARK    6  A    between atoms: C14_28  and  C15_29 
REMARK    7  A    between atoms: C14_28  and  C18_34 
REMARK    8  A    between atoms: C15_29  and  C16_30 
REMARK    9  A    between atoms: C16_30  and  C17_31 
ROOT
HETATM    1  C9  UNL     1      19.697  66.999  46.407  1.00  0.00     0.030 A 
HETATM    2  C10 UNL     1      20.551  68.075  46.449  1.00  0.00     0.030 A 
HETATM    3  C11 UNL     1      20.591  68.992  45.405  1.00  0.00     0.019 A 
HETATM    4  C12 UNL     1      19.794  68.882  44.290  1.00  0.00     0.032 A 
HETATM    5  C19 UNL     1      18.940  67.801  44.255  1.00  0.00     0.019 A 
HETATM    6  C20 UNL     1      18.876  66.874  45.272  1.00  0.00     0.030 A 
ENDROOT
BRANCH   1   7
HETATM    7  N1  UNL     1      19.625  66.040  47.446  1.00  0.00    -0.380 N 
HETATM    8  C1  UNL     1      18.718  66.325  48.566  1.00  0.00     0.150 C 
BRANCH   7   9
HETATM    9  C2  UNL     1      20.352  64.823  47.513  1.00  0.00     0.181 C 
BRANCH   9  10
HETATM   10  C3  UNL     1      21.833  65.013  47.575  1.00  0.00     0.043 A 
HETATM   11  C4  UNL     1      22.405  65.511  48.727  1.00  0.00     0.116 A 
HETATM   12  N2  UNL     1      23.748  65.694  48.820  1.00  0.00    -0.348 N 
HETATM   13  C5  UNL     1      24.564  65.397  47.793  1.00  0.00     0.138 A 
ATOM     14  H2  UNL     1      24.145  66.063  49.683  1.00  0.00     0.167 HD
HETATM   15  N3  UNL     1      25.910  65.570  47.855  1.00  0.00    -0.315 N 
HETATM   16  C8  UNL     1      24.004  64.901  46.644  1.00  0.00     0.119 A 
HETATM   17  C6  UNL     1      26.727  65.274  46.828  1.00  0.00     0.195 A 
ATOM     18  H3  UNL     1      26.317  65.939  48.714  1.00  0.00     0.170 HD
HETATM   19  N4  UNL     1      28.137  65.478  46.951  1.00  0.00    -0.063 NA
HETATM   20  N5  UNL     1      26.169  64.790  45.712  1.00  0.00    -0.317 N 
HETATM   21  C7  UNL     1      24.842  64.597  45.591  1.00  0.00     0.149 A 
ATOM     22  H5  UNL     1      26.773  64.560  44.921  1.00  0.00     0.169 HD
HETATM   23  N6  UNL     1      24.245  64.081  44.411  1.00  0.00    -0.080 NA
HETATM   24  N7  UNL     1      22.662  64.720  46.558  1.00  0.00    -0.351 N 
ATOM     25  H7  UNL     1      22.269  64.350  45.693  1.00  0.00     0.166 HD
ENDBRANCH   9  10
ENDBRANCH   7   9
ENDBRANCH   1   7
BRANCH   4  26
HETATM   26  C13 UNL     1      19.813  69.846  43.200  1.00  0.00     0.252 C 
HETATM   27  O1  UNL     1      20.233  71.041  43.383  1.00  0.00    -0.268 OA
HETATM   28  N8  UNL     1      19.385  69.562  41.881  1.00  0.00    -0.342 N 
ATOM     29  H8  UNL     1      19.048  68.621  41.676  1.00  0.00     0.163 HD
BRANCH  28  30
HETATM   30  C14 UNL     1      19.398  70.527  40.812  1.00  0.00     0.186 C 
BRANCH  30  31
HETATM   31  C15 UNL     1      20.109  70.064  39.577  1.00  0.00     0.046 C 
BRANCH  31  32
HETATM   32  C16 UNL     1      21.538  70.462  39.462  1.00  0.00     0.116 C 
BRANCH  32  33
HETATM   33  C17 UNL     1      22.474  69.404  39.909  1.00  0.00     0.172 C 
HETATM   34  O2  UNL     1      22.411  68.949  41.078  1.00  0.00    -0.648 OA
HETATM   35  O3  UNL     1      23.466  68.853  39.083  1.00  0.00    -0.648 OA
ENDBRANCH  32  33
ENDBRANCH  31  32
ENDBRANCH  30  31
BRANCH  30  36
HETATM   36  C18 UNL     1      18.063  71.082  40.526  1.00  0.00     0.196 C 
HETATM   37  O4  UNL     1      17.887  72.142  39.858  1.00  0.00    -0.646 OA
HETATM   38  O5  UNL     1      16.915  70.454  40.985  1.00  0.00    -0.646 OA
ENDBRANCH  30  36
ENDBRANCH  28  30
ENDBRANCH   4  26
TORSDOF 9
ENDMDL
