MODEL 1
REMARK VINA RESULT: -8.381640385      0.000      0.000
REMARK  9 active torsions:
REMARK  status: ('A' for Active; 'I' for Inactive)
REMARK    1  A    between atoms: N1_2  and  C2_3 
REMARK    2  A    between atoms: N1_2  and  C9_20 
REMARK    3  A    between atoms: C2_3  and  C3_4 
REMARK    4  A    between atoms: C12_23  and  C13_24 
REMARK       I    between atoms: C13_24  and  N8_26 
REMARK    5  A    between atoms: N8_26  and  C14_28 
REMARK    6  A    between atoms: C14_28  and  C15_29 
REMARK    7  A    between atoms: C14_28  and  C18_34 
REMARK    8  A    between atoms: C15_29  and  C16_30 
REMARK    9  A    between atoms: C16_30  and  C17_31 
ROOT
HETATM    1  C9  UNL     1      22.411  66.664  47.075  1.00  0.00     0.030 A 
HETATM    2  C10 UNL     1      22.837  65.956  48.174  1.00  0.00     0.030 A 
HETATM    3  C11 UNL     1      24.111  65.403  48.214  1.00  0.00     0.019 A 
HETATM    4  C12 UNL     1      25.007  65.528  47.179  1.00  0.00     0.032 A 
HETATM    5  C19 UNL     1      24.574  66.238  46.081  1.00  0.00     0.019 A 
HETATM    6  C20 UNL     1      23.318  66.799  46.009  1.00  0.00     0.030 A 
ENDROOT
BRANCH   1   7
HETATM    7  N1  UNL     1      21.122  67.241  46.991  1.00  0.00    -0.380 N 
HETATM    8  C1  UNL     1      21.038  68.649  46.582  1.00  0.00     0.150 C 
BRANCH   7   9
HETATM    9  C2  UNL     1      19.893  66.587  47.268  1.00  0.00     0.181 C 
BRANCH   9  10
HETATM   10  C3  UNL     1      19.472  65.626  46.203  1.00  0.00     0.043 A 
HETATM   11  C4  UNL     1      18.505  66.002  45.295  1.00  0.00     0.116 A 
HETATM   12  N2  UNL     1      18.100  65.155  44.312  1.00  0.00    -0.348 N 
HETATM   13  C5  UNL     1      18.628  63.924  44.193  1.00  0.00     0.138 A 
ATOM     14  H2  UNL     1      17.383  65.458  43.654  1.00  0.00     0.167 HD
HETATM   15  N3  UNL     1      18.244  63.055  43.222  1.00  0.00    -0.315 N 
HETATM   16  C8  UNL     1      19.591  63.542  45.091  1.00  0.00     0.119 A 
HETATM   17  C6  UNL     1      18.771  61.823  43.102  1.00  0.00     0.195 A 
ATOM     18  H3  UNL     1      17.527  63.348  42.558  1.00  0.00     0.170 HD
HETATM   19  N4  UNL     1      18.326  60.951  42.059  1.00  0.00    -0.063 NA
HETATM   20  N5  UNL     1      19.710  61.462  43.984  1.00  0.00    -0.317 N 
HETATM   21  C7  UNL     1      20.132  62.280  44.968  1.00  0.00     0.149 A 
ATOM     22  H5  UNL     1      20.121  60.531  43.910  1.00  0.00     0.169 HD
HETATM   23  N6  UNL     1      21.130  61.903  45.904  1.00  0.00    -0.080 NA
HETATM   24  N7  UNL     1      19.991  64.393  46.070  1.00  0.00    -0.351 N 
ATOM     25  H7  UNL     1      20.709  64.087  46.726  1.00  0.00     0.166 HD
ENDBRANCH   9  10
ENDBRANCH   7   9
ENDBRANCH   1   7
BRANCH   4  26
HETATM   26  C13 UNL     1      26.351  64.970  47.217  1.00  0.00     0.252 C 
HETATM   27  O1  UNL     1      27.138  65.077  46.214  1.00  0.00    -0.268 OA
HETATM   28  N8  UNL     1      26.895  64.283  48.329  1.00  0.00    -0.342 N 
ATOM     29  H8  UNL     1      26.313  64.176  49.160  1.00  0.00     0.163 HD
BRANCH  28  30
HETATM   30  C14 UNL     1      28.222  63.726  48.353  1.00  0.00     0.186 C 
BRANCH  30  31
HETATM   31  C15 UNL     1      29.055  64.176  49.515  1.00  0.00     0.046 C 
BRANCH  31  32
HETATM   32  C16 UNL     1      28.338  64.941  50.571  1.00  0.00     0.116 C 
BRANCH  32  33
HETATM   33  C17 UNL     1      27.752  64.075  51.619  1.00  0.00     0.172 C 
HETATM   34  O2  UNL     1      28.280  64.002  52.756  1.00  0.00    -0.648 OA
HETATM   35  O3  UNL     1      26.598  63.299  51.422  1.00  0.00    -0.648 OA
ENDBRANCH  32  33
ENDBRANCH  31  32
ENDBRANCH  30  31
BRANCH  30  36
HETATM   36  C18 UNL     1      28.232  62.263  48.178  1.00  0.00     0.196 C 
HETATM   37  O4  UNL     1      27.935  61.699  47.084  1.00  0.00    -0.646 OA
HETATM   38  O5  UNL     1      28.576  61.420  49.224  1.00  0.00    -0.646 OA
ENDBRANCH  30  36
ENDBRANCH  28  30
ENDBRANCH   4  26
TORSDOF 9
ENDMDL
