MODEL 4
REMARK VINA RESULT: -8.234181050      1.644      3.021
REMARK  9 active torsions:
REMARK  status: ('A' for Active; 'I' for Inactive)
REMARK    1  A    between atoms: N1_2  and  C2_3 
REMARK    2  A    between atoms: N1_2  and  C9_20 
REMARK    3  A    between atoms: C2_3  and  C3_4 
REMARK    4  A    between atoms: C12_23  and  C13_24 
REMARK       I    between atoms: C13_24  and  N8_26 
REMARK    5  A    between atoms: N8_26  and  C14_28 
REMARK    6  A    between atoms: C14_28  and  C15_29 
REMARK    7  A    between atoms: C14_28  and  C18_34 
REMARK    8  A    between atoms: C15_29  and  C16_30 
REMARK    9  A    between atoms: C16_30  and  C17_31 
ROOT
HETATM    1  C9  UNL     1      21.689  65.167  48.291  1.00  0.00     0.030 A 
HETATM    2  C10 UNL     1      21.739  64.474  49.478  1.00  0.00     0.030 A 
HETATM    3  C11 UNL     1      22.948  64.009  49.980  1.00  0.00     0.019 A 
HETATM    4  C12 UNL     1      24.145  64.209  49.334  1.00  0.00     0.032 A 
HETATM    5  C19 UNL     1      24.089  64.904  48.146  1.00  0.00     0.019 A 
HETATM    6  C20 UNL     1      22.907  65.379  47.621  1.00  0.00     0.030 A 
ENDROOT
BRANCH   1   7
HETATM    7  N1  UNL     1      20.480  65.656  47.743  1.00  0.00    -0.380 N 
HETATM    8  C1  UNL     1      19.254  65.462  48.530  1.00  0.00     0.150 C 
BRANCH   7   9
HETATM    9  C2  UNL     1      20.334  66.319  46.496  1.00  0.00     0.181 C 
BRANCH   9  10
HETATM   10  C3  UNL     1      19.786  65.446  45.414  1.00  0.00     0.043 A 
HETATM   11  C4  UNL     1      18.479  65.612  45.007  1.00  0.00     0.116 A 
HETATM   12  N2  UNL     1      17.947  64.837  44.025  1.00  0.00    -0.348 N 
HETATM   13  C5  UNL     1      18.677  63.885  43.418  1.00  0.00     0.138 A 
ATOM     14  H2  UNL     1      16.978  64.981  43.743  1.00  0.00     0.167 HD
HETATM   15  N3  UNL     1      18.174  63.094  42.434  1.00  0.00    -0.315 N 
HETATM   16  C8  UNL     1      19.977  63.713  43.816  1.00  0.00     0.119 A 
HETATM   17  C6  UNL     1      18.903  62.140  41.826  1.00  0.00     0.195 A 
ATOM     18  H3  UNL     1      17.205  63.230  42.144  1.00  0.00     0.170 HD
HETATM   19  N4  UNL     1      18.319  61.338  40.797  1.00  0.00    -0.063 NA
HETATM   20  N5  UNL     1      20.171  61.983  42.224  1.00  0.00    -0.317 N 
HETATM   21  C7  UNL     1      20.725  62.736  43.193  1.00  0.00     0.149 A 
ATOM     22  H5  UNL     1      20.740  61.264  41.775  1.00  0.00     0.169 HD
HETATM   23  N6  UNL     1      22.071  62.575  43.616  1.00  0.00    -0.080 NA
HETATM   24  N7  UNL     1      20.502  64.491  44.798  1.00  0.00    -0.351 N 
ATOM     25  H7  UNL     1      21.472  64.345  45.076  1.00  0.00     0.166 HD
ENDBRANCH   9  10
ENDBRANCH   7   9
ENDBRANCH   1   7
BRANCH   4  26
HETATM   26  C13 UNL     1      25.421  63.743  49.860  1.00  0.00     0.252 C 
HETATM   27  O1  UNL     1      25.530  62.588  50.399  1.00  0.00    -0.268 OA
HETATM   28  N8  UNL     1      26.618  64.498  49.824  1.00  0.00    -0.342 N 
ATOM     29  H8  UNL     1      26.590  65.424  49.397  1.00  0.00     0.163 HD
BRANCH  28  30
HETATM   30  C14 UNL     1      27.872  64.032  50.356  1.00  0.00     0.186 C 
BRANCH  30  31
HETATM   31  C15 UNL     1      29.004  64.068  49.376  1.00  0.00     0.046 C 
BRANCH  31  32
HETATM   32  C16 UNL     1      28.689  63.600  47.999  1.00  0.00     0.116 C 
BRANCH  32  33
HETATM   33  C17 UNL     1      28.538  64.707  47.028  1.00  0.00     0.172 C 
HETATM   34  O2  UNL     1      29.194  64.711  45.957  1.00  0.00    -0.648 OA
HETATM   35  O3  UNL     1      27.677  65.798  47.230  1.00  0.00    -0.648 OA
ENDBRANCH  32  33
ENDBRANCH  31  32
ENDBRANCH  30  31
BRANCH  30  36
HETATM   36  C18 UNL     1      28.214  64.657  51.646  1.00  0.00     0.196 C 
HETATM   37  O4  UNL     1      28.648  65.842  51.742  1.00  0.00    -0.646 OA
HETATM   38  O5  UNL     1      28.069  63.963  52.837  1.00  0.00    -0.646 OA
ENDBRANCH  30  36
ENDBRANCH  28  30
ENDBRANCH   4  26
TORSDOF 9
ENDMDL
