MODEL 13
REMARK VINA RESULT: -2.360960807      6.277      7.440
REMARK  4 active torsions:
REMARK  status: ('A' for Active; 'I' for Inactive)
REMARK    1  A    between atoms: O1_1  and  C1_3 
REMARK    2  A    between atoms: C3_6  and  O3_7 
REMARK    3  A    between atoms: C4_9  and  O4_10 
REMARK    4  A    between atoms: C5_12  and  O5_13 
ROOT
HETATM    1  C1  UNL     1      55.905  38.913  47.473  1.00  0.00     0.173 C 
HETATM    2  C2  UNL     1      56.179  40.125  46.609  1.00  0.00     0.205 C 
HETATM    3  O2  UNL     1      57.077  39.794  45.582  1.00  0.00    -0.356 OA
HETATM    4  C3  UNL     1      56.364  38.977  44.697  1.00  0.00     0.288 C 
HETATM    5  C4  UNL     1      56.159  37.654  45.404  1.00  0.00     0.204 C 
HETATM    6  C5  UNL     1      55.317  37.802  46.650  1.00  0.00     0.182 C 
ENDROOT
BRANCH   1   7
HETATM    7  O1  UNL     1      55.053  39.323  48.504  1.00  0.00    -0.391 OA
ATOM      8  H1  UNL     1      55.581  39.809  49.128  1.00  0.00     0.210 HD
ENDBRANCH   1   7
BRANCH   6   9
HETATM    9  O5  UNL     1      53.979  38.000  46.366  1.00  0.00    -0.390 OA
ATOM     10  H5  UNL     1      53.843  38.628  45.666  1.00  0.00     0.210 HD
ENDBRANCH   6   9
BRANCH   5  11
HETATM   11  O4  UNL     1      55.583  36.703  44.565  1.00  0.00    -0.388 OA
ATOM     12  H4  UNL     1      54.698  36.485  44.836  1.00  0.00     0.210 HD
ENDBRANCH   5  11
BRANCH   4  13
HETATM   13  O3  UNL     1      57.113  38.749  43.559  1.00  0.00    -0.369 OA
ATOM     14  H3  UNL     1      56.776  37.993  43.095  1.00  0.00     0.212 HD
ENDBRANCH   4  13
TORSDOF 4
ENDMDL
