MODEL 1
REMARK VINA RESULT: -7.034590303      0.000      0.000
REMARK  4 active torsions:
REMARK  status: ('A' for Active; 'I' for Inactive)
REMARK    1  A    between atoms: O1_1  and  C1_3 
REMARK    2  A    between atoms: C3_6  and  O3_7 
REMARK    3  A    between atoms: C4_9  and  O4_10 
REMARK    4  A    between atoms: C5_12  and  O5_13 
ROOT
HETATM    1  C1  UNL     1      50.389  35.156  46.619  1.00  0.00     0.173 C 
HETATM    2  C2  UNL     1      51.168  35.490  45.365  1.00  0.00     0.205 C 
HETATM    3  O2  UNL     1      51.572  34.312  44.717  1.00  0.00    -0.356 OA
HETATM    4  C3  UNL     1      50.407  33.750  44.182  1.00  0.00     0.288 C 
HETATM    5  C4  UNL     1      49.601  33.231  45.354  1.00  0.00     0.204 C 
HETATM    6  C5  UNL     1      49.172  34.342  46.282  1.00  0.00     0.182 C 
ENDROOT
BRANCH   1   7
HETATM    7  O1  UNL     1      50.068  36.367  47.242  1.00  0.00    -0.391 OA
ATOM      8  H1  UNL     1      49.658  36.155  48.073  1.00  0.00     0.210 HD
ENDBRANCH   1   7
BRANCH   6   9
HETATM    9  O5  UNL     1      48.149  35.109  45.756  1.00  0.00    -0.390 OA
ATOM     10  H5  UNL     1      47.565  34.607  45.200  1.00  0.00     0.210 HD
ENDBRANCH   6   9
BRANCH   5  11
HETATM   11  O4  UNL     1      48.480  32.518  44.934  1.00  0.00    -0.388 OA
ATOM     12  H4  UNL     1      47.683  32.852  45.329  1.00  0.00     0.210 HD
ENDBRANCH   5  11
BRANCH   4  13
HETATM   13  O3  UNL     1      50.732  32.680  43.370  1.00  0.00    -0.369 OA
ATOM     14  H3  UNL     1      50.894  32.983  42.484  1.00  0.00     0.212 HD
ENDBRANCH   4  13
TORSDOF 4
ENDMDL
