MODEL 11
REMARK VINA RESULT: -2.823091824      6.230      7.293
REMARK  4 active torsions:
REMARK  status: ('A' for Active; 'I' for Inactive)
REMARK    1  A    between atoms: O1_1  and  C1_3 
REMARK    2  A    between atoms: C3_6  and  O3_7 
REMARK    3  A    between atoms: C4_9  and  O4_10 
REMARK    4  A    between atoms: C5_12  and  O5_13 
ROOT
HETATM    1  C1  UNL     1      56.832  39.422  46.920  1.00  0.00     0.173 C 
HETATM    2  C2  UNL     1      56.551  39.751  45.470  1.00  0.00     0.205 C 
HETATM    3  O2  UNL     1      56.596  38.582  44.692  1.00  0.00    -0.356 OA
HETATM    4  C3  UNL     1      55.456  37.847  45.037  1.00  0.00     0.288 C 
HETATM    5  C4  UNL     1      55.689  37.327  46.440  1.00  0.00     0.204 C 
HETATM    6  C5  UNL     1      55.818  38.447  47.445  1.00  0.00     0.182 C 
ENDROOT
BRANCH   1   7
HETATM    7  O1  UNL     1      56.829  40.630  47.626  1.00  0.00    -0.391 OA
ATOM      8  H1  UNL     1      57.727  40.940  47.657  1.00  0.00     0.210 HD
ENDBRANCH   1   7
BRANCH   6   9
HETATM    9  O5  UNL     1      54.605  39.044  47.734  1.00  0.00    -0.390 OA
ATOM     10  H5  UNL     1      54.048  38.497  48.276  1.00  0.00     0.210 HD
ENDBRANCH   6   9
BRANCH   5  11
HETATM   11  O4  UNL     1      54.679  36.456  46.842  1.00  0.00    -0.388 OA
ATOM     12  H4  UNL     1      55.026  35.712  47.321  1.00  0.00     0.210 HD
ENDBRANCH   5  11
BRANCH   4  13
HETATM   13  O3  UNL     1      55.320  36.765  44.189  1.00  0.00    -0.369 OA
ATOM     14  H3  UNL     1      55.771  36.936  43.371  1.00  0.00     0.212 HD
ENDBRANCH   4  13
TORSDOF 4
ENDMDL
