MODEL 9
REMARK VINA RESULT: -3.484474507      6.858      8.182
REMARK  4 active torsions:
REMARK  status: ('A' for Active; 'I' for Inactive)
REMARK    1  A    between atoms: O1_1  and  C1_3 
REMARK    2  A    between atoms: C3_6  and  O3_7 
REMARK    3  A    between atoms: C4_9  and  O4_10 
REMARK    4  A    between atoms: C5_12  and  O5_13 
ROOT
HETATM    1  C1  UNL     1      57.356  39.849  47.660  1.00  0.00     0.173 C 
HETATM    2  C2  UNL     1      57.355  40.497  46.292  1.00  0.00     0.205 C 
HETATM    3  O2  UNL     1      57.333  39.513  45.291  1.00  0.00    -0.356 OA
HETATM    4  C3  UNL     1      56.052  38.950  45.334  1.00  0.00     0.288 C 
HETATM    5  C4  UNL     1      55.984  38.135  46.608  1.00  0.00     0.204 C 
HETATM    6  C5  UNL     1      56.133  38.997  47.840  1.00  0.00     0.182 C 
ENDROOT
BRANCH   1   7
HETATM    7  O1  UNL     1      57.436  40.878  48.605  1.00  0.00    -0.391 OA
ATOM      8  H1  UNL     1      58.150  41.448  48.342  1.00  0.00     0.210 HD
ENDBRANCH   1   7
BRANCH   6   9
HETATM    9  O5  UNL     1      54.999  39.742  48.107  1.00  0.00    -0.390 OA
ATOM     10  H5  UNL     1      55.125  40.354  48.823  1.00  0.00     0.210 HD
ENDBRANCH   6   9
BRANCH   5  11
HETATM   11  O4  UNL     1      54.800  37.406  46.692  1.00  0.00    -0.388 OA
ATOM     12  H4  UNL     1      54.731  36.940  47.518  1.00  0.00     0.210 HD
ENDBRANCH   5  11
BRANCH   4  13
HETATM   13  O3  UNL     1      55.878  38.096  44.262  1.00  0.00    -0.369 OA
ATOM     14  H3  UNL     1      56.683  37.620  44.093  1.00  0.00     0.212 HD
ENDBRANCH   4  13
TORSDOF 4
ENDMDL
