MODEL 5
REMARK VINA RESULT: -4.333178167      0.214      2.783
REMARK  1 active torsions:
REMARK  status: ('A' for Active; 'I' for Inactive)
REMARK    1  A    between atoms: C1_2  and  C2_4 
ROOT
HETATM    1  O1  UNL     1      52.617  22.942  40.686  1.00  0.00    -0.639 OA
HETATM    2  C1  UNL     1      53.707  23.560  40.626  1.00  0.00     0.279 C 
HETATM    3  O2  UNL     1      54.800  22.833  40.183  1.00  0.00    -0.639 OA
ENDROOT
BRANCH   2   4
HETATM    4  C2  UNL     1      53.823  24.953  40.995  1.00  0.00     0.279 C 
HETATM    5  O3  UNL     1      54.910  25.570  40.863  1.00  0.00    -0.639 OA
HETATM    6  O4  UNL     1      52.740  25.654  41.507  1.00  0.00    -0.639 OA
ENDBRANCH   2   4
TORSDOF 1
ENDMDL
