MODEL 4
REMARK VINA RESULT: -4.337448583      0.132      1.300
REMARK  1 active torsions:
REMARK  status: ('A' for Active; 'I' for Inactive)
REMARK    1  A    between atoms: C1_2  and  C2_4 
ROOT
HETATM    1  O1  UNL     1      52.794  25.620  41.484  1.00  0.00    -0.639 OA
HETATM    2  C1  UNL     1      53.724  24.933  40.997  1.00  0.00     0.279 C 
HETATM    3  O2  UNL     1      54.938  25.579  40.828  1.00  0.00    -0.639 OA
ENDROOT
BRANCH   2   4
HETATM    4  C2  UNL     1      53.548  23.546  40.632  1.00  0.00     0.279 C 
HETATM    5  O3  UNL     1      54.516  22.744  40.646  1.00  0.00    -0.639 OA
HETATM    6  O4  UNL     1      52.306  23.054  40.254  1.00  0.00    -0.639 OA
ENDBRANCH   2   4
TORSDOF 1
ENDMDL
