MODEL 2
REMARK VINA RESULT: -4.338742489      0.103      1.840
REMARK  1 active torsions:
REMARK  status: ('A' for Active; 'I' for Inactive)
REMARK    1  A    between atoms: C1_2  and  C2_4 
ROOT
HETATM    1  O1  UNL     1      52.784  25.623  41.465  1.00  0.00    -0.639 OA
HETATM    2  C1  UNL     1      53.745  24.953  41.015  1.00  0.00     0.279 C 
HETATM    3  O2  UNL     1      54.964  25.608  40.938  1.00  0.00    -0.639 OA
ENDROOT
BRANCH   2   4
HETATM    4  C2  UNL     1      53.597  23.577  40.600  1.00  0.00     0.279 C 
HETATM    5  O3  UNL     1      52.460  23.057  40.472  1.00  0.00    -0.639 OA
HETATM    6  O4  UNL     1      54.704  22.784  40.331  1.00  0.00    -0.639 OA
ENDBRANCH   2   4
TORSDOF 1
ENDMDL
