MODEL 1
REMARK VINA RESULT: -4.351529354      0.000      0.000
REMARK  1 active torsions:
REMARK  status: ('A' for Active; 'I' for Inactive)
REMARK    1  A    between atoms: C1_2  and  C2_4 
ROOT
HETATM    1  O1  UNL     1      54.918  25.532  40.889  1.00  0.00    -0.639 OA
HETATM    2  C1  UNL     1      53.814  24.945  40.984  1.00  0.00     0.279 C 
HETATM    3  O2  UNL     1      52.760  25.700  41.474  1.00  0.00    -0.639 OA
ENDROOT
BRANCH   2   4
HETATM    4  C2  UNL     1      53.642  23.561  40.606  1.00  0.00     0.279 C 
HETATM    5  O3  UNL     1      54.632  22.800  40.464  1.00  0.00    -0.639 OA
HETATM    6  O4  UNL     1      52.379  23.028  40.384  1.00  0.00    -0.639 OA
ENDBRANCH   2   4
TORSDOF 1
ENDMDL
