MODEL 3
REMARK VINA RESULT: -4.338440398      0.103      2.476
REMARK  1 active torsions:
REMARK  status: ('A' for Active; 'I' for Inactive)
REMARK    1  A    between atoms: C1_2  and  C2_4 
ROOT
HETATM    1  O1  UNL     1      54.533  22.698  40.619  1.00  0.00    -0.639 OA
HETATM    2  C1  UNL     1      53.595  23.529  40.642  1.00  0.00     0.279 C 
HETATM    3  O2  UNL     1      52.337  23.041  40.325  1.00  0.00    -0.639 OA
ENDROOT
BRANCH   2   4
HETATM    4  C2  UNL     1      53.805  24.919  40.979  1.00  0.00     0.279 C 
HETATM    5  O3  UNL     1      54.931  25.458  40.834  1.00  0.00    -0.639 OA
HETATM    6  O4  UNL     1      52.772  25.703  41.474  1.00  0.00    -0.639 OA
ENDBRANCH   2   4
TORSDOF 1
ENDMDL
