MODEL 7
REMARK VINA RESULT: -6.075258504      1.092      3.905
REMARK  5 active torsions:
REMARK  status: ('A' for Active; 'I' for Inactive)
REMARK    1  A    between atoms: C1_2  and  C2_4 
REMARK    2  A    between atoms: C2_4  and  O3_5 
REMARK    3  A    between atoms: C2_4  and  C3_7 
REMARK    4  A    between atoms: C3_7  and  O4_8 
REMARK    5  A    between atoms: C3_7  and  C4_10 
ROOT
HETATM    1  C2  UNL     1       8.492  34.183   9.750  1.00  0.00     0.258 C 
ENDROOT
BRANCH   1   2
HETATM    2  C1  UNL     1       8.834  35.577  10.019  1.00  0.00     0.206 C 
HETATM    3  O1  UNL     1      10.041  35.916   9.961  1.00  0.00    -0.646 OA
HETATM    4  O2  UNL     1       7.908  36.557  10.338  1.00  0.00    -0.646 OA
ENDBRANCH   1   2
BRANCH   1   5
HETATM    5  O3  UNL     1       9.158  33.696   8.629  1.00  0.00    -0.382 OA
ATOM      6  H3  UNL     1       9.214  34.349   7.941  1.00  0.00     0.210 HD
ENDBRANCH   1   5
BRANCH   1   7
HETATM    7  C3  UNL     1       8.801  33.248  10.892  1.00  0.00     0.258 C 
BRANCH   7   8
HETATM    8  O4  UNL     1       8.776  33.873  12.117  1.00  0.00    -0.382 OA
ATOM      9  H4  UNL     1       9.329  33.445  12.761  1.00  0.00     0.210 HD
ENDBRANCH   7   8
BRANCH   7  10
HETATM   10  C4  UNL     1       7.780  32.180  10.870  1.00  0.00     0.206 C 
HETATM   11  O5  UNL     1       6.708  32.397  10.261  1.00  0.00    -0.646 OA
HETATM   12  O6  UNL     1       7.926  30.944  11.481  1.00  0.00    -0.646 OA
ENDBRANCH   7  10
ENDBRANCH   1   7
TORSDOF 5
ENDMDL
