MODEL 2
REMARK VINA RESULT: -6.466530132      0.088      1.008
REMARK  5 active torsions:
REMARK  status: ('A' for Active; 'I' for Inactive)
REMARK    1  A    between atoms: C1_2  and  C2_4 
REMARK    2  A    between atoms: C2_4  and  O3_5 
REMARK    3  A    between atoms: C2_4  and  C3_7 
REMARK    4  A    between atoms: C3_7  and  O4_8 
REMARK    5  A    between atoms: C3_7  and  C4_10 
ROOT
HETATM    1  C2  UNL     1       8.400  32.997  11.153  1.00  0.00     0.258 C 
ENDROOT
BRANCH   1   2
HETATM    2  C1  UNL     1       7.413  32.224  10.405  1.00  0.00     0.206 C 
HETATM    3  O1  UNL     1       7.687  31.033  10.113  1.00  0.00    -0.646 OA
HETATM    4  O2  UNL     1       6.186  32.718   9.994  1.00  0.00    -0.646 OA
ENDBRANCH   1   2
BRANCH   1   5
HETATM    5  O3  UNL     1       9.382  32.183  11.707  1.00  0.00    -0.382 OA
ATOM      6  H3  UNL     1       9.123  31.848  12.558  1.00  0.00     0.210 HD
ENDBRANCH   1   5
BRANCH   1   7
HETATM    7  C3  UNL     1       9.104  34.046  10.329  1.00  0.00     0.258 C 
BRANCH   7   8
HETATM    8  O4  UNL     1       9.050  33.791   8.978  1.00  0.00    -0.382 OA
ATOM      9  H4  UNL     1       9.893  33.885   8.550  1.00  0.00     0.210 HD
ENDBRANCH   7   8
BRANCH   7  10
HETATM   10  C4  UNL     1       8.442  35.337  10.607  1.00  0.00     0.206 C 
HETATM   11  O5  UNL     1       7.950  35.518  11.744  1.00  0.00    -0.646 OA
HETATM   12  O6  UNL     1       8.325  36.371   9.690  1.00  0.00    -0.646 OA
ENDBRANCH   7  10
ENDBRANCH   1   7
TORSDOF 5
ENDMDL
