MODEL 5
REMARK VINA RESULT: -6.189074203      1.017      1.790
REMARK  5 active torsions:
REMARK  status: ('A' for Active; 'I' for Inactive)
REMARK    1  A    between atoms: C1_2  and  C2_4 
REMARK    2  A    between atoms: C2_4  and  O3_5 
REMARK    3  A    between atoms: C2_4  and  C3_7 
REMARK    4  A    between atoms: C3_7  and  O4_8 
REMARK    5  A    between atoms: C3_7  and  C4_10 
ROOT
HETATM    1  C2  UNL     1       8.618  33.112  10.144  1.00  0.00     0.258 C 
ENDROOT
BRANCH   1   2
HETATM    2  C1  UNL     1       7.502  32.172  10.079  1.00  0.00     0.206 C 
HETATM    3  O1  UNL     1       6.336  32.623  10.196  1.00  0.00    -0.646 OA
HETATM    4  O2  UNL     1       7.646  30.807   9.895  1.00  0.00    -0.646 OA
ENDBRANCH   1   2
BRANCH   1   5
HETATM    5  O3  UNL     1       8.952  33.605   8.887  1.00  0.00    -0.382 OA
ATOM      6  H3  UNL     1       9.884  33.775   8.812  1.00  0.00     0.210 HD
ENDBRANCH   1   5
BRANCH   1   7
HETATM    7  C3  UNL     1       8.361  34.302  11.035  1.00  0.00     0.258 C 
BRANCH   7   8
HETATM    8  O4  UNL     1       8.975  34.196  12.261  1.00  0.00    -0.382 OA
ATOM      9  H4  UNL     1       9.213  35.039  12.629  1.00  0.00     0.210 HD
ENDBRANCH   7   8
BRANCH   7  10
HETATM   10  C4  UNL     1       8.880  35.493  10.332  1.00  0.00     0.206 C 
HETATM   11  O5  UNL     1       8.059  36.342   9.917  1.00  0.00    -0.646 OA
HETATM   12  O6  UNL     1      10.225  35.739  10.096  1.00  0.00    -0.646 OA
ENDBRANCH   7  10
ENDBRANCH   1   7
TORSDOF 5
ENDMDL
