MODEL 4
REMARK VINA RESULT: -8.900443879      1.184      1.298
REMARK  7 active torsions:
REMARK  status: ('A' for Active; 'I' for Inactive)
REMARK    1  A    between atoms: C2_2  and  O1_3 
REMARK    2  A    between atoms: C2_2  and  C3_5 
REMARK    3  A    between atoms: C3_5  and  C4_6 
REMARK    4  A    between atoms: C3_5  and  N1_18 
REMARK    5  A    between atoms: C4_6  and  C5_7 
REMARK    6  A    between atoms: C5_7  and  C6_8 
REMARK    7  A    between atoms: C17_22  and  C18_23 
ROOT
HETATM    1  C3  UNL     1      50.311  51.467  19.289  1.00  0.00     0.118 C 
ENDROOT
BRANCH   1   2
HETATM    2  C2  UNL     1      51.681  50.981  19.782  1.00  0.00     0.137 C 
HETATM    3  C1  UNL     1      51.646  50.905  21.276  1.00  0.00     0.041 C 
BRANCH   2   4
HETATM    4  O1  UNL     1      52.672  51.867  19.327  1.00  0.00    -0.394 OA
ATOM      5  H1  UNL     1      52.540  52.107  18.418  1.00  0.00     0.210 HD
ENDBRANCH   2   4
ENDBRANCH   1   2
BRANCH   1   6
HETATM    6  C4  UNL     1      50.516  52.914  18.898  1.00  0.00     0.033 C 
BRANCH   6   7
HETATM    7  C5  UNL     1      49.524  53.834  19.512  1.00  0.00     0.041 C 
BRANCH   7   8
HETATM    8  C6  UNL     1      50.027  54.783  20.494  1.00  0.00    -0.047 A 
HETATM    9  C7  UNL     1      51.189  54.540  21.203  1.00  0.00     0.008 A 
HETATM   10  C8  UNL     1      51.716  55.423  22.120  1.00  0.00     0.001 A 
HETATM   11  C9  UNL     1      51.065  56.607  22.351  1.00  0.00     0.012 A 
HETATM   12  C10 UNL     1      49.904  56.888  21.666  1.00  0.00    -0.025 A 
HETATM   13  C11 UNL     1      49.258  58.089  21.922  1.00  0.00     0.012 A 
HETATM   14  C15 UNL     1      49.380  55.977  20.735  1.00  0.00    -0.020 A 
HETATM   15  C12 UNL     1      48.094  58.377  21.250  1.00  0.00     0.001 A 
HETATM   16  C13 UNL     1      47.564  57.497  20.334  1.00  0.00     0.001 A 
HETATM   17  C14 UNL     1      48.210  56.306  20.084  1.00  0.00     0.013 A 
ENDBRANCH   7   8
ENDBRANCH   6   7
ENDBRANCH   1   6
BRANCH   1  18
HETATM   18  N1  UNL     1      49.975  50.631  18.162  1.00  0.00    -0.343 N 
HETATM   19  C16 UNL     1      49.587  49.374  18.267  1.00  0.00     0.183 A 
HETATM   20  N2  UNL     1      49.360  48.903  17.030  1.00  0.00    -0.347 N 
HETATM   21  C17 UNL     1      49.609  49.876  16.141  1.00  0.00     0.114 A 
ATOM     22  H2  UNL     1      49.048  47.959  16.804  1.00  0.00     0.167 HD
HETATM   23  C19 UNL     1      50.001  50.976  16.869  1.00  0.00     0.127 A 
BRANCH  21  24
HETATM   24  C18 UNL     1      49.496  49.815  14.679  1.00  0.00     0.282 C 
HETATM   25  N3  UNL     1      48.250  49.850  13.999  1.00  0.00    -0.056 NA
HETATM   26  O2  UNL     1      50.536  49.725  13.961  1.00  0.00    -0.269 OA
ENDBRANCH  21  24
ENDBRANCH   1  18
TORSDOF 7
ENDMDL
