MODEL 3
REMARK VINA RESULT: -8.974998393      0.924      1.290
REMARK  7 active torsions:
REMARK  status: ('A' for Active; 'I' for Inactive)
REMARK    1  A    between atoms: C2_2  and  O1_3 
REMARK    2  A    between atoms: C2_2  and  C3_5 
REMARK    3  A    between atoms: C3_5  and  C4_6 
REMARK    4  A    between atoms: C3_5  and  N1_18 
REMARK    5  A    between atoms: C4_6  and  C5_7 
REMARK    6  A    between atoms: C5_7  and  C6_8 
REMARK    7  A    between atoms: C17_22  and  C18_23 
ROOT
HETATM    1  C3  UNL     1      50.268  50.889  19.737  1.00  0.00     0.118 C 
ENDROOT
BRANCH   1   2
HETATM    2  C2  UNL     1      51.370  49.888  20.111  1.00  0.00     0.137 C 
HETATM    3  C1  UNL     1      50.740  48.744  20.844  1.00  0.00     0.041 C 
BRANCH   2   4
HETATM    4  O1  UNL     1      52.335  50.541  20.895  1.00  0.00    -0.394 OA
ATOM      5  H1  UNL     1      51.939  51.142  21.515  1.00  0.00     0.210 HD
ENDBRANCH   2   4
ENDBRANCH   1   2
BRANCH   1   6
HETATM    6  C4  UNL     1      50.960  52.232  19.646  1.00  0.00     0.033 C 
BRANCH   6   7
HETATM    7  C5  UNL     1      50.021  53.381  19.707  1.00  0.00     0.041 C 
BRANCH   7   8
HETATM    8  C6  UNL     1      50.359  54.458  20.626  1.00  0.00    -0.047 A 
HETATM    9  C7  UNL     1      51.482  54.394  21.431  1.00  0.00     0.008 A 
HETATM   10  C8  UNL     1      51.854  55.402  22.294  1.00  0.00     0.001 A 
HETATM   11  C9  UNL     1      51.082  56.532  22.366  1.00  0.00     0.012 A 
HETATM   12  C10 UNL     1      49.956  56.637  21.581  1.00  0.00    -0.025 A 
HETATM   13  C11 UNL     1      49.185  57.786  21.678  1.00  0.00     0.012 A 
HETATM   14  C15 UNL     1      49.589  55.599  20.708  1.00  0.00    -0.020 A 
HETATM   15  C12 UNL     1      48.054  57.897  20.905  1.00  0.00     0.001 A 
HETATM   16  C13 UNL     1      47.677  56.892  20.043  1.00  0.00     0.001 A 
HETATM   17  C14 UNL     1      48.447  55.753  19.952  1.00  0.00     0.013 A 
ENDBRANCH   7   8
ENDBRANCH   6   7
ENDBRANCH   1   6
BRANCH   1  18
HETATM   18  N1  UNL     1      49.746  50.448  18.466  1.00  0.00    -0.343 N 
HETATM   19  C16 UNL     1      48.591  49.828  18.319  1.00  0.00     0.183 A 
HETATM   20  N2  UNL     1      48.422  49.564  17.014  1.00  0.00    -0.347 N 
HETATM   21  C17 UNL     1      49.484  50.023  16.336  1.00  0.00     0.114 A 
ATOM     22  H2  UNL     1      47.616  49.091  16.604  1.00  0.00     0.167 HD
HETATM   23  C19 UNL     1      50.326  50.586  17.267  1.00  0.00     0.127 A 
BRANCH  21  24
HETATM   24  C18 UNL     1      49.731  49.957  14.890  1.00  0.00     0.282 C 
HETATM   25  N3  UNL     1      51.035  49.888  14.332  1.00  0.00    -0.056 NA
HETATM   26  O2  UNL     1      48.760  49.960  14.076  1.00  0.00    -0.269 OA
ENDBRANCH  21  24
ENDBRANCH   1  18
TORSDOF 7
ENDMDL
