MODEL 1
REMARK VINA RESULT: -9.389053036      0.000      0.000
REMARK  7 active torsions:
REMARK  status: ('A' for Active; 'I' for Inactive)
REMARK    1  A    between atoms: C2_2  and  O1_3 
REMARK    2  A    between atoms: C2_2  and  C3_5 
REMARK    3  A    between atoms: C3_5  and  C4_6 
REMARK    4  A    between atoms: C3_5  and  N1_18 
REMARK    5  A    between atoms: C4_6  and  C5_7 
REMARK    6  A    between atoms: C5_7  and  C6_8 
REMARK    7  A    between atoms: C17_22  and  C18_23 
ROOT
HETATM    1  C3  UNL     1      50.492  51.086  19.769  1.00  0.00     0.118 C 
ENDROOT
BRANCH   1   2
HETATM    2  C2  UNL     1      51.317  50.032  20.521  1.00  0.00     0.137 C 
HETATM    3  C1  UNL     1      50.398  48.932  20.951  1.00  0.00     0.041 C 
BRANCH   2   4
HETATM    4  O1  UNL     1      51.949  50.642  21.617  1.00  0.00    -0.394 OA
ATOM      5  H1  UNL     1      51.750  51.570  21.668  1.00  0.00     0.210 HD
ENDBRANCH   2   4
ENDBRANCH   1   2
BRANCH   1   6
HETATM    6  C4  UNL     1      51.065  52.421  20.192  1.00  0.00     0.033 C 
BRANCH   6   7
HETATM    7  C5  UNL     1      50.095  53.540  20.074  1.00  0.00     0.041 C 
BRANCH   7   8
HETATM    8  C6  UNL     1      50.356  54.724  20.879  1.00  0.00    -0.047 A 
HETATM    9  C7  UNL     1      51.464  54.807  21.702  1.00  0.00     0.008 A 
HETATM   10  C8  UNL     1      51.764  55.919  22.460  1.00  0.00     0.001 A 
HETATM   11  C9  UNL     1      50.930  57.005  22.403  1.00  0.00     0.012 A 
HETATM   12  C10 UNL     1      49.814  56.963  21.597  1.00  0.00    -0.025 A 
HETATM   13  C11 UNL     1      48.980  58.071  21.562  1.00  0.00     0.012 A 
HETATM   14  C15 UNL     1      49.523  55.821  20.832  1.00  0.00    -0.020 A 
HETATM   15  C12 UNL     1      47.860  58.037  20.766  1.00  0.00     0.001 A 
HETATM   16  C13 UNL     1      47.555  56.928  20.009  1.00  0.00     0.001 A 
HETATM   17  C14 UNL     1      48.388  55.831  20.048  1.00  0.00     0.013 A 
ENDBRANCH   7   8
ENDBRANCH   6   7
ENDBRANCH   1   6
BRANCH   1  18
HETATM   18  N1  UNL     1      50.690  50.817  18.365  1.00  0.00    -0.343 N 
HETATM   19  C16 UNL     1      51.842  50.970  17.741  1.00  0.00     0.183 A 
HETATM   20  N2  UNL     1      51.667  50.634  16.454  1.00  0.00    -0.347 N 
HETATM   21  C17 UNL     1      50.390  50.266  16.269  1.00  0.00     0.114 A 
ATOM     22  H2  UNL     1      52.387  50.654  15.732  1.00  0.00     0.167 HD
HETATM   23  C19 UNL     1      49.772  50.385  17.493  1.00  0.00     0.127 A 
BRANCH  21  24
HETATM   24  C18 UNL     1      49.749  49.819  15.027  1.00  0.00     0.282 C 
HETATM   25  N3  UNL     1      48.393  49.404  14.965  1.00  0.00    -0.056 NA
HETATM   26  O2  UNL     1      50.406  49.789  13.944  1.00  0.00    -0.269 OA
ENDBRANCH  21  24
ENDBRANCH   1  18
TORSDOF 7
ENDMDL
