MODEL 14
REMARK VINA RESULT: -4.917804597      2.586      4.104
REMARK  6 active torsions:
REMARK  status: ('A' for Active; 'I' for Inactive)
REMARK    1  A    between atoms: O1_1  and  C1_3 
REMARK    2  A    between atoms: C1_3  and  C2_4 
REMARK    3  A    between atoms: C3_6  and  O3_7 
REMARK    4  A    between atoms: C4_9  and  O4_10 
REMARK    5  A    between atoms: C5_12  and  O5_13 
REMARK    6  A    between atoms: C6_15  and  O6_16 
ROOT
HETATM    1  C2  UNL     1      16.578  58.597   8.630  1.00  0.00     0.179 C 
HETATM    2  O2  UNL     1      17.747  58.060   8.291  1.00  0.00    -0.349 OA
HETATM    3  C3  UNL     1      18.480  57.329   9.125  1.00  0.00     0.288 C 
HETATM    4  C4  UNL     1      17.844  56.760  10.335  1.00  0.00     0.204 C 
HETATM    5  C5  UNL     1      16.345  56.684  10.103  1.00  0.00     0.183 C 
HETATM    6  C6  UNL     1      15.932  58.141   9.890  1.00  0.00     0.180 C 
ENDROOT
BRANCH   1   7
HETATM    7  C1  UNL     1      16.745  60.125   8.670  1.00  0.00     0.198 C 
BRANCH   7   8
HETATM    8  O1  UNL     1      16.407  60.591   9.956  1.00  0.00    -0.398 OA
ATOM      9  H1  UNL     1      15.771  61.292   9.874  1.00  0.00     0.209 HD
ENDBRANCH   7   8
ENDBRANCH   1   7
BRANCH   6  10
HETATM   10  O6  UNL     1      14.563  58.291   9.853  1.00  0.00    -0.390 OA
ATOM     11  H6  UNL     1      14.184  58.319  10.724  1.00  0.00     0.210 HD
ENDBRANCH   6  10
BRANCH   3  12
HETATM   12  O3  UNL     1      19.070  56.261   8.408  1.00  0.00    -0.369 OA
ATOM     13  H3  UNL     1      18.746  55.438   8.755  1.00  0.00     0.212 HD
ENDBRANCH   3  12
BRANCH   5  14
HETATM   14  O5  UNL     1      15.667  56.096  11.140  1.00  0.00    -0.390 OA
ATOM     15  H5  UNL     1      14.930  55.569  10.854  1.00  0.00     0.210 HD
ENDBRANCH   5  14
BRANCH   4  16
HETATM   16  O4  UNL     1      18.016  57.682  11.395  1.00  0.00    -0.388 OA
ATOM     17  H4  UNL     1      18.023  57.195  12.210  1.00  0.00     0.210 HD
ENDBRANCH   4  16
TORSDOF 6
ENDMDL
