MODEL 6
REMARK VINA RESULT: -5.052296202      7.679      9.564
REMARK  6 active torsions:
REMARK  status: ('A' for Active; 'I' for Inactive)
REMARK    1  A    between atoms: O1_1  and  C1_3 
REMARK    2  A    between atoms: C1_3  and  C2_4 
REMARK    3  A    between atoms: C3_6  and  O3_7 
REMARK    4  A    between atoms: C4_9  and  O4_10 
REMARK    5  A    between atoms: C5_12  and  O5_13 
REMARK    6  A    between atoms: C6_15  and  O6_16 
ROOT
HETATM    1  C2  UNL     1      11.227  58.989   8.229  1.00  0.00     0.179 C 
HETATM    2  O2  UNL     1      11.681  60.240   8.209  1.00  0.00    -0.349 OA
HETATM    3  C3  UNL     1      11.217  61.168   7.378  1.00  0.00     0.288 C 
HETATM    4  C4  UNL     1       9.913  60.954   6.711  1.00  0.00     0.204 C 
HETATM    5  C5  UNL     1       9.113  59.951   7.526  1.00  0.00     0.183 C 
HETATM    6  C6  UNL     1       9.970  58.685   7.493  1.00  0.00     0.180 C 
ENDROOT
BRANCH   1   7
HETATM    7  C1  UNL     1      12.346  58.063   7.726  1.00  0.00     0.198 C 
BRANCH   7   8
HETATM    8  O1  UNL     1      11.967  57.516   6.485  1.00  0.00    -0.398 OA
ATOM      9  H1  UNL     1      12.675  57.638   5.863  1.00  0.00     0.209 HD
ENDBRANCH   7   8
ENDBRANCH   1   7
BRANCH   6  10
HETATM   10  O6  UNL     1       9.309  57.599   8.025  1.00  0.00    -0.390 OA
ATOM     11  H6  UNL     1       8.931  57.792   8.875  1.00  0.00     0.210 HD
ENDBRANCH   6  10
BRANCH   3  12
HETATM   12  O3  UNL     1      11.154  62.407   8.058  1.00  0.00    -0.369 OA
ATOM     13  H3  UNL     1      11.757  63.017   7.650  1.00  0.00     0.212 HD
ENDBRANCH   3  12
BRANCH   5  14
HETATM   14  O5  UNL     1       7.851  59.740   7.034  1.00  0.00    -0.390 OA
ATOM     15  H5  UNL     1       7.365  59.083   7.519  1.00  0.00     0.210 HD
ENDBRANCH   5  14
BRANCH   4  16
HETATM   16  O4  UNL     1      10.155  60.323   5.468  1.00  0.00    -0.388 OA
ATOM     17  H4  UNL     1       9.371  59.845   5.224  1.00  0.00     0.210 HD
ENDBRANCH   4  16
TORSDOF 6
ENDMDL
