MODEL 7
REMARK VINA RESULT: -5.031200336      1.154      1.597
REMARK  6 active torsions:
REMARK  status: ('A' for Active; 'I' for Inactive)
REMARK    1  A    between atoms: O1_1  and  C1_3 
REMARK    2  A    between atoms: C1_3  and  C2_4 
REMARK    3  A    between atoms: C3_6  and  O3_7 
REMARK    4  A    between atoms: C4_9  and  O4_10 
REMARK    5  A    between atoms: C5_12  and  O5_13 
REMARK    6  A    between atoms: C6_15  and  O6_16 
ROOT
HETATM    1  C2  UNL     1      19.641  58.041   7.399  1.00  0.00     0.179 C 
HETATM    2  O2  UNL     1      19.373  59.299   7.056  1.00  0.00    -0.349 OA
HETATM    3  C3  UNL     1      20.128  60.329   7.425  1.00  0.00     0.288 C 
HETATM    4  C4  UNL     1      21.506  60.079   7.904  1.00  0.00     0.204 C 
HETATM    5  C5  UNL     1      21.966  58.733   7.371  1.00  0.00     0.183 C 
HETATM    6  C6  UNL     1      20.976  57.740   7.981  1.00  0.00     0.180 C 
ENDROOT
BRANCH   1   7
HETATM    7  C1  UNL     1      18.546  57.564   8.367  1.00  0.00     0.198 C 
BRANCH   7   8
HETATM    8  O1  UNL     1      19.009  57.704   9.690  1.00  0.00    -0.398 OA
ATOM      9  H1  UNL     1      18.470  57.174  10.266  1.00  0.00     0.209 HD
ENDBRANCH   7   8
ENDBRANCH   1   7
BRANCH   6  10
HETATM   10  O6  UNL     1      21.353  56.432   7.761  1.00  0.00    -0.390 OA
ATOM     11  H6  UNL     1      21.238  55.893   8.535  1.00  0.00     0.210 HD
ENDBRANCH   6  10
BRANCH   3  12
HETATM   12  O3  UNL     1      20.206  61.252   6.355  1.00  0.00    -0.369 OA
ATOM     13  H3  UNL     1      19.332  61.564   6.151  1.00  0.00     0.212 HD
ENDBRANCH   3  12
BRANCH   5  14
HETATM   14  O5  UNL     1      23.266  58.439   7.694  1.00  0.00    -0.390 OA
ATOM     15  H5  UNL     1      23.825  58.328   6.934  1.00  0.00     0.210 HD
ENDBRANCH   5  14
BRANCH   4  16
HETATM   16  O4  UNL     1      21.462  59.933   9.310  1.00  0.00    -0.388 OA
ATOM     17  H4  UNL     1      20.578  60.125   9.598  1.00  0.00     0.210 HD
ENDBRANCH   4  16
TORSDOF 6
ENDMDL
