MODEL 3
REMARK VINA RESULT: -5.195162846      2.038      4.358
REMARK  6 active torsions:
REMARK  status: ('A' for Active; 'I' for Inactive)
REMARK    1  A    between atoms: O1_1  and  C1_3 
REMARK    2  A    between atoms: C1_3  and  C2_4 
REMARK    3  A    between atoms: C3_6  and  O3_7 
REMARK    4  A    between atoms: C4_9  and  O4_10 
REMARK    5  A    between atoms: C5_12  and  O5_13 
REMARK    6  A    between atoms: C6_15  and  O6_16 
ROOT
HETATM    1  C2  UNL     1      17.880  58.653   7.688  1.00  0.00     0.179 C 
HETATM    2  O2  UNL     1      16.678  58.155   7.963  1.00  0.00    -0.349 OA
HETATM    3  C3  UNL     1      15.747  58.831   8.629  1.00  0.00     0.288 C 
HETATM    4  C4  UNL     1      15.870  60.301   8.750  1.00  0.00     0.204 C 
HETATM    5  C5  UNL     1      16.762  60.805   7.629  1.00  0.00     0.183 C 
HETATM    6  C6  UNL     1      18.100  60.111   7.885  1.00  0.00     0.180 C 
ENDROOT
BRANCH   1   7
HETATM    7  C1  UNL     1      18.924  57.869   8.501  1.00  0.00     0.198 C 
BRANCH   7   8
HETATM    8  O1  UNL     1      19.959  58.742   8.886  1.00  0.00    -0.398 OA
ATOM      9  H1  UNL     1      20.583  58.267   9.422  1.00  0.00     0.209 HD
ENDBRANCH   7   8
ENDBRANCH   1   7
BRANCH   6  10
HETATM   10  O6  UNL     1      19.100  60.598   7.071  1.00  0.00    -0.390 OA
ATOM     11  H6  UNL     1      18.841  61.395   6.625  1.00  0.00     0.210 HD
ENDBRANCH   6  10
BRANCH   3  12
HETATM   12  O3  UNL     1      14.480  58.552   8.064  1.00  0.00    -0.369 OA
ATOM     13  H3  UNL     1      13.911  58.198   8.737  1.00  0.00     0.212 HD
ENDBRANCH   3  12
BRANCH   5  14
HETATM   14  O5  UNL     1      16.880  62.171   7.604  1.00  0.00    -0.390 OA
ATOM     15  H5  UNL     1      16.129  62.605   7.215  1.00  0.00     0.210 HD
ENDBRANCH   5  14
BRANCH   4  16
HETATM   16  O4  UNL     1      16.570  60.585   9.946  1.00  0.00    -0.388 OA
ATOM     17  H4  UNL     1      16.906  61.472   9.887  1.00  0.00     0.210 HD
ENDBRANCH   4  16
TORSDOF 6
ENDMDL
