MODEL 2
REMARK VINA RESULT: -8.763550102      0.863      1.122
REMARK  6 active torsions:
REMARK  status: ('A' for Active; 'I' for Inactive)
REMARK    1  A    between atoms: O1_2  and  C2_3 
REMARK    2  A    between atoms: C2_3  and  O2_4 
REMARK    3  A    between atoms: O2_4  and  C3_5 
REMARK    4  A    between atoms: C12_16  and  O5_17 
REMARK    5  A    between atoms: C14_21  and  C15_22 
REMARK    6  A    between atoms: C15_22  and  C16_23 
ROOT
HETATM    1  C3  UNL     1      -0.115  -2.558  22.091  1.00  0.00     0.156 C 
HETATM    2  C4  UNL     1       0.470  -1.536  21.120  1.00  0.00     0.069 C 
HETATM    3  C5  UNL     1       1.588  -0.731  21.744  1.00  0.00     0.156 C 
HETATM    4  O3  UNL     1       1.867   0.322  20.918  1.00  0.00    -0.371 OA
HETATM    5  C6  UNL     1       2.822   1.190  21.344  1.00  0.00     0.177 C 
HETATM    6  C7  UNL     1       2.698   2.448  20.549  1.00  0.00     0.007 C 
HETATM    7  C8  UNL     1       3.260   3.638  20.686  1.00  0.00     0.000 C 
HETATM    8  C9  UNL     1       4.210   4.035  21.732  1.00  0.00     0.024 C 
HETATM    9  C10 UNL     1       4.520   3.349  22.836  1.00  0.00     0.135 C 
HETATM   10  O4  UNL     1       3.998   2.118  23.211  1.00  0.00    -0.352 OA
HETATM   11  C11 UNL     1       2.738   1.572  22.792  1.00  0.00     0.191 C 
HETATM   12  C12 UNL     1       2.433   0.432  23.703  1.00  0.00     0.181 C 
HETATM   13  C13 UNL     1       1.237  -0.313  23.162  1.00  0.00     0.182 C 
HETATM   14  O6  UNL     1       1.043  -1.488  23.887  1.00  0.00    -0.372 OA
HETATM   15  C14 UNL     1      -0.202  -1.994  23.482  1.00  0.00     0.161 C 
ENDROOT
BRANCH   1  16
HETATM   16  O2  UNL     1      -1.368  -2.942  21.685  1.00  0.00    -0.359 OA
BRANCH  16  17
HETATM   17  C2  UNL     1      -1.460  -4.100  20.970  1.00  0.00     0.337 C 
BRANCH  17  18
HETATM   18  O1  UNL     1      -1.211  -3.953  19.625  1.00  0.00    -0.372 OA
HETATM   19  C1  UNL     1      -2.142  -3.134  18.995  1.00  0.00     0.204 C 
ENDBRANCH  17  18
ENDBRANCH  16  17
ENDBRANCH   1  16
BRANCH  15  20
HETATM   20  C15 UNL     1      -0.731  -3.014  24.433  1.00  0.00     0.147 C 
BRANCH  20  21
HETATM   21  C16 UNL     1       0.226  -3.185  25.582  1.00  0.00     0.175 C 
HETATM   22  O7  UNL     1       0.128  -2.464  26.589  1.00  0.00    -0.648 OA
HETATM   23  O8  UNL     1       1.195  -4.158  25.461  1.00  0.00    -0.648 OA
ENDBRANCH  20  21
ENDBRANCH  15  20
BRANCH  12  24
HETATM   24  O5  UNL     1       2.046   0.964  24.951  1.00  0.00    -0.390 OA
ATOM     25  H5  UNL     1       2.193   0.298  25.613  1.00  0.00     0.210 HD
ENDBRANCH  12  24
TORSDOF 6
ENDMDL
