MODEL 1
REMARK VINA RESULT: -9.247797742      0.000      0.000
REMARK  6 active torsions:
REMARK  status: ('A' for Active; 'I' for Inactive)
REMARK    1  A    between atoms: O1_2  and  C2_3 
REMARK    2  A    between atoms: C2_3  and  O2_4 
REMARK    3  A    between atoms: O2_4  and  C3_5 
REMARK    4  A    between atoms: C12_16  and  O5_17 
REMARK    5  A    between atoms: C14_21  and  C15_22 
REMARK    6  A    between atoms: C15_22  and  C16_23 
ROOT
HETATM    1  C3  UNL     1      -0.076  -2.478  22.089  1.00  0.00     0.156 C 
HETATM    2  C4  UNL     1       0.520  -1.479  21.100  1.00  0.00     0.069 C 
HETATM    3  C5  UNL     1       1.647  -0.677  21.710  1.00  0.00     0.156 C 
HETATM    4  O3  UNL     1       1.937   0.360  20.867  1.00  0.00    -0.371 OA
HETATM    5  C6  UNL     1       2.902   1.224  21.277  1.00  0.00     0.177 C 
HETATM    6  C7  UNL     1       2.791   2.470  20.462  1.00  0.00     0.007 C 
HETATM    7  C8  UNL     1       3.366   3.656  20.580  1.00  0.00     0.000 C 
HETATM    8  C9  UNL     1       4.322   4.059  21.618  1.00  0.00     0.024 C 
HETATM    9  C10 UNL     1       4.626   3.388  22.732  1.00  0.00     0.135 C 
HETATM   10  O4  UNL     1       4.090   2.169  23.127  1.00  0.00    -0.352 OA
HETATM   11  C11 UNL     1       2.824   1.630  22.719  1.00  0.00     0.191 C 
HETATM   12  C12 UNL     1       2.507   0.509  23.649  1.00  0.00     0.181 C 
HETATM   13  C13 UNL     1       1.303  -0.231  23.122  1.00  0.00     0.182 C 
HETATM   14  O6  UNL     1       1.097  -1.392  23.866  1.00  0.00    -0.372 OA
HETATM   15  C14 UNL     1      -0.154  -1.892  23.471  1.00  0.00     0.161 C 
ENDROOT
BRANCH   1  16
HETATM   16  O2  UNL     1      -1.332  -2.855  21.690  1.00  0.00    -0.359 OA
BRANCH  16  17
HETATM   17  C2  UNL     1      -1.447  -4.054  21.049  1.00  0.00     0.337 C 
BRANCH  17  18
HETATM   18  O1  UNL     1      -1.241  -3.987  19.690  1.00  0.00    -0.372 OA
HETATM   19  C1  UNL     1      -2.133  -3.129  19.056  1.00  0.00     0.204 C 
ENDBRANCH  17  18
ENDBRANCH  16  17
ENDBRANCH   1  16
BRANCH  15  20
HETATM   20  C15 UNL     1      -0.693  -2.890  24.439  1.00  0.00     0.147 C 
BRANCH  20  21
HETATM   21  C16 UNL     1      -1.764  -2.254  25.283  1.00  0.00     0.175 C 
HETATM   22  O7  UNL     1      -2.767  -1.754  24.747  1.00  0.00    -0.648 OA
HETATM   23  O8  UNL     1      -1.579  -2.256  26.649  1.00  0.00    -0.648 OA
ENDBRANCH  20  21
ENDBRANCH  15  20
BRANCH  12  24
HETATM   24  O5  UNL     1       2.128   1.066  24.889  1.00  0.00    -0.390 OA
ATOM     25  H5  UNL     1       1.857   0.355  25.459  1.00  0.00     0.210 HD
ENDBRANCH  12  24
TORSDOF 6
ENDMDL
