MODEL 9
REMARK VINA RESULT: -7.493965976      2.801      5.691
REMARK  6 active torsions:
REMARK  status: ('A' for Active; 'I' for Inactive)
REMARK    1  A    between atoms: O1_2  and  C2_3 
REMARK    2  A    between atoms: C2_3  and  O2_4 
REMARK    3  A    between atoms: O2_4  and  C3_5 
REMARK    4  A    between atoms: C12_16  and  O5_17 
REMARK    5  A    between atoms: C14_21  and  C15_22 
REMARK    6  A    between atoms: C15_22  and  C16_23 
ROOT
HETATM    1  C3  UNL     1       0.134  -1.100  21.166  1.00  0.00     0.156 C 
HETATM    2  C4  UNL     1      -0.994  -1.202  22.190  1.00  0.00     0.069 C 
HETATM    3  C5  UNL     1      -0.557  -0.755  23.567  1.00  0.00     0.156 C 
HETATM    4  O3  UNL     1      -1.522  -1.127  24.461  1.00  0.00    -0.371 OA
HETATM    5  C6  UNL     1      -1.277  -0.848  25.768  1.00  0.00     0.177 C 
HETATM    6  C7  UNL     1      -2.205  -1.667  26.603  1.00  0.00     0.007 C 
HETATM    7  C8  UNL     1      -2.254  -1.894  27.906  1.00  0.00     0.000 C 
HETATM    8  C9  UNL     1      -1.338  -1.352  28.917  1.00  0.00     0.024 C 
HETATM    9  C10 UNL     1      -0.186  -0.711  28.695  1.00  0.00     0.135 C 
HETATM   10  O4  UNL     1       0.371  -0.433  27.454  1.00  0.00    -0.352 OA
HETATM   11  C11 UNL     1       0.117  -1.147  26.234  1.00  0.00     0.191 C 
HETATM   12  C12 UNL     1       1.179  -0.747  25.267  1.00  0.00     0.181 C 
HETATM   13  C13 UNL     1       0.823  -1.292  23.906  1.00  0.00     0.182 C 
HETATM   14  O6  UNL     1       1.696  -0.780  22.947  1.00  0.00    -0.372 OA
HETATM   15  C14 UNL     1       1.450  -1.504  21.770  1.00  0.00     0.161 C 
ENDROOT
BRANCH   1  16
HETATM   16  O2  UNL     1      -0.128  -1.900  20.084  1.00  0.00    -0.359 OA
BRANCH  16  17
HETATM   17  C2  UNL     1      -1.389  -2.408  19.977  1.00  0.00     0.337 C 
BRANCH  17  18
HETATM   18  O1  UNL     1      -1.432  -3.746  19.659  1.00  0.00    -0.372 OA
HETATM   19  C1  UNL     1      -1.922  -4.527  20.701  1.00  0.00     0.204 C 
ENDBRANCH  17  18
ENDBRANCH  16  17
ENDBRANCH   1  16
BRANCH  15  20
HETATM   20  C15 UNL     1       2.554  -1.357  20.777  1.00  0.00     0.147 C 
BRANCH  20  21
HETATM   21  C16 UNL     1       3.460  -2.555  20.841  1.00  0.00     0.175 C 
HETATM   22  O7  UNL     1       3.718  -3.086  21.935  1.00  0.00    -0.648 OA
HETATM   23  O8  UNL     1       3.979  -3.023  19.653  1.00  0.00    -0.648 OA
ENDBRANCH  20  21
ENDBRANCH  15  20
BRANCH  12  24
HETATM   24  O5  UNL     1       2.380  -1.378  25.653  1.00  0.00    -0.390 OA
ATOM     25  H5  UNL     1       3.094  -0.967  25.179  1.00  0.00     0.210 HD
ENDBRANCH  12  24
TORSDOF 6
ENDMDL
