MODEL 3
REMARK VINA RESULT: -8.731861343      2.247      7.559
REMARK  6 active torsions:
REMARK  status: ('A' for Active; 'I' for Inactive)
REMARK    1  A    between atoms: O1_2  and  C2_3 
REMARK    2  A    between atoms: C2_3  and  O2_4 
REMARK    3  A    between atoms: O2_4  and  C3_5 
REMARK    4  A    between atoms: C12_16  and  O5_17 
REMARK    5  A    between atoms: C14_21  and  C15_22 
REMARK    6  A    between atoms: C15_22  and  C16_23 
ROOT
HETATM    1  C3  UNL     1       3.808   2.323  24.343  1.00  0.00     0.156 C 
HETATM    2  C4  UNL     1       2.890   1.284  24.982  1.00  0.00     0.069 C 
HETATM    3  C5  UNL     1       2.563   0.152  24.034  1.00  0.00     0.156 C 
HETATM    4  O3  UNL     1       1.542  -0.577  24.578  1.00  0.00    -0.371 OA
HETATM    5  C6  UNL     1       1.078  -1.617  23.836  1.00  0.00     0.177 C 
HETATM    6  C7  UNL     1      -0.255  -2.017  24.376  1.00  0.00     0.007 C 
HETATM    7  C8  UNL     1      -1.184  -2.839  23.914  1.00  0.00     0.000 C 
HETATM    8  C9  UNL     1      -1.119  -3.612  22.668  1.00  0.00     0.024 C 
HETATM    9  C10 UNL     1      -0.223  -3.476  21.686  1.00  0.00     0.135 C 
HETATM   10  O4  UNL     1       0.828  -2.568  21.654  1.00  0.00    -0.352 OA
HETATM   11  C11 UNL     1       0.896  -1.329  22.376  1.00  0.00     0.191 C 
HETATM   12  C12 UNL     1       2.003  -0.534  21.771  1.00  0.00     0.181 C 
HETATM   13  C13 UNL     1       2.261   0.673  22.640  1.00  0.00     0.182 C 
HETATM   14  O6  UNL     1       3.409   1.333  22.204  1.00  0.00    -0.372 OA
HETATM   15  C14 UNL     1       3.446   2.551  22.902  1.00  0.00     0.161 C 
ENDROOT
BRANCH   1  16
HETATM   16  O2  UNL     1       3.728   3.514  25.019  1.00  0.00    -0.359 OA
BRANCH  16  17
HETATM   17  C2  UNL     1       3.757   3.458  26.381  1.00  0.00     0.337 C 
BRANCH  17  18
HETATM   18  O1  UNL     1       3.192   4.548  27.002  1.00  0.00    -0.372 OA
HETATM   19  C1  UNL     1       2.275   4.187  27.984  1.00  0.00     0.204 C 
ENDBRANCH  17  18
ENDBRANCH  16  17
ENDBRANCH   1  16
BRANCH  15  20
HETATM   20  C15 UNL     1       4.377   3.532  22.272  1.00  0.00     0.147 C 
BRANCH  20  21
HETATM   21  C16 UNL     1       4.185   3.532  20.780  1.00  0.00     0.175 C 
HETATM   22  O7  UNL     1       5.132   3.246  20.028  1.00  0.00    -0.648 OA
HETATM   23  O8  UNL     1       2.934   3.859  20.302  1.00  0.00    -0.648 OA
ENDBRANCH  20  21
ENDBRANCH  15  20
BRANCH  12  24
HETATM   24  O5  UNL     1       1.558  -0.046  20.524  1.00  0.00    -0.390 OA
ATOM     25  H5  UNL     1       1.989  -0.549  19.842  1.00  0.00     0.210 HD
ENDBRANCH  12  24
TORSDOF 6
ENDMDL
