MODEL 8
REMARK VINA RESULT: -7.649180190      2.137      7.285
REMARK  6 active torsions:
REMARK  status: ('A' for Active; 'I' for Inactive)
REMARK    1  A    between atoms: O1_2  and  C2_3 
REMARK    2  A    between atoms: C2_3  and  O2_4 
REMARK    3  A    between atoms: O2_4  and  C3_5 
REMARK    4  A    between atoms: C12_16  and  O5_17 
REMARK    5  A    between atoms: C14_21  and  C15_22 
REMARK    6  A    between atoms: C15_22  and  C16_23 
ROOT
HETATM    1  C3  UNL     1       3.036   1.355  25.299  1.00  0.00     0.156 C 
HETATM    2  C4  UNL     1       1.978   0.266  25.453  1.00  0.00     0.069 C 
HETATM    3  C5  UNL     1       1.935  -0.661  24.259  1.00  0.00     0.156 C 
HETATM    4  O3  UNL     1       0.804  -1.424  24.351  1.00  0.00    -0.371 OA
HETATM    5  C6  UNL     1       0.572  -2.290  23.330  1.00  0.00     0.177 C 
HETATM    6  C7  UNL     1      -0.859  -2.713  23.394  1.00  0.00     0.007 C 
HETATM    7  C8  UNL     1      -1.617  -3.392  22.547  1.00  0.00     0.000 C 
HETATM    8  C9  UNL     1      -1.200  -3.932  21.247  1.00  0.00     0.024 C 
HETATM    9  C10 UNL     1      -0.064  -3.667  20.596  1.00  0.00     0.135 C 
HETATM   10  O4  UNL     1       0.950  -2.821  21.027  1.00  0.00    -0.352 OA
HETATM   11  C11 UNL     1       0.808  -1.736  21.957  1.00  0.00     0.191 C 
HETATM   12  C12 UNL     1       2.039  -0.902  21.842  1.00  0.00     0.181 C 
HETATM   13  C13 UNL     1       2.037   0.116  22.957  1.00  0.00     0.182 C 
HETATM   14  O6  UNL     1       3.260   0.785  22.988  1.00  0.00    -0.372 OA
HETATM   15  C14 UNL     1       3.095   1.855  23.882  1.00  0.00     0.161 C 
ENDROOT
BRANCH   1  16
HETATM   16  O2  UNL     1       2.765   2.408  26.135  1.00  0.00    -0.359 OA
BRANCH  16  17
HETATM   17  C2  UNL     1       2.224   2.111  27.351  1.00  0.00     0.337 C 
BRANCH  17  18
HETATM   18  O1  UNL     1       1.625   3.180  27.977  1.00  0.00    -0.372 OA
HETATM   19  C1  UNL     1       2.491   4.256  28.142  1.00  0.00     0.204 C 
ENDBRANCH  17  18
ENDBRANCH  16  17
ENDBRANCH   1  16
BRANCH  15  20
HETATM   20  C15 UNL     1       4.164   2.885  23.730  1.00  0.00     0.147 C 
BRANCH  20  21
HETATM   21  C16 UNL     1       4.183   3.394  22.315  1.00  0.00     0.175 C 
HETATM   22  O7  UNL     1       3.147   3.373  21.629  1.00  0.00    -0.648 OA
HETATM   23  O8  UNL     1       5.381   3.874  21.829  1.00  0.00    -0.648 OA
ENDBRANCH  20  21
ENDBRANCH  15  20
BRANCH  12  24
HETATM   24  O5  UNL     1       1.963  -0.177  20.634  1.00  0.00    -0.390 OA
ATOM     25  H5  UNL     1       2.504  -0.621  19.991  1.00  0.00     0.210 HD
ENDBRANCH  12  24
TORSDOF 6
ENDMDL
