MODEL 2
REMARK VINA RESULT: -7.540696964      1.226      2.107
REMARK  8 active torsions:
REMARK  status: ('A' for Active; 'I' for Inactive)
REMARK    1  A    between atoms: N5_13  and  C6_14 
REMARK    2  A    between atoms: C7_16  and  C8_17 
REMARK    3  A    between atoms: C8_17  and  O2_18 
REMARK    4  A    between atoms: O2_18  and  P1_19 
REMARK    5  A    between atoms: P1_19  and  O5_22 
REMARK    6  A    between atoms: O5_22  and  P2_23 
REMARK    7  A    between atoms: C9_27  and  O9_28 
REMARK    8  A    between atoms: C10_30  and  O10_31 
ROOT
HETATM    1  C6  UNL     1       6.158 -10.509  24.279  1.00  0.00     0.262 C 
HETATM    2  O1  UNL     1       6.605  -9.813  25.402  1.00  0.00    -0.353 OA
HETATM    3  C7  UNL     1       5.475  -9.052  25.702  1.00  0.00     0.180 C 
HETATM    4  C9  UNL     1       4.302  -9.990  25.616  1.00  0.00     0.182 C 
HETATM    5  C10 UNL     1       4.896 -11.151  24.806  1.00  0.00     0.198 C 
ENDROOT
BRANCH   1   6
HETATM    6  N5  UNL     1       7.115 -11.463  23.795  1.00  0.00    -0.297 N 
HETATM    7  C3  UNL     1       7.174 -11.867  22.509  1.00  0.00     0.142 A 
HETATM    8  N3  UNL     1       6.432 -11.529  21.426  1.00  0.00    -0.336 N 
HETATM    9  C4  UNL     1       8.195 -12.781  22.362  1.00  0.00     0.119 A 
HETATM   10  C2  UNL     1       6.652 -12.054  20.206  1.00  0.00     0.183 A 
ATOM     11  H3  UNL     1       5.678 -10.852  21.540  1.00  0.00     0.168 HD
HETATM   12  N2  UNL     1       7.637 -12.935  20.067  1.00  0.00    -0.339 N 
HETATM   13  C1  UNL     1       8.411 -13.308  21.114  1.00  0.00     0.148 A 
ATOM     14  H2  UNL     1       7.815 -13.342  19.148  1.00  0.00     0.167 HD
HETATM   15  N1  UNL     1       9.436 -14.239  20.920  1.00  0.00    -0.080 NA
HETATM   16  N4  UNL     1       8.738 -12.908  23.586  1.00  0.00    -0.346 N 
HETATM   17  C5  UNL     1       8.078 -12.108  24.442  1.00  0.00     0.188 A 
ATOM     18  H4  UNL     1       9.524 -13.514  23.825  1.00  0.00     0.167 HD
ENDBRANCH   1   6
BRANCH   5  19
HETATM   19  O10 UNL     1       4.035 -11.564  23.817  1.00  0.00    -0.388 OA
ATOM     20  H10 UNL     1       4.326 -12.347  23.364  1.00  0.00     0.210 HD
ENDBRANCH   5  19
BRANCH   3  21
HETATM   21  C8  UNL     1       5.585  -8.384  27.053  1.00  0.00     0.216 C 
BRANCH  21  22
HETATM   22  O2  UNL     1       6.003  -7.104  26.859  1.00  0.00    -0.287 OA
BRANCH  22  23
HETATM   23  P1  UNL     1       7.005  -6.437  27.967  1.00  0.00     0.418 P 
HETATM   24  O3  UNL     1       5.889  -5.671  28.675  1.00  0.00    -0.624 OA
HETATM   25  O4  UNL     1       7.248  -7.312  29.426  1.00  0.00    -0.624 OA
BRANCH  23  26
HETATM   26  O5  UNL     1       7.897  -5.136  27.655  1.00  0.00    -0.173 OA
BRANCH  26  27
HETATM   27  P2  UNL     1       7.291  -3.643  27.991  1.00  0.00     0.431 P 
HETATM   28  O6  UNL     1       7.539  -2.959  29.434  1.00  0.00    -0.616 OA
HETATM   29  O7  UNL     1       6.213  -2.945  26.891  1.00  0.00    -0.616 OA
HETATM   30  O8  UNL     1       8.439  -2.971  27.235  1.00  0.00    -0.616 OA
ENDBRANCH  26  27
ENDBRANCH  23  26
ENDBRANCH  22  23
ENDBRANCH  21  22
ENDBRANCH   3  21
BRANCH   4  31
HETATM   31  O9  UNL     1       3.291  -9.447  24.810  1.00  0.00    -0.390 OA
ATOM     32  H9  UNL     1       3.321  -8.498  24.827  1.00  0.00     0.210 HD
ENDBRANCH   4  31
TORSDOF 8
ENDMDL
