MODEL 18
REMARK VINA RESULT: -6.717337610      5.064      7.758
REMARK  8 active torsions:
REMARK  status: ('A' for Active; 'I' for Inactive)
REMARK    1  A    between atoms: N5_13  and  C6_14 
REMARK    2  A    between atoms: C7_16  and  C8_17 
REMARK    3  A    between atoms: C8_17  and  O2_18 
REMARK    4  A    between atoms: O2_18  and  P1_19 
REMARK    5  A    between atoms: P1_19  and  O5_22 
REMARK    6  A    between atoms: O5_22  and  P2_23 
REMARK    7  A    between atoms: C9_27  and  O9_28 
REMARK    8  A    between atoms: C10_30  and  O10_31 
ROOT
HETATM    1  C6  UNL     1       5.087 -11.176  25.692  1.00  0.00     0.262 C 
HETATM    2  O1  UNL     1       6.149 -10.785  24.877  1.00  0.00    -0.353 OA
HETATM    3  C7  UNL     1       5.758 -11.338  23.658  1.00  0.00     0.180 C 
HETATM    4  C9  UNL     1       4.303 -10.998  23.489  1.00  0.00     0.182 C 
HETATM    5  C10 UNL     1       3.903 -10.634  24.926  1.00  0.00     0.198 C 
ENDROOT
BRANCH   1   6
HETATM    6  N5  UNL     1       5.183 -10.653  27.026  1.00  0.00    -0.297 N 
HETATM    7  C3  UNL     1       5.734  -9.455  27.314  1.00  0.00     0.142 A 
HETATM    8  N3  UNL     1       6.293  -8.509  26.521  1.00  0.00    -0.336 N 
HETATM    9  C4  UNL     1       5.676  -9.240  28.674  1.00  0.00     0.119 A 
HETATM   10  C2  UNL     1       6.797  -7.360  27.011  1.00  0.00     0.183 A 
ATOM     11  H3  UNL     1       6.334  -8.673  25.515  1.00  0.00     0.168 HD
HETATM   12  N2  UNL     1       6.739  -7.155  28.322  1.00  0.00    -0.339 N 
HETATM   13  C1  UNL     1       6.191  -8.066  29.162  1.00  0.00     0.148 A 
ATOM     14  H2  UNL     1       7.118  -6.290  28.707  1.00  0.00     0.167 HD
HETATM   15  N1  UNL     1       6.152  -7.806  30.535  1.00  0.00    -0.080 NA
HETATM   16  N4  UNL     1       5.079 -10.333  29.183  1.00  0.00    -0.346 N 
HETATM   17  C5  UNL     1       4.786 -11.178  28.178  1.00  0.00     0.188 A 
ATOM     18  H4  UNL     1       4.880 -10.494  30.170  1.00  0.00     0.167 HD
ENDBRANCH   1   6
BRANCH   5  19
HETATM   19  O10 UNL     1       2.708 -11.215  25.277  1.00  0.00    -0.388 OA
ATOM     20  H10 UNL     1       2.240 -10.741  25.954  1.00  0.00     0.210 HD
ENDBRANCH   5  19
BRANCH   3  21
HETATM   21  C8  UNL     1       6.607 -10.839  22.512  1.00  0.00     0.216 C 
BRANCH  21  22
HETATM   22  O2  UNL     1       6.278 -11.553  21.402  1.00  0.00    -0.287 OA
BRANCH  22  23
HETATM   23  P1  UNL     1       7.449 -12.428  20.665  1.00  0.00     0.418 P 
HETATM   24  O3  UNL     1       6.840 -12.275  19.273  1.00  0.00    -0.624 OA
HETATM   25  O4  UNL     1       8.823 -11.567  20.093  1.00  0.00    -0.624 OA
BRANCH  23  26
HETATM   26  O5  UNL     1       7.447 -14.036  20.648  1.00  0.00    -0.173 OA
BRANCH  26  27
HETATM   27  P2  UNL     1       8.400 -14.856  21.709  1.00  0.00     0.431 P 
HETATM   28  O6  UNL     1       8.551 -16.462  21.611  1.00  0.00    -0.616 OA
HETATM   29  O7  UNL     1       9.025 -14.021  23.040  1.00  0.00    -0.616 OA
HETATM   30  O8  UNL     1       9.657 -14.473  20.926  1.00  0.00    -0.616 OA
ENDBRANCH  26  27
ENDBRANCH  23  26
ENDBRANCH  22  23
ENDBRANCH  21  22
ENDBRANCH   3  21
BRANCH   4  31
HETATM   31  O9  UNL     1       3.559 -12.143  23.171  1.00  0.00    -0.390 OA
ATOM     32  H9  UNL     1       2.664 -11.913  22.954  1.00  0.00     0.210 HD
ENDBRANCH   4  31
TORSDOF 8
ENDMDL
