MODEL 3
REMARK VINA RESULT: -7.530122689      0.984      2.341
REMARK  8 active torsions:
REMARK  status: ('A' for Active; 'I' for Inactive)
REMARK    1  A    between atoms: N5_13  and  C6_14 
REMARK    2  A    between atoms: C7_16  and  C8_17 
REMARK    3  A    between atoms: C8_17  and  O2_18 
REMARK    4  A    between atoms: O2_18  and  P1_19 
REMARK    5  A    between atoms: P1_19  and  O5_22 
REMARK    6  A    between atoms: O5_22  and  P2_23 
REMARK    7  A    between atoms: C9_27  and  O9_28 
REMARK    8  A    between atoms: C10_30  and  O10_31 
ROOT
HETATM    1  C6  UNL     1       6.147 -10.493  24.239  1.00  0.00     0.262 C 
HETATM    2  O1  UNL     1       6.584  -9.795  25.366  1.00  0.00    -0.353 OA
HETATM    3  C7  UNL     1       5.450  -9.038  25.658  1.00  0.00     0.180 C 
HETATM    4  C9  UNL     1       4.280  -9.979  25.562  1.00  0.00     0.182 C 
HETATM    5  C10 UNL     1       4.883 -11.138  24.756  1.00  0.00     0.198 C 
ENDROOT
BRANCH   1   6
HETATM    6  N5  UNL     1       7.111 -11.443  23.762  1.00  0.00    -0.297 N 
HETATM    7  C3  UNL     1       7.169 -11.860  22.479  1.00  0.00     0.142 A 
HETATM    8  N3  UNL     1       6.421 -11.540  21.396  1.00  0.00    -0.336 N 
HETATM    9  C4  UNL     1       8.198 -12.767  22.339  1.00  0.00     0.119 A 
HETATM   10  C2  UNL     1       6.641 -12.075  20.180  1.00  0.00     0.183 A 
ATOM     11  H3  UNL     1       5.661 -10.868  21.505  1.00  0.00     0.168 HD
HETATM   12  N2  UNL     1       7.633 -12.950  20.047  1.00  0.00    -0.339 N 
HETATM   13  C1  UNL     1       8.413 -13.306  21.095  1.00  0.00     0.148 A 
ATOM     14  H2  UNL     1       7.811 -13.365  19.132  1.00  0.00     0.167 HD
HETATM   15  N1  UNL     1       9.446 -14.230  20.908  1.00  0.00    -0.080 NA
HETATM   16  N4  UNL     1       8.746 -12.877  23.562  1.00  0.00    -0.346 N 
HETATM   17  C5  UNL     1       8.081 -12.073  24.412  1.00  0.00     0.188 A 
ATOM     18  H4  UNL     1       9.537 -13.474  23.805  1.00  0.00     0.167 HD
ENDBRANCH   1   6
BRANCH   5  19
HETATM   19  O10 UNL     1       4.031 -11.553  23.759  1.00  0.00    -0.388 OA
ATOM     20  H10 UNL     1       3.247 -11.023  23.686  1.00  0.00     0.210 HD
ENDBRANCH   5  19
BRANCH   3  21
HETATM   21  C8  UNL     1       5.547  -8.371  27.010  1.00  0.00     0.216 C 
BRANCH  21  22
HETATM   22  O2  UNL     1       6.101  -7.141  26.835  1.00  0.00    -0.287 OA
BRANCH  22  23
HETATM   23  P1  UNL     1       7.370  -6.719  27.778  1.00  0.00     0.418 P 
HETATM   24  O3  UNL     1       7.394  -8.048  28.530  1.00  0.00    -0.624 OA
HETATM   25  O4  UNL     1       8.940  -7.093  27.188  1.00  0.00    -0.624 OA
BRANCH  23  26
HETATM   26  O5  UNL     1       7.204  -5.812  29.096  1.00  0.00    -0.173 OA
BRANCH  26  27
HETATM   27  P2  UNL     1       6.500  -4.330  28.972  1.00  0.00     0.431 P 
HETATM   28  O6  UNL     1       6.226  -3.666  27.524  1.00  0.00    -0.616 OA
HETATM   29  O7  UNL     1       6.287  -3.420  30.380  1.00  0.00    -0.616 OA
HETATM   30  O8  UNL     1       5.113  -4.934  29.197  1.00  0.00    -0.616 OA
ENDBRANCH  26  27
ENDBRANCH  23  26
ENDBRANCH  22  23
ENDBRANCH  21  22
ENDBRANCH   3  21
BRANCH   4  31
HETATM   31  O9  UNL     1       3.274  -9.438  24.748  1.00  0.00    -0.390 OA
ATOM     32  H9  UNL     1       2.932  -8.636  25.125  1.00  0.00     0.210 HD
ENDBRANCH   4  31
TORSDOF 8
ENDMDL
