MODEL 14
REMARK VINA RESULT: -6.987108918      1.222      2.802
REMARK  8 active torsions:
REMARK  status: ('A' for Active; 'I' for Inactive)
REMARK    1  A    between atoms: N5_13  and  C6_14 
REMARK    2  A    between atoms: C7_16  and  C8_17 
REMARK    3  A    between atoms: C8_17  and  O2_18 
REMARK    4  A    between atoms: O2_18  and  P1_19 
REMARK    5  A    between atoms: P1_19  and  O5_22 
REMARK    6  A    between atoms: O5_22  and  P2_23 
REMARK    7  A    between atoms: C9_27  and  O9_28 
REMARK    8  A    between atoms: C10_30  and  O10_31 
ROOT
HETATM    1  C6  UNL     1       5.857 -10.566  23.369  1.00  0.00     0.262 C 
HETATM    2  O1  UNL     1       6.619  -9.996  24.389  1.00  0.00    -0.353 OA
HETATM    3  C7  UNL     1       5.640  -9.279  25.075  1.00  0.00     0.180 C 
HETATM    4  C9  UNL     1       4.464 -10.206  25.221  1.00  0.00     0.182 C 
HETATM    5  C10 UNL     1       4.776 -11.267  24.157  1.00  0.00     0.198 C 
ENDROOT
BRANCH   1   6
HETATM    6  N5  UNL     1       6.615 -11.456  22.535  1.00  0.00    -0.297 N 
HETATM    7  C3  UNL     1       7.480 -12.370  23.021  1.00  0.00     0.142 A 
HETATM    8  N3  UNL     1       7.844 -12.677  24.290  1.00  0.00    -0.336 N 
HETATM    9  C4  UNL     1       8.046 -13.066  21.975  1.00  0.00     0.119 A 
HETATM   10  C2  UNL     1       8.742 -13.640  24.572  1.00  0.00     0.183 A 
ATOM     11  H3  UNL     1       7.423 -12.159  25.061  1.00  0.00     0.168 HD
HETATM   12  N2  UNL     1       9.287 -14.310  23.562  1.00  0.00    -0.339 N 
HETATM   13  C1  UNL     1       8.959 -14.046  22.275  1.00  0.00     0.148 A 
ATOM     14  H2  UNL     1       9.969 -15.042  23.761  1.00  0.00     0.167 HD
HETATM   15  N1  UNL     1       9.558 -14.777  21.244  1.00  0.00    -0.080 NA
HETATM   16  N4  UNL     1       7.498 -12.547  20.863  1.00  0.00    -0.346 N 
HETATM   17  C5  UNL     1       6.635 -11.575  21.214  1.00  0.00     0.188 A 
ATOM     18  H4  UNL     1       7.702 -12.841  19.908  1.00  0.00     0.167 HD
ENDBRANCH   1   6
BRANCH   5  19
HETATM   19  O10 UNL     1       3.662 -11.572  23.411  1.00  0.00    -0.388 OA
ATOM     20  H10 UNL     1       3.862 -12.019  22.597  1.00  0.00     0.210 HD
ENDBRANCH   5  19
BRANCH   3  21
HETATM   21  C8  UNL     1       6.141  -8.764  26.404  1.00  0.00     0.216 C 
BRANCH  21  22
HETATM   22  O2  UNL     1       7.086  -7.817  26.161  1.00  0.00    -0.287 OA
BRANCH  22  23
HETATM   23  P1  UNL     1       7.815  -7.100  27.439  1.00  0.00     0.418 P 
HETATM   24  O3  UNL     1       8.603  -8.349  27.830  1.00  0.00    -0.624 OA
HETATM   25  O4  UNL     1       9.316  -6.318  27.144  1.00  0.00    -0.624 OA
BRANCH  23  26
HETATM   26  O5  UNL     1       7.091  -6.934  28.866  1.00  0.00    -0.173 OA
BRANCH  26  27
HETATM   27  P2  UNL     1       6.484  -5.467  29.297  1.00  0.00     0.431 P 
HETATM   28  O6  UNL     1       7.471  -4.251  29.696  1.00  0.00    -0.616 OA
HETATM   29  O7  UNL     1       4.817  -5.327  29.543  1.00  0.00    -0.616 OA
HETATM   30  O8  UNL     1       6.262  -5.092  27.831  1.00  0.00    -0.616 OA
ENDBRANCH  26  27
ENDBRANCH  23  26
ENDBRANCH  22  23
ENDBRANCH  21  22
ENDBRANCH   3  21
BRANCH   4  31
HETATM   31  O9  UNL     1       3.283  -9.581  24.795  1.00  0.00    -0.390 OA
ATOM     32  H9  UNL     1       2.545  -9.862  25.323  1.00  0.00     0.210 HD
ENDBRANCH   4  31
TORSDOF 8
ENDMDL
