MODEL 13
REMARK VINA RESULT: -7.009656982      4.968      7.957
REMARK  8 active torsions:
REMARK  status: ('A' for Active; 'I' for Inactive)
REMARK    1  A    between atoms: N5_13  and  C6_14 
REMARK    2  A    between atoms: C7_16  and  C8_17 
REMARK    3  A    between atoms: C8_17  and  O2_18 
REMARK    4  A    between atoms: O2_18  and  P1_19 
REMARK    5  A    between atoms: P1_19  and  O5_22 
REMARK    6  A    between atoms: O5_22  and  P2_23 
REMARK    7  A    between atoms: C9_27  and  O9_28 
REMARK    8  A    between atoms: C10_30  and  O10_31 
ROOT
HETATM    1  C6  UNL     1       4.307  -9.765  24.881  1.00  0.00     0.262 C 
HETATM    2  O1  UNL     1       4.717 -10.971  24.312  1.00  0.00    -0.353 OA
HETATM    3  C7  UNL     1       5.700 -10.521  23.432  1.00  0.00     0.180 C 
HETATM    4  C9  UNL     1       6.542  -9.542  24.205  1.00  0.00     0.182 C 
HETATM    5  C10 UNL     1       5.618  -9.208  25.385  1.00  0.00     0.198 C 
ENDROOT
BRANCH   1   6
HETATM    6  N5  UNL     1       3.332  -9.940  25.920  1.00  0.00    -0.297 N 
HETATM    7  C3  UNL     1       3.431 -10.886  26.878  1.00  0.00     0.142 A 
HETATM    8  N3  UNL     1       4.370 -11.836  27.109  1.00  0.00    -0.336 N 
HETATM    9  C4  UNL     1       2.346 -10.797  27.723  1.00  0.00     0.119 A 
HETATM   10  C2  UNL     1       4.285 -12.702  28.137  1.00  0.00     0.183 A 
ATOM     11  H3  UNL     1       5.171 -11.897  26.480  1.00  0.00     0.168 HD
HETATM   12  N2  UNL     1       3.238 -12.614  28.950  1.00  0.00    -0.339 N 
HETATM   13  C1  UNL     1       2.271 -11.684  28.767  1.00  0.00     0.148 A 
ATOM     14  H2  UNL     1       3.161 -13.265  29.732  1.00  0.00     0.167 HD
HETATM   15  N1  UNL     1       1.187 -11.630  29.649  1.00  0.00    -0.080 NA
HETATM   16  N4  UNL     1       1.605  -9.781  27.247  1.00  0.00    -0.346 N 
HETATM   17  C5  UNL     1       2.211  -9.272  26.158  1.00  0.00     0.188 A 
ATOM     18  H4  UNL     1       0.727  -9.450  27.646  1.00  0.00     0.167 HD
ENDBRANCH   1   6
BRANCH   5  19
HETATM   19  O10 UNL     1       5.583  -7.856  25.628  1.00  0.00    -0.388 OA
ATOM     20  H10 UNL     1       4.814  -7.426  25.271  1.00  0.00     0.210 HD
ENDBRANCH   5  19
BRANCH   3  21
HETATM   21  C8  UNL     1       6.513 -11.660  22.861  1.00  0.00     0.216 C 
BRANCH  21  22
HETATM   22  O2  UNL     1       7.251 -11.175  21.826  1.00  0.00    -0.287 OA
BRANCH  22  23
HETATM   23  P1  UNL     1       7.559 -12.164  20.560  1.00  0.00     0.418 P 
HETATM   24  O3  UNL     1       6.412 -13.119  20.887  1.00  0.00    -0.624 OA
HETATM   25  O4  UNL     1       6.761 -11.809  19.079  1.00  0.00    -0.624 OA
BRANCH  23  26
HETATM   26  O5  UNL     1       8.703 -13.294  20.603  1.00  0.00    -0.173 OA
BRANCH  26  27
HETATM   27  P2  UNL     1       8.540 -14.569  21.629  1.00  0.00     0.431 P 
HETATM   28  O6  UNL     1       7.796 -15.922  21.152  1.00  0.00    -0.616 OA
HETATM   29  O7  UNL     1       8.950 -14.351  23.255  1.00  0.00    -0.616 OA
HETATM   30  O8  UNL     1       9.980 -15.010  21.363  1.00  0.00    -0.616 OA
ENDBRANCH  26  27
ENDBRANCH  23  26
ENDBRANCH  22  23
ENDBRANCH  21  22
ENDBRANCH   3  21
BRANCH   4  31
HETATM   31  O9  UNL     1       6.690  -8.344  23.492  1.00  0.00    -0.390 OA
ATOM     32  H9  UNL     1       7.556  -8.287  23.107  1.00  0.00     0.210 HD
ENDBRANCH   4  31
TORSDOF 8
ENDMDL
