MODEL 1
REMARK VINA RESULT: -9.967853831      0.000      0.000
REMARK  4 active torsions:
REMARK  status: ('A' for Active; 'I' for Inactive)
REMARK    1  A    between atoms: C2_2  and  C4_4 
REMARK    2  A    between atoms: C2_2  and  C10_12 
REMARK    3  A    between atoms: C7_7  and  O1_8 
REMARK    4  A    between atoms: C13_15  and  O2_16 
ROOT
HETATM    1  C1  UNL     1     -15.663  -1.898 -26.886  1.00  0.00     0.025 C 
HETATM    2  C2  UNL     1     -16.549  -2.999 -27.402  1.00  0.00     0.007 C 
HETATM    3  C3  UNL     1     -17.891  -2.832 -26.718  1.00  0.00     0.025 C 
ENDROOT
BRANCH   2   4
HETATM    4  C4  UNL     1     -16.021  -4.345 -27.159  1.00  0.00    -0.045 A 
HETATM    5  C5  UNL     1     -15.087  -4.963 -27.938  1.00  0.00     0.011 A 
HETATM    6  C6  UNL     1     -14.647  -6.233 -27.633  1.00  0.00     0.037 A 
HETATM    7  C7  UNL     1     -15.125  -6.924 -26.543  1.00  0.00     0.065 A 
HETATM    8  C8  UNL     1     -16.067  -6.315 -25.747  1.00  0.00     0.037 A 
HETATM    9  C9  UNL     1     -16.495  -5.050 -26.066  1.00  0.00     0.011 A 
BRANCH   7  10
HETATM   10  O1  UNL     1     -14.627  -8.199 -26.308  1.00  0.00    -0.361 OA
ATOM     11  H1  UNL     1     -14.472  -8.763 -27.057  1.00  0.00     0.217 HD
ENDBRANCH   7  10
ENDBRANCH   2   4
BRANCH   2  12
HETATM   12  C10 UNL     1     -16.672  -2.806 -28.871  1.00  0.00    -0.045 A 
HETATM   13  C11 UNL     1     -15.603  -2.264 -29.550  1.00  0.00     0.011 A 
HETATM   14  C12 UNL     1     -15.649  -2.054 -30.935  1.00  0.00     0.037 A 
HETATM   15  C13 UNL     1     -16.793  -2.404 -31.595  1.00  0.00     0.065 A 
HETATM   16  C14 UNL     1     -17.849  -2.940 -30.919  1.00  0.00     0.037 A 
HETATM   17  C15 UNL     1     -17.820  -3.155 -29.552  1.00  0.00     0.011 A 
BRANCH  15  18
HETATM   18  O2  UNL     1     -16.899  -2.217 -32.985  1.00  0.00    -0.361 OA
ATOM     19  H2  UNL     1     -17.742  -2.282 -33.416  1.00  0.00     0.217 HD
ENDBRANCH  15  18
ENDBRANCH   2  12
TORSDOF 4
ENDMDL
