MODEL 4
REMARK VINA RESULT: -9.895604769      0.422      1.176
REMARK  4 active torsions:
REMARK  status: ('A' for Active; 'I' for Inactive)
REMARK    1  A    between atoms: C2_2  and  C4_4 
REMARK    2  A    between atoms: C2_2  and  C10_12 
REMARK    3  A    between atoms: C7_7  and  O1_8 
REMARK    4  A    between atoms: C13_15  and  O2_16 
ROOT
HETATM    1  C1  UNL     1     -15.644  -2.040 -26.776  1.00  0.00     0.025 C 
HETATM    2  C2  UNL     1     -16.698  -2.995 -27.266  1.00  0.00     0.007 C 
HETATM    3  C3  UNL     1     -17.991  -2.601 -26.582  1.00  0.00     0.025 C 
ENDROOT
BRANCH   2   4
HETATM    4  C4  UNL     1     -16.390  -4.403 -26.996  1.00  0.00    -0.045 A 
HETATM    5  C5  UNL     1     -17.191  -5.248 -26.285  1.00  0.00     0.011 A 
HETATM    6  C6  UNL     1     -16.821  -6.560 -26.080  1.00  0.00     0.037 A 
HETATM    7  C7  UNL     1     -15.642  -7.068 -26.578  1.00  0.00     0.065 A 
HETATM    8  C8  UNL     1     -14.824  -6.228 -27.297  1.00  0.00     0.037 A 
HETATM    9  C9  UNL     1     -15.207  -4.924 -27.491  1.00  0.00     0.011 A 
BRANCH   7  10
HETATM   10  O1  UNL     1     -15.347  -8.401 -26.325  1.00  0.00    -0.361 OA
ATOM     11  H1  UNL     1     -14.439  -8.636 -26.173  1.00  0.00     0.217 HD
ENDBRANCH   7  10
ENDBRANCH   2   4
BRANCH   2  12
HETATM   12  C10 UNL     1     -16.797  -2.814 -28.739  1.00  0.00    -0.045 A 
HETATM   13  C11 UNL     1     -15.720  -2.271 -29.404  1.00  0.00     0.011 A 
HETATM   14  C12 UNL     1     -15.744  -2.072 -30.791  1.00  0.00     0.037 A 
HETATM   15  C13 UNL     1     -16.874  -2.435 -31.467  1.00  0.00     0.065 A 
HETATM   16  C14 UNL     1     -17.938  -2.973 -30.805  1.00  0.00     0.037 A 
HETATM   17  C15 UNL     1     -17.931  -3.176 -29.436  1.00  0.00     0.011 A 
BRANCH  15  18
HETATM   18  O2  UNL     1     -16.958  -2.260 -32.860  1.00  0.00    -0.361 OA
ATOM     19  H2  UNL     1     -17.598  -1.665 -33.233  1.00  0.00     0.217 HD
ENDBRANCH  15  18
ENDBRANCH   2  12
TORSDOF 4
ENDMDL
