MODEL 2
REMARK VINA RESULT: -9.959831368      0.158      1.165
REMARK  4 active torsions:
REMARK  status: ('A' for Active; 'I' for Inactive)
REMARK    1  A    between atoms: C2_2  and  C4_4 
REMARK    2  A    between atoms: C2_2  and  C10_12 
REMARK    3  A    between atoms: C7_7  and  O1_8 
REMARK    4  A    between atoms: C13_15  and  O2_16 
ROOT
HETATM    1  C1  UNL     1     -15.692  -1.935 -26.840  1.00  0.00     0.025 C 
HETATM    2  C2  UNL     1     -16.587  -3.011 -27.389  1.00  0.00     0.007 C 
HETATM    3  C3  UNL     1     -17.935  -2.839 -26.717  1.00  0.00     0.025 C 
ENDROOT
BRANCH   2   4
HETATM    4  C4  UNL     1     -16.081  -4.370 -27.170  1.00  0.00    -0.045 A 
HETATM    5  C5  UNL     1     -15.036  -4.926 -27.847  1.00  0.00     0.011 A 
HETATM    6  C6  UNL     1     -14.627  -6.213 -27.575  1.00  0.00     0.037 A 
HETATM    7  C7  UNL     1     -15.249  -6.985 -26.618  1.00  0.00     0.065 A 
HETATM    8  C8  UNL     1     -16.305  -6.438 -25.927  1.00  0.00     0.037 A 
HETATM    9  C9  UNL     1     -16.699  -5.154 -26.211  1.00  0.00     0.011 A 
BRANCH   7  10
HETATM   10  O1  UNL     1     -14.772  -8.271 -26.406  1.00  0.00    -0.361 OA
ATOM     11  H1  UNL     1     -15.153  -8.778 -25.699  1.00  0.00     0.217 HD
ENDBRANCH   7  10
ENDBRANCH   2   4
BRANCH   2  12
HETATM   12  C10 UNL     1     -16.691  -2.784 -28.855  1.00  0.00    -0.045 A 
HETATM   13  C11 UNL     1     -17.857  -3.147 -29.492  1.00  0.00     0.011 A 
HETATM   14  C12 UNL     1     -18.024  -2.962 -30.871  1.00  0.00     0.037 A 
HETATM   15  C13 UNL     1     -16.988  -2.407 -31.569  1.00  0.00     0.065 A 
HETATM   16  C14 UNL     1     -15.835  -2.049 -30.935  1.00  0.00     0.037 A 
HETATM   17  C15 UNL     1     -15.654  -2.225 -29.575  1.00  0.00     0.011 A 
BRANCH  15  18
HETATM   18  O2  UNL     1     -17.096  -2.197 -32.956  1.00  0.00    -0.361 OA
ATOM     19  H2  UNL     1     -16.341  -2.313 -33.520  1.00  0.00     0.217 HD
ENDBRANCH  15  18
ENDBRANCH   2  12
TORSDOF 4
ENDMDL
