MODEL 5
REMARK VINA RESULT: -9.894470063      0.424      1.649
REMARK  4 active torsions:
REMARK  status: ('A' for Active; 'I' for Inactive)
REMARK    1  A    between atoms: C2_2  and  C4_4 
REMARK    2  A    between atoms: C2_2  and  C10_12 
REMARK    3  A    between atoms: C7_7  and  O1_8 
REMARK    4  A    between atoms: C13_15  and  O2_16 
ROOT
HETATM    1  C1  UNL     1     -15.649  -2.032 -26.706  1.00  0.00     0.025 C 
HETATM    2  C2  UNL     1     -16.678  -2.982 -27.257  1.00  0.00     0.007 C 
HETATM    3  C3  UNL     1     -18.002  -2.597 -26.628  1.00  0.00     0.025 C 
ENDROOT
BRANCH   2   4
HETATM    4  C4  UNL     1     -16.381  -4.393 -26.991  1.00  0.00    -0.045 A 
HETATM    5  C5  UNL     1     -17.188  -5.233 -26.282  1.00  0.00     0.011 A 
HETATM    6  C6  UNL     1     -16.828  -6.548 -26.081  1.00  0.00     0.037 A 
HETATM    7  C7  UNL     1     -15.653  -7.064 -26.581  1.00  0.00     0.065 A 
HETATM    8  C8  UNL     1     -14.829  -6.228 -27.298  1.00  0.00     0.037 A 
HETATM    9  C9  UNL     1     -15.202  -4.921 -27.488  1.00  0.00     0.011 A 
BRANCH   7  10
HETATM   10  O1  UNL     1     -15.369  -8.400 -26.332  1.00  0.00    -0.361 OA
ATOM     11  H1  UNL     1     -16.067  -8.951 -26.001  1.00  0.00     0.217 HD
ENDBRANCH   7  10
ENDBRANCH   2   4
BRANCH   2  12
HETATM   12  C10 UNL     1     -16.710  -2.782 -28.730  1.00  0.00    -0.045 A 
HETATM   13  C11 UNL     1     -17.859  -3.120 -29.410  1.00  0.00     0.011 A 
HETATM   14  C12 UNL     1     -17.959  -2.959 -30.798  1.00  0.00     0.037 A 
HETATM   15  C13 UNL     1     -16.877  -2.452 -31.461  1.00  0.00     0.065 A 
HETATM   16  C14 UNL     1     -15.741  -2.118 -30.784  1.00  0.00     0.037 A 
HETATM   17  C15 UNL     1     -15.625  -2.271 -29.414  1.00  0.00     0.011 A 
BRANCH  15  18
HETATM   18  O2  UNL     1     -16.918  -2.267 -32.855  1.00  0.00    -0.361 OA
ATOM     19  H2  UNL     1     -16.308  -1.675 -33.279  1.00  0.00     0.217 HD
ENDBRANCH  15  18
ENDBRANCH   2  12
TORSDOF 4
ENDMDL
