MODEL 3
REMARK VINA RESULT: -9.906614518      0.217      5.426
REMARK  4 active torsions:
REMARK  status: ('A' for Active; 'I' for Inactive)
REMARK    1  A    between atoms: C2_2  and  C4_4 
REMARK    2  A    between atoms: C2_2  and  C10_12 
REMARK    3  A    between atoms: C7_7  and  O1_8 
REMARK    4  A    between atoms: C13_15  and  O2_16 
ROOT
HETATM    1  C1  UNL     1     -17.924  -2.904 -26.661  1.00  0.00     0.025 C 
HETATM    2  C2  UNL     1     -16.601  -3.025 -27.367  1.00  0.00     0.007 C 
HETATM    3  C3  UNL     1     -15.673  -2.013 -26.725  1.00  0.00     0.025 C 
ENDROOT
BRANCH   2   4
HETATM    4  C4  UNL     1     -16.680  -2.795 -28.813  1.00  0.00    -0.045 A 
HETATM    5  C5  UNL     1     -15.678  -2.259 -29.567  1.00  0.00     0.011 A 
HETATM    6  C6  UNL     1     -15.840  -2.078 -30.924  1.00  0.00     0.037 A 
HETATM    7  C7  UNL     1     -17.006  -2.426 -31.568  1.00  0.00     0.065 A 
HETATM    8  C8  UNL     1     -18.026  -2.967 -30.821  1.00  0.00     0.037 A 
HETATM    9  C9  UNL     1     -17.848  -3.140 -29.471  1.00  0.00     0.011 A 
BRANCH   7  10
HETATM   10  O1  UNL     1     -17.085  -2.210 -32.937  1.00  0.00    -0.361 OA
ATOM     11  H1  UNL     1     -17.948  -2.158 -33.332  1.00  0.00     0.217 HD
ENDBRANCH   7  10
ENDBRANCH   2   4
BRANCH   2  12
HETATM   12  C10 UNL     1     -16.114  -4.412 -27.142  1.00  0.00    -0.045 A 
HETATM   13  C11 UNL     1     -16.806  -5.213 -26.260  1.00  0.00     0.011 A 
HETATM   14  C12 UNL     1     -16.403  -6.529 -26.001  1.00  0.00     0.037 A 
HETATM   15  C13 UNL     1     -15.298  -6.998 -26.653  1.00  0.00     0.065 A 
HETATM   16  C14 UNL     1     -14.615  -6.202 -27.525  1.00  0.00     0.037 A 
HETATM   17  C15 UNL     1     -14.999  -4.900 -27.793  1.00  0.00     0.011 A 
BRANCH  15  18
HETATM   18  O2  UNL     1     -14.845  -8.312 -26.433  1.00  0.00    -0.361 OA
ATOM     19  H2  UNL     1     -14.163  -8.683 -26.980  1.00  0.00     0.217 HD
ENDBRANCH  15  18
ENDBRANCH   2  12
TORSDOF 4
ENDMDL
