MODEL 1
REMARK VINA RESULT: -8.146913248      0.000      0.000
REMARK  10 active torsions:
REMARK  status: ('A' for Active; 'I' for Inactive)
REMARK    1  A    between atoms: N5_13  and  C6_14 
REMARK    2  A    between atoms: C7_16  and  C8_17 
REMARK    3  A    between atoms: C8_17  and  O2_18 
REMARK    4  A    between atoms: O2_18  and  P1_19 
REMARK    5  A    between atoms: P1_19  and  O5_22 
REMARK    6  A    between atoms: O5_22  and  P2_23 
REMARK    7  A    between atoms: P2_23  and  O8_26 
REMARK    8  A    between atoms: O8_26  and  P3_27 
REMARK    9  A    between atoms: C9_31  and  O12_32 
REMARK   10  A    between atoms: C10_34  and  O13_35 
ROOT
HETATM    1  C6  UNL     1      28.205  22.558   9.842  1.00  0.00     0.159 C 
HETATM    2  O1  UNL     1      28.617  21.452  10.605  1.00  0.00    -0.326 OA
HETATM    3  C7  UNL     1      27.483  21.057  11.184  1.00  0.00     0.186 C 
HETATM    4  C9  UNL     1      26.254  21.812  10.659  1.00  0.00     0.186 C 
HETATM    5  C10 UNL     1      26.892  22.147   9.279  1.00  0.00     0.224 C 
ENDROOT
BRANCH   3   6
HETATM    6  C8  UNL     1      27.033  19.664  11.363  1.00  0.00     0.216 C 
BRANCH   6   7
HETATM    7  O2  UNL     1      27.470  18.891  10.259  1.00  0.00    -0.287 OA
BRANCH   7   8
HETATM    8  P1  UNL     1      26.317  17.580  10.292  1.00  0.00     0.417 P 
HETATM    9  O3  UNL     1      25.831  17.400  11.638  1.00  0.00    -0.624 OA
HETATM   10  O4  UNL     1      25.046  18.259   9.252  1.00  0.00    -0.624 OA
BRANCH   8  11
HETATM   11  O5  UNL     1      26.869  16.234   9.470  1.00  0.00    -0.180 OA
BRANCH  11  12
HETATM   12  P2  UNL     1      25.870  14.885   9.919  1.00  0.00     0.428 P 
HETATM   13  O6  UNL     1      26.178  13.798   8.933  1.00  0.00    -0.624 OA
HETATM   14  O7  UNL     1      24.252  15.266   9.964  1.00  0.00    -0.624 OA
BRANCH  12  15
HETATM   15  O8  UNL     1      26.420  14.383  11.460  1.00  0.00    -0.173 OA
BRANCH  15  16
HETATM   16  P3  UNL     1      25.158  13.665  12.299  1.00  0.00     0.431 P 
HETATM   17  O9  UNL     1      24.304  12.799  11.441  1.00  0.00    -0.616 OA
HETATM   18  O10 UNL     1      25.844  12.715  13.530  1.00  0.00    -0.616 OA
HETATM   19  O11 UNL     1      24.228  14.916  12.972  1.00  0.00    -0.616 OA
ENDBRANCH  15  16
ENDBRANCH  12  15
ENDBRANCH  11  12
ENDBRANCH   8  11
ENDBRANCH   7   8
ENDBRANCH   6   7
ENDBRANCH   3   6
BRANCH   4  20
HETATM   20  O12 UNL     1      26.088  22.937  11.401  1.00  0.00    -0.390 OA
ATOM     21  H12 UNL     1      26.429  23.676  10.912  1.00  0.00     0.210 HD
ENDBRANCH   4  20
BRANCH   1  22
HETATM   22  N5  UNL     1      29.144  23.219   9.078  1.00  0.00    -0.273 N 
HETATM   23  C3  UNL     1      30.030  22.660   8.238  1.00  0.00     0.146 A 
HETATM   24  N3  UNL     1      30.355  21.388   8.063  1.00  0.00    -0.336 N 
HETATM   25  C4  UNL     1      30.650  23.607   7.493  1.00  0.00     0.120 A 
HETATM   26  C2  UNL     1      31.287  21.060   7.152  1.00  0.00     0.183 A 
ATOM     27  H3  UNL     1      29.900  20.661   8.616  1.00  0.00     0.168 HD
HETATM   28  N2  UNL     1      31.906  21.985   6.395  1.00  0.00    -0.339 N 
HETATM   29  C1  UNL     1      31.594  23.270   6.557  1.00  0.00     0.148 A 
ATOM     30  H2  UNL     1      32.604  21.705   5.705  1.00  0.00     0.167 HD
HETATM   31  N1  UNL     1      32.140  24.217   5.663  1.00  0.00    -0.080 NA
HETATM   32  N4  UNL     1      30.143  24.787   7.899  1.00  0.00    -0.346 N 
HETATM   33  C5  UNL     1      29.234  24.545   8.862  1.00  0.00     0.192 A 
ATOM     34  H4  UNL     1      30.402  25.705   7.539  1.00  0.00     0.167 HD
ENDBRANCH   1  22
BRANCH   5  35
HETATM   35  O13 UNL     1      26.067  23.168   8.826  1.00  0.00    -0.385 OA
ATOM     36  H13 UNL     1      25.310  23.370   9.363  1.00  0.00     0.210 HD
ENDBRANCH   5  35
TORSDOF 10
ENDMDL
