MODEL 3
REMARK VINA RESULT: -7.970857009      1.746      3.464
REMARK  10 active torsions:
REMARK  status: ('A' for Active; 'I' for Inactive)
REMARK    1  A    between atoms: N5_13  and  C6_14 
REMARK    2  A    between atoms: C7_16  and  C8_17 
REMARK    3  A    between atoms: C8_17  and  O2_18 
REMARK    4  A    between atoms: O2_18  and  P1_19 
REMARK    5  A    between atoms: P1_19  and  O5_22 
REMARK    6  A    between atoms: O5_22  and  P2_23 
REMARK    7  A    between atoms: P2_23  and  O8_26 
REMARK    8  A    between atoms: O8_26  and  P3_27 
REMARK    9  A    between atoms: C9_31  and  O12_32 
REMARK   10  A    between atoms: C10_34  and  O13_35 
ROOT
HETATM    1  C6  UNL     1      29.327  22.419   8.370  1.00  0.00     0.159 C 
HETATM    2  O1  UNL     1      27.951  22.699   8.370  1.00  0.00    -0.326 OA
HETATM    3  C7  UNL     1      27.492  21.910   9.342  1.00  0.00     0.186 C 
HETATM    4  C9  UNL     1      28.615  21.216  10.123  1.00  0.00     0.186 C 
HETATM    5  C10 UNL     1      29.679  22.307   9.810  1.00  0.00     0.224 C 
ENDROOT
BRANCH   3   6
HETATM    6  C8  UNL     1      26.481  22.269  10.354  1.00  0.00     0.216 C 
BRANCH   6   7
HETATM    7  O2  UNL     1      26.489  21.294  11.383  1.00  0.00    -0.287 OA
BRANCH   7   8
HETATM    8  P1  UNL     1      25.092  20.341  10.952  1.00  0.00     0.417 P 
HETATM    9  O3  UNL     1      24.396  19.937  12.149  1.00  0.00    -0.624 OA
HETATM   10  O4  UNL     1      24.152  21.556  10.059  1.00  0.00    -0.624 OA
BRANCH   8  11
HETATM   11  O5  UNL     1      25.455  19.166   9.821  1.00  0.00    -0.180 OA
BRANCH  11  12
HETATM   12  P2  UNL     1      26.026  17.761  10.672  1.00  0.00     0.428 P 
HETATM   13  O6  UNL     1      24.801  17.066  11.186  1.00  0.00    -0.624 OA
HETATM   14  O7  UNL     1      27.105  18.133  11.880  1.00  0.00    -0.624 OA
BRANCH  12  15
HETATM   15  O8  UNL     1      26.756  16.759   9.491  1.00  0.00    -0.173 OA
BRANCH  15  16
HETATM   16  P3  UNL     1      26.967  15.218  10.119  1.00  0.00     0.431 P 
HETATM   17  O9  UNL     1      25.775  14.721  10.859  1.00  0.00    -0.616 OA
HETATM   18  O10 UNL     1      27.277  14.177   8.811  1.00  0.00    -0.616 OA
HETATM   19  O11 UNL     1      28.312  15.278  11.153  1.00  0.00    -0.616 OA
ENDBRANCH  15  16
ENDBRANCH  12  15
ENDBRANCH  11  12
ENDBRANCH   8  11
ENDBRANCH   7   8
ENDBRANCH   6   7
ENDBRANCH   3   6
BRANCH   4  20
HETATM   20  O12 UNL     1      28.919  20.049   9.498  1.00  0.00    -0.390 OA
ATOM     21  H12 UNL     1      29.861  19.930   9.521  1.00  0.00     0.210 HD
ENDBRANCH   4  20
BRANCH   1  22
HETATM   22  N5  UNL     1      30.138  23.091   7.479  1.00  0.00    -0.273 N 
HETATM   23  C3  UNL     1      30.287  24.422   7.379  1.00  0.00     0.146 A 
HETATM   24  N3  UNL     1      29.601  25.403   7.945  1.00  0.00    -0.336 N 
HETATM   25  C4  UNL     1      31.315  24.730   6.549  1.00  0.00     0.120 A 
HETATM   26  C2  UNL     1      29.936  26.679   7.692  1.00  0.00     0.183 A 
ATOM     27  H3  UNL     1      28.824  25.191   8.570  1.00  0.00     0.168 HD
HETATM   28  N2  UNL     1      30.959  27.005   6.881  1.00  0.00    -0.339 N 
HETATM   29  C1  UNL     1      31.660  26.033   6.300  1.00  0.00     0.148 A 
ATOM     30  H2  UNL     1      31.194  27.983   6.713  1.00  0.00     0.167 HD
HETATM   31  N1  UNL     1      32.818  26.378   5.567  1.00  0.00    -0.080 NA
HETATM   32  N4  UNL     1      31.801  23.552   6.112  1.00  0.00    -0.346 N 
HETATM   33  C5  UNL     1      31.081  22.564   6.675  1.00  0.00     0.192 A 
ATOM     34  H4  UNL     1      32.581  23.430   5.465  1.00  0.00     0.167 HD
ENDBRANCH   1  22
BRANCH   5  35
HETATM   35  O13 UNL     1      30.862  21.643  10.107  1.00  0.00    -0.385 OA
ATOM     36  H13 UNL     1      31.152  20.993   9.477  1.00  0.00     0.210 HD
ENDBRANCH   5  35
TORSDOF 10
ENDMDL
