MODEL 2
REMARK VINA RESULT: -7.987687116      1.554      2.699
REMARK  10 active torsions:
REMARK  status: ('A' for Active; 'I' for Inactive)
REMARK    1  A    between atoms: N5_13  and  C6_14 
REMARK    2  A    between atoms: C7_16  and  C8_17 
REMARK    3  A    between atoms: C8_17  and  O2_18 
REMARK    4  A    between atoms: O2_18  and  P1_19 
REMARK    5  A    between atoms: P1_19  and  O5_22 
REMARK    6  A    between atoms: O5_22  and  P2_23 
REMARK    7  A    between atoms: P2_23  and  O8_26 
REMARK    8  A    between atoms: O8_26  and  P3_27 
REMARK    9  A    between atoms: C9_31  and  O12_32 
REMARK   10  A    between atoms: C10_34  and  O13_35 
ROOT
HETATM    1  C6  UNL     1      28.701  23.187   9.112  1.00  0.00     0.159 C 
HETATM    2  O1  UNL     1      29.156  22.204  10.006  1.00  0.00    -0.326 OA
HETATM    3  C7  UNL     1      28.121  22.059  10.834  1.00  0.00     0.186 C 
HETATM    4  C9  UNL     1      26.882  22.842  10.378  1.00  0.00     0.186 C 
HETATM    5  C10 UNL     1      27.276  22.835   8.873  1.00  0.00     0.224 C 
ENDROOT
BRANCH   3   6
HETATM    6  C8  UNL     1      27.601  20.787  11.369  1.00  0.00     0.216 C 
BRANCH   6   7
HETATM    7  O2  UNL     1      27.631  19.808  10.345  1.00  0.00    -0.287 OA
BRANCH   7   8
HETATM    8  P1  UNL     1      26.271  18.812  10.794  1.00  0.00     0.417 P 
HETATM    9  O3  UNL     1      26.709  17.775  11.696  1.00  0.00    -0.624 OA
HETATM   10  O4  UNL     1      25.279  20.011  11.653  1.00  0.00    -0.624 OA
BRANCH   8  11
HETATM   11  O5  UNL     1      25.352  18.365   9.472  1.00  0.00    -0.180 OA
BRANCH  11  12
HETATM   12  P2  UNL     1      25.418  16.634   9.334  1.00  0.00     0.428 P 
HETATM   13  O6  UNL     1      25.011  16.318   7.925  1.00  0.00    -0.624 OA
HETATM   14  O7  UNL     1      24.472  15.860  10.461  1.00  0.00    -0.624 OA
BRANCH  12  15
HETATM   15  O8  UNL     1      27.065  16.207   9.524  1.00  0.00    -0.173 OA
BRANCH  15  16
HETATM   16  P3  UNL     1      27.184  14.565   9.840  1.00  0.00     0.431 P 
HETATM   17  O9  UNL     1      26.339  13.734   8.940  1.00  0.00    -0.616 OA
HETATM   18  O10 UNL     1      28.813  14.126   9.625  1.00  0.00    -0.616 OA
HETATM   19  O11 UNL     1      26.721  14.330  11.456  1.00  0.00    -0.616 OA
ENDBRANCH  15  16
ENDBRANCH  12  15
ENDBRANCH  11  12
ENDBRANCH   8  11
ENDBRANCH   7   8
ENDBRANCH   6   7
ENDBRANCH   3   6
BRANCH   4  20
HETATM   20  O12 UNL     1      26.950  24.097  10.891  1.00  0.00    -0.390 OA
ATOM     21  H12 UNL     1      26.335  24.649  10.423  1.00  0.00     0.210 HD
ENDBRANCH   4  20
BRANCH   1  22
HETATM   22  N5  UNL     1      29.531  23.578   8.083  1.00  0.00    -0.273 N 
HETATM   23  C3  UNL     1      29.951  24.827   7.822  1.00  0.00     0.146 A 
HETATM   24  N3  UNL     1      29.560  25.983   8.336  1.00  0.00    -0.336 N 
HETATM   25  C4  UNL     1      30.920  24.821   6.875  1.00  0.00     0.120 A 
HETATM   26  C2  UNL     1      30.130  27.124   7.913  1.00  0.00     0.183 A 
ATOM     27  H3  UNL     1      28.830  26.008   9.048  1.00  0.00     0.168 HD
HETATM   28  N2  UNL     1      31.102  27.138   6.982  1.00  0.00    -0.339 N 
HETATM   29  C1  UNL     1      31.508  25.985   6.452  1.00  0.00     0.148 A 
ATOM     30  H2  UNL     1      31.522  28.019   6.686  1.00  0.00     0.167 HD
HETATM   31  N1  UNL     1      32.623  25.994   5.584  1.00  0.00    -0.080 NA
HETATM   32  N4  UNL     1      31.090  23.530   6.528  1.00  0.00    -0.346 N 
HETATM   33  C5  UNL     1      30.242  22.783   7.261  1.00  0.00     0.192 A 
ATOM     34  H4  UNL     1      31.747  23.179   5.832  1.00  0.00     0.167 HD
ENDBRANCH   1  22
BRANCH   5  35
HETATM   35  O13 UNL     1      26.468  23.842   8.364  1.00  0.00    -0.385 OA
ATOM     36  H13 UNL     1      25.937  23.618   7.608  1.00  0.00     0.210 HD
ENDBRANCH   5  35
TORSDOF 10
ENDMDL
