MODEL 19
REMARK VINA RESULT: -7.464218263      2.100      3.678
REMARK  9 active torsions:
REMARK  status: ('A' for Active; 'I' for Inactive)
REMARK    1  A    between atoms: C7_16  and  C8_17 
REMARK    2  A    between atoms: C8_17  and  N6_18 
REMARK    3  A    between atoms: N6_18  and  C9_20 
REMARK    4  A    between atoms: C12_23  and  C13_24 
REMARK       I    between atoms: C13_24  and  N7_26 
REMARK    5  A    between atoms: N7_26  and  C14_28 
REMARK    6  A    between atoms: C14_28  and  C15_29 
REMARK    7  A    between atoms: C14_28  and  C18_34 
REMARK    8  A    between atoms: C15_29  and  C16_30 
REMARK    9  A    between atoms: C16_30  and  C17_31 
ROOT
HETATM    1  C9  UNL     1      -9.083  69.878 117.606  1.00  0.00     0.028 A 
HETATM    2  C10 UNL     1      -9.122  70.249 116.282  1.00  0.00     0.030 A 
HETATM    3  C11 UNL     1      -9.292  69.300 115.266  1.00  0.00     0.019 A 
HETATM    4  C12 UNL     1      -9.422  67.985 115.614  1.00  0.00     0.032 A 
HETATM    5  C19 UNL     1      -9.383  67.624 116.952  1.00  0.00     0.019 A 
HETATM    6  C20 UNL     1      -9.213  68.553 117.973  1.00  0.00     0.030 A 
ENDROOT
BRANCH   1   7
HETATM    7  N6  UNL     1      -8.905  70.895 118.578  1.00  0.00    -0.388 N 
ATOM      8  H6  UNL     1      -7.983  71.315 118.695  1.00  0.00     0.159 HD
BRANCH   7   9
HETATM    9  C8  UNL     1      -9.998  71.352 119.408  1.00  0.00     0.146 C 
BRANCH   9  10
HETATM   10  C7  UNL     1     -10.471  72.704 118.900  1.00  0.00     0.119 C 
HETATM   11  N1  UNL     1      -9.769  73.808 119.470  1.00  0.00    -0.370 N 
HETATM   12  C1  UNL     1      -8.315  73.786 119.465  1.00  0.00     0.150 C 
HETATM   13  C2  UNL     1     -10.409  74.918 120.037  1.00  0.00     0.143 A 
HETATM   14  C3  UNL     1     -11.734  74.833 120.403  1.00  0.00     0.136 A 
HETATM   15  C5  UNL     1      -9.763  76.126 120.254  1.00  0.00     0.278 A 
HETATM   16  N2  UNL     1     -12.407  75.869 120.956  1.00  0.00    -0.315 N 
HETATM   17  N5  UNL     1     -12.390  73.573 120.173  1.00  0.00    -0.372 N 
HETATM   18  C4  UNL     1     -11.768  77.034 121.160  1.00  0.00     0.196 A 
ATOM     19  H2  UNL     1     -13.388  75.767 121.214  1.00  0.00     0.170 HD
HETATM   20  N3  UNL     1     -12.419  78.151 121.733  1.00  0.00    -0.063 NA
HETATM   21  N4  UNL     1     -10.465  77.130 120.803  1.00  0.00    -0.295 N 
ATOM     22  H4  UNL     1      -9.988  78.018 120.961  1.00  0.00     0.171 HD
HETATM   23  C6  UNL     1     -11.952  72.756 119.074  1.00  0.00     0.148 C 
ATOM     24  H5  UNL     1     -13.152  73.265 120.778  1.00  0.00     0.161 HD
HETATM   25  O1  UNL     1      -8.564  76.250 119.937  1.00  0.00    -0.265 OA
ENDBRANCH   9  10
ENDBRANCH   7   9
ENDBRANCH   1   7
BRANCH   4  26
HETATM   26  C13 UNL     1      -9.603  66.963 114.606  1.00  0.00     0.252 C 
HETATM   27  O2  UNL     1      -8.754  66.765 113.687  1.00  0.00    -0.268 OA
HETATM   28  N7  UNL     1     -10.755  66.146 114.625  1.00  0.00    -0.342 N 
ATOM     29  H7  UNL     1     -11.465  66.270 115.347  1.00  0.00     0.163 HD
BRANCH  28  30
HETATM   30  C14 UNL     1     -10.920  65.113 113.589  1.00  0.00     0.186 C 
BRANCH  30  31
HETATM   31  C15 UNL     1     -11.319  63.871 114.308  1.00  0.00     0.046 C 
BRANCH  31  32
HETATM   32  C16 UNL     1     -12.693  63.967 114.913  1.00  0.00     0.116 C 
BRANCH  32  33
HETATM   33  C17 UNL     1     -13.465  62.766 114.516  1.00  0.00     0.172 C 
HETATM   34  O3  UNL     1     -13.765  62.574 113.327  1.00  0.00    -0.648 OA
HETATM   35  O4  UNL     1     -13.851  61.863 115.478  1.00  0.00    -0.648 OA
ENDBRANCH  32  33
ENDBRANCH  31  32
ENDBRANCH  30  31
BRANCH  30  36
HETATM   36  C18 UNL     1     -11.815  65.593 112.546  1.00  0.00     0.196 C 
HETATM   37  O5  UNL     1     -11.962  64.980 111.443  1.00  0.00    -0.646 OA
HETATM   38  O6  UNL     1     -12.549  66.745 112.719  1.00  0.00    -0.646 OA
ENDBRANCH  30  36
ENDBRANCH  28  30
ENDBRANCH   4  26
TORSDOF 9
ENDMDL
