MODEL 5
REMARK VINA RESULT: -8.168136919      5.491     10.616
REMARK  9 active torsions:
REMARK  status: ('A' for Active; 'I' for Inactive)
REMARK    1  A    between atoms: C7_16  and  C8_17 
REMARK    2  A    between atoms: C8_17  and  N6_18 
REMARK    3  A    between atoms: N6_18  and  C9_20 
REMARK    4  A    between atoms: C12_23  and  C13_24 
REMARK       I    between atoms: C13_24  and  N7_26 
REMARK    5  A    between atoms: N7_26  and  C14_28 
REMARK    6  A    between atoms: C14_28  and  C15_29 
REMARK    7  A    between atoms: C14_28  and  C18_34 
REMARK    8  A    between atoms: C15_29  and  C16_30 
REMARK    9  A    between atoms: C16_30  and  C17_31 
ROOT
HETATM    1  C9  UNL     1     -12.979  76.387 120.761  1.00  0.00     0.028 A 
HETATM    2  C10 UNL     1     -13.799  77.161 121.549  1.00  0.00     0.030 A 
HETATM    3  C11 UNL     1     -15.089  76.737 121.891  1.00  0.00     0.019 A 
HETATM    4  C12 UNL     1     -15.527  75.530 121.425  1.00  0.00     0.032 A 
HETATM    5  C19 UNL     1     -14.690  74.759 120.632  1.00  0.00     0.019 A 
HETATM    6  C20 UNL     1     -13.407  75.165 120.282  1.00  0.00     0.030 A 
ENDROOT
BRANCH   1   7
HETATM    7  N6  UNL     1     -11.686  76.884 120.455  1.00  0.00    -0.388 N 
ATOM      8  H6  UNL     1     -11.084  77.202 121.215  1.00  0.00     0.159 HD
BRANCH   7   9
HETATM    9  C8  UNL     1     -11.200  76.952 119.095  1.00  0.00     0.146 C 
BRANCH   9  10
HETATM   10  C7  UNL     1     -10.093  75.926 118.916  1.00  0.00     0.119 C 
HETATM   11  N1  UNL     1     -10.545  74.684 118.377  1.00  0.00    -0.370 N 
HETATM   12  C1  UNL     1     -11.368  74.703 117.178  1.00  0.00     0.150 C 
HETATM   13  C2  UNL     1     -10.235  73.440 118.944  1.00  0.00     0.143 A 
HETATM   14  C3  UNL     1      -9.793  73.372 120.247  1.00  0.00     0.136 A 
HETATM   15  C5  UNL     1     -10.354  72.248 118.245  1.00  0.00     0.278 A 
HETATM   16  N2  UNL     1      -9.480  72.202 120.851  1.00  0.00    -0.315 N 
HETATM   17  N5  UNL     1      -9.676  74.617 120.958  1.00  0.00    -0.372 N 
HETATM   18  C4  UNL     1      -9.599  71.053 120.161  1.00  0.00     0.196 A 
ATOM     19  H2  UNL     1      -9.156  72.191 121.817  1.00  0.00     0.170 HD
HETATM   20  N3  UNL     1      -9.286  69.801 120.739  1.00  0.00    -0.063 NA
HETATM   21  N4  UNL     1     -10.032  71.109 118.879  1.00  0.00    -0.295 N 
ATOM     22  H4  UNL     1     -10.120  70.233 118.364  1.00  0.00     0.171 HD
HETATM   23  C6  UNL     1      -9.372  75.810 120.217  1.00  0.00     0.148 C 
ATOM     24  H5  UNL     1      -9.806  74.653 121.970  1.00  0.00     0.161 HD
HETATM   25  O1  UNL     1     -10.749  72.262 117.064  1.00  0.00    -0.265 OA
ENDBRANCH   9  10
ENDBRANCH   7   9
ENDBRANCH   1   7
BRANCH   4  26
HETATM   26  C13 UNL     1     -16.849  75.042 121.748  1.00  0.00     0.252 C 
HETATM   27  O2  UNL     1     -17.890  75.489 121.181  1.00  0.00    -0.268 OA
HETATM   28  N7  UNL     1     -17.013  74.034 122.725  1.00  0.00    -0.342 N 
ATOM     29  H7  UNL     1     -16.202  73.645 123.206  1.00  0.00     0.163 HD
BRANCH  28  30
HETATM   30  C14 UNL     1     -18.368  73.552 123.039  1.00  0.00     0.186 C 
BRANCH  30  31
HETATM   31  C15 UNL     1     -18.447  72.166 122.500  1.00  0.00     0.046 C 
BRANCH  31  32
HETATM   32  C16 UNL     1     -18.951  72.122 121.084  1.00  0.00     0.116 C 
BRANCH  32  33
HETATM   33  C17 UNL     1     -17.844  71.679 120.205  1.00  0.00     0.172 C 
HETATM   34  O3  UNL     1     -18.080  71.210 119.080  1.00  0.00    -0.648 OA
HETATM   35  O4  UNL     1     -16.546  71.789 120.646  1.00  0.00    -0.648 OA
ENDBRANCH  32  33
ENDBRANCH  31  32
ENDBRANCH  30  31
BRANCH  30  36
HETATM   36  C18 UNL     1     -18.641  73.729 124.459  1.00  0.00     0.196 C 
HETATM   37  O5  UNL     1     -19.198  74.775 124.918  1.00  0.00    -0.646 OA
HETATM   38  O6  UNL     1     -18.303  72.754 125.371  1.00  0.00    -0.646 OA
ENDBRANCH  30  36
ENDBRANCH  28  30
ENDBRANCH   4  26
TORSDOF 9
ENDMDL
