MODEL 10
REMARK VINA RESULT: -7.877525560      1.740      2.289
REMARK  9 active torsions:
REMARK  status: ('A' for Active; 'I' for Inactive)
REMARK    1  A    between atoms: C7_16  and  C8_17 
REMARK    2  A    between atoms: C8_17  and  N6_18 
REMARK    3  A    between atoms: N6_18  and  C9_20 
REMARK    4  A    between atoms: C12_23  and  C13_24 
REMARK       I    between atoms: C13_24  and  N7_26 
REMARK    5  A    between atoms: N7_26  and  C14_28 
REMARK    6  A    between atoms: C14_28  and  C15_29 
REMARK    7  A    between atoms: C14_28  and  C18_34 
REMARK    8  A    between atoms: C15_29  and  C16_30 
REMARK    9  A    between atoms: C16_30  and  C17_31 
ROOT
HETATM    1  C9  UNL     1      -9.077  72.209 117.643  1.00  0.00     0.028 A 
HETATM    2  C10 UNL     1     -10.233  71.569 117.260  1.00  0.00     0.030 A 
HETATM    3  C11 UNL     1     -10.212  70.532 116.319  1.00  0.00     0.019 A 
HETATM    4  C12 UNL     1      -9.013  70.160 115.781  1.00  0.00     0.032 A 
HETATM    5  C19 UNL     1      -7.854  70.812 116.176  1.00  0.00     0.019 A 
HETATM    6  C20 UNL     1      -7.857  71.844 117.108  1.00  0.00     0.030 A 
ENDROOT
BRANCH   1   7
HETATM    7  N6  UNL     1      -9.177  73.252 118.599  1.00  0.00    -0.388 N 
ATOM      8  H6  UNL     1      -8.457  73.338 119.317  1.00  0.00     0.159 HD
BRANCH   7   9
HETATM    9  C8  UNL     1     -10.273  74.194 118.584  1.00  0.00     0.146 C 
BRANCH   9  10
HETATM   10  C7  UNL     1     -10.763  74.404 120.006  1.00  0.00     0.119 C 
HETATM   11  N1  UNL     1     -12.140  74.770 120.090  1.00  0.00    -0.370 N 
HETATM   12  C1  UNL     1     -13.118  73.971 119.369  1.00  0.00     0.150 C 
HETATM   13  C2  UNL     1     -12.603  75.864 120.834  1.00  0.00     0.143 A 
HETATM   14  C3  UNL     1     -11.725  76.852 121.219  1.00  0.00     0.136 A 
HETATM   15  C5  UNL     1     -13.930  76.005 121.211  1.00  0.00     0.278 A 
HETATM   16  N2  UNL     1     -12.110  77.932 121.938  1.00  0.00    -0.315 N 
HETATM   17  N5  UNL     1     -10.351  76.691 120.820  1.00  0.00    -0.372 N 
HETATM   18  C4  UNL     1     -13.400  78.056 122.297  1.00  0.00     0.196 A 
ATOM     19  H2  UNL     1     -11.430  78.644 122.204  1.00  0.00     0.170 HD
HETATM   20  N3  UNL     1     -13.862  79.163 123.048  1.00  0.00    -0.063 NA
HETATM   21  N4  UNL     1     -14.273  77.090 121.924  1.00  0.00    -0.295 N 
ATOM     22  H4  UNL     1     -15.249  77.193 122.201  1.00  0.00     0.171 HD
HETATM   23  C6  UNL     1      -9.828  75.361 120.667  1.00  0.00     0.148 C 
ATOM     24  H5  UNL     1      -9.761  77.505 120.648  1.00  0.00     0.161 HD
HETATM   25  O1  UNL     1     -14.760  75.136 120.886  1.00  0.00    -0.265 OA
ENDBRANCH   9  10
ENDBRANCH   7   9
ENDBRANCH   1   7
BRANCH   4  26
HETATM   26  C13 UNL     1      -8.933  69.094 114.807  1.00  0.00     0.252 C 
HETATM   27  O2  UNL     1      -8.915  69.320 113.561  1.00  0.00    -0.268 OA
HETATM   28  N7  UNL     1      -8.873  67.749 115.233  1.00  0.00    -0.342 N 
ATOM     29  H7  UNL     1      -8.884  67.521 116.227  1.00  0.00     0.163 HD
BRANCH  28  30
HETATM   30  C14 UNL     1      -8.793  66.679 114.225  1.00  0.00     0.186 C 
BRANCH  30  31
HETATM   31  C15 UNL     1      -7.870  65.653 114.786  1.00  0.00     0.046 C 
BRANCH  31  32
HETATM   32  C16 UNL     1      -7.129  64.894 113.721  1.00  0.00     0.116 C 
BRANCH  32  33
HETATM   33  C17 UNL     1      -5.708  65.312 113.748  1.00  0.00     0.172 C 
HETATM   34  O3  UNL     1      -5.322  66.279 113.071  1.00  0.00    -0.648 OA
HETATM   35  O4  UNL     1      -4.814  64.619 114.530  1.00  0.00    -0.648 OA
ENDBRANCH  32  33
ENDBRANCH  31  32
ENDBRANCH  30  31
BRANCH  30  36
HETATM   36  C18 UNL     1     -10.132  66.238 113.861  1.00  0.00     0.196 C 
HETATM   37  O5  UNL     1     -10.840  65.512 114.628  1.00  0.00    -0.646 OA
HETATM   38  O6  UNL     1     -10.693  66.599 112.656  1.00  0.00    -0.646 OA
ENDBRANCH  30  36
ENDBRANCH  28  30
ENDBRANCH   4  26
TORSDOF 9
ENDMDL
