MODEL 3
REMARK VINA RESULT: -6.759435530      0.851      3.161
REMARK  5 active torsions:
REMARK  status: ('A' for Active; 'I' for Inactive)
REMARK    1  A    between atoms: O1_1  and  C1_3 
REMARK    2  A    between atoms: C1_3  and  C2_4 
REMARK    3  A    between atoms: C1_3  and  P1_11 
REMARK    4  A    between atoms: C1_3  and  P2_15 
REMARK    5  A    between atoms: C2_4  and  N1_5 
ROOT
HETATM    1  C1  UNL     1      28.884  46.319   5.757  1.00  0.00     0.301 C 
ENDROOT
BRANCH   1   2
HETATM    2  O1  UNL     1      29.132  47.732   5.578  1.00  0.00    -0.364 OA
ATOM      3  H1  UNL     1      28.734  47.886   4.729  1.00  0.00     0.212 HD
ENDBRANCH   1   2
BRANCH   1   4
HETATM    4  C2  UNL     1      28.975  46.189   7.257  1.00  0.00     0.197 C 
BRANCH   4   5
HETATM    5  N1  UNL     1      28.924  47.367   8.031  1.00  0.00    -0.347 N 
HETATM    6  C3  UNL     1      29.891  48.134   8.523  1.00  0.00     0.108 A 
HETATM    7  C4  UNL     1      29.343  49.181   9.240  1.00  0.00     0.106 A 
HETATM    8  N2  UNL     1      28.015  49.048   9.182  1.00  0.00    -0.361 N 
HETATM    9  C5  UNL     1      27.760  47.957   8.456  1.00  0.00     0.182 A 
ATOM     10  H2  UNL     1      27.325  49.664   9.612  1.00  0.00     0.166 HD
ENDBRANCH   4   5
ENDBRANCH   1   4
BRANCH   1  11
HETATM   11  P1  UNL     1      27.312  45.833   5.230  1.00  0.00     0.311 P 
HETATM   12  O2  UNL     1      26.868  44.997   6.431  1.00  0.00    -0.637 OA
HETATM   13  O3  UNL     1      27.158  44.488   4.262  1.00  0.00    -0.637 OA
HETATM   14  O4  UNL     1      26.004  46.852   5.466  1.00  0.00    -0.637 OA
ENDBRANCH   1  11
BRANCH   1  15
HETATM   15  P2  UNL     1      30.189  45.578   4.837  1.00  0.00     0.311 P 
HETATM   16  O5  UNL     1      31.418  46.515   4.219  1.00  0.00    -0.637 OA
HETATM   17  O6  UNL     1      31.112  45.279   6.038  1.00  0.00    -0.637 OA
HETATM   18  O7  UNL     1      30.132  43.961   4.501  1.00  0.00    -0.637 OA
ENDBRANCH   1  15
TORSDOF 5
ENDMDL
