MODEL 2
REMARK VINA RESULT: -6.780732530      1.166      3.253
REMARK  5 active torsions:
REMARK  status: ('A' for Active; 'I' for Inactive)
REMARK    1  A    between atoms: O1_1  and  C1_3 
REMARK    2  A    between atoms: C1_3  and  C2_4 
REMARK    3  A    between atoms: C1_3  and  P1_11 
REMARK    4  A    between atoms: C1_3  and  P2_15 
REMARK    5  A    between atoms: C2_4  and  N1_5 
ROOT
HETATM    1  C1  UNL     1      28.515  46.218   6.341  1.00  0.00     0.301 C 
ENDROOT
BRANCH   1   2
HETATM    2  O1  UNL     1      28.699  47.588   5.917  1.00  0.00    -0.364 OA
ATOM      3  H1  UNL     1      29.568  47.551   5.534  1.00  0.00     0.212 HD
ENDBRANCH   1   2
BRANCH   1   4
HETATM    4  C2  UNL     1      29.023  46.274   7.759  1.00  0.00     0.197 C 
BRANCH   4   5
HETATM    5  N1  UNL     1      29.186  47.541   8.358  1.00  0.00    -0.347 N 
HETATM    6  C3  UNL     1      30.249  48.332   8.459  1.00  0.00     0.108 A 
HETATM    7  C4  UNL     1      29.918  49.479   9.158  1.00  0.00     0.106 A 
HETATM    8  N2  UNL     1      28.627  49.382   9.488  1.00  0.00    -0.361 N 
HETATM    9  C5  UNL     1      28.184  48.218   9.008  1.00  0.00     0.182 A 
ATOM     10  H2  UNL     1      28.082  50.070  10.008  1.00  0.00     0.166 HD
ENDBRANCH   4   5
ENDBRANCH   1   4
BRANCH   1  11
HETATM   11  P1  UNL     1      26.859  45.724   6.340  1.00  0.00     0.311 P 
HETATM   12  O2  UNL     1      26.246  46.827   5.476  1.00  0.00    -0.637 OA
HETATM   13  O3  UNL     1      25.871  46.185   7.596  1.00  0.00    -0.637 OA
HETATM   14  O4  UNL     1      26.334  44.579   5.236  1.00  0.00    -0.637 OA
ENDBRANCH   1  11
BRANCH   1  15
HETATM   15  P2  UNL     1      29.511  45.323   5.198  1.00  0.00     0.311 P 
HETATM   16  O5  UNL     1      30.543  46.131   4.171  1.00  0.00    -0.637 OA
HETATM   17  O6  UNL     1      30.719  45.111   6.137  1.00  0.00    -0.637 OA
HETATM   18  O7  UNL     1      29.339  43.684   5.078  1.00  0.00    -0.637 OA
ENDBRANCH   1  15
TORSDOF 5
ENDMDL
