MODEL 4
REMARK VINA RESULT: -6.707553771      1.358      2.178
REMARK  5 active torsions:
REMARK  status: ('A' for Active; 'I' for Inactive)
REMARK    1  A    between atoms: O1_1  and  C1_3 
REMARK    2  A    between atoms: C1_3  and  C2_4 
REMARK    3  A    between atoms: C1_3  and  P1_11 
REMARK    4  A    between atoms: C1_3  and  P2_15 
REMARK    5  A    between atoms: C2_4  and  N1_5 
ROOT
HETATM    1  C1  UNL     1      28.570  46.133   6.419  1.00  0.00     0.301 C 
ENDROOT
BRANCH   1   2
HETATM    2  O1  UNL     1      28.900  45.814   7.790  1.00  0.00    -0.364 OA
ATOM      3  H1  UNL     1      28.147  45.296   8.049  1.00  0.00     0.212 HD
ENDBRANCH   1   2
BRANCH   1   4
HETATM    4  C2  UNL     1      28.833  47.617   6.387  1.00  0.00     0.197 C 
BRANCH   4   5
HETATM    5  N1  UNL     1      29.002  48.290   7.615  1.00  0.00    -0.347 N 
HETATM    6  C3  UNL     1      30.087  48.787   8.200  1.00  0.00     0.108 A 
HETATM    7  C4  UNL     1      29.751  49.345   9.419  1.00  0.00     0.106 A 
HETATM    8  N2  UNL     1      28.435  49.184   9.579  1.00  0.00    -0.361 N 
HETATM    9  C5  UNL     1      27.981  48.550   8.495  1.00  0.00     0.182 A 
ATOM     10  H2  UNL     1      27.880  49.489  10.379  1.00  0.00     0.166 HD
ENDBRANCH   4   5
ENDBRANCH   1   4
BRANCH   1  11
HETATM   11  P1  UNL     1      29.591  45.340   5.272  1.00  0.00     0.311 P 
HETATM   12  O2  UNL     1      30.824  45.081   6.139  1.00  0.00    -0.637 OA
HETATM   13  O3  UNL     1      30.528  46.256   4.247  1.00  0.00    -0.637 OA
HETATM   14  O4  UNL     1      29.433  43.692   5.019  1.00  0.00    -0.637 OA
ENDBRANCH   1  11
BRANCH   1  15
HETATM   15  P2  UNL     1      26.882  45.645   6.305  1.00  0.00     0.311 P 
HETATM   16  O5  UNL     1      25.798  46.089   7.488  1.00  0.00    -0.637 OA
HETATM   17  O6  UNL     1      26.394  46.865   5.494  1.00  0.00    -0.637 OA
HETATM   18  O7  UNL     1      26.403  44.655   5.072  1.00  0.00    -0.637 OA
ENDBRANCH   1  15
TORSDOF 5
ENDMDL
