MODEL 19
REMARK VINA RESULT: -6.215310266      3.250      5.569
REMARK  5 active torsions:
REMARK  status: ('A' for Active; 'I' for Inactive)
REMARK    1  A    between atoms: O1_1  and  C1_3 
REMARK    2  A    between atoms: C1_3  and  C2_4 
REMARK    3  A    between atoms: C1_3  and  P1_11 
REMARK    4  A    between atoms: C1_3  and  P2_15 
REMARK    5  A    between atoms: C2_4  and  N1_5 
ROOT
HETATM    1  C1  UNL     1      28.854  45.256   5.268  1.00  0.00     0.301 C 
ENDROOT
BRANCH   1   2
HETATM    2  O1  UNL     1      29.260  44.022   5.902  1.00  0.00    -0.364 OA
ATOM      3  H1  UNL     1      30.144  44.235   6.178  1.00  0.00     0.212 HD
ENDBRANCH   1   2
BRANCH   1   4
HETATM    4  C2  UNL     1      28.714  44.820   3.831  1.00  0.00     0.197 C 
BRANCH   4   5
HETATM    5  N1  UNL     1      29.428  43.680   3.409  1.00  0.00    -0.347 N 
HETATM    6  C3  UNL     1      29.129  42.387   3.468  1.00  0.00     0.108 A 
HETATM    7  C4  UNL     1      30.163  41.638   2.938  1.00  0.00     0.106 A 
HETATM    8  N2  UNL     1      31.111  42.495   2.547  1.00  0.00    -0.361 N 
HETATM    9  C5  UNL     1      30.672  43.724   2.830  1.00  0.00     0.182 A 
ATOM     10  H2  UNL     1      32.003  42.255   2.115  1.00  0.00     0.166 HD
ENDBRANCH   4   5
ENDBRANCH   1   4
BRANCH   1  11
HETATM   11  P1  UNL     1      27.336  45.848   5.843  1.00  0.00     0.311 P 
HETATM   12  O2  UNL     1      26.435  44.661   5.504  1.00  0.00    -0.637 OA
HETATM   13  O3  UNL     1      26.409  46.810   4.852  1.00  0.00    -0.637 OA
HETATM   14  O4  UNL     1      26.937  45.679   7.461  1.00  0.00    -0.637 OA
ENDBRANCH   1  11
BRANCH   1  15
HETATM   15  P2  UNL     1      30.202  46.333   5.620  1.00  0.00     0.311 P 
HETATM   16  O5  UNL     1      30.435  46.910   7.164  1.00  0.00    -0.637 OA
HETATM   17  O6  UNL     1      31.233  45.231   5.949  1.00  0.00    -0.637 OA
HETATM   18  O7  UNL     1      31.173  46.850   4.388  1.00  0.00    -0.637 OA
ENDBRANCH   1  15
TORSDOF 5
ENDMDL
