MODEL 5
REMARK VINA RESULT: -6.637838450      1.219      1.636
REMARK  5 active torsions:
REMARK  status: ('A' for Active; 'I' for Inactive)
REMARK    1  A    between atoms: O1_1  and  C1_3 
REMARK    2  A    between atoms: C1_3  and  C2_4 
REMARK    3  A    between atoms: C1_3  and  P1_11 
REMARK    4  A    between atoms: C1_3  and  P2_15 
REMARK    5  A    between atoms: C2_4  and  N1_5 
ROOT
HETATM    1  C1  UNL     1      28.874  45.939   6.024  1.00  0.00     0.301 C 
ENDROOT
BRANCH   1   2
HETATM    2  O1  UNL     1      28.804  44.998   7.119  1.00  0.00    -0.364 OA
ATOM      3  H1  UNL     1      28.003  44.530   6.913  1.00  0.00     0.212 HD
ENDBRANCH   1   2
BRANCH   1   4
HETATM    4  C2  UNL     1      29.065  47.241   6.762  1.00  0.00     0.197 C 
BRANCH   4   5
HETATM    5  N1  UNL     1      28.755  47.277   8.137  1.00  0.00    -0.347 N 
HETATM    6  C3  UNL     1      29.499  47.030   9.210  1.00  0.00     0.108 A 
HETATM    7  C4  UNL     1      28.741  47.181  10.355  1.00  0.00     0.106 A 
HETATM    8  N2  UNL     1      27.509  47.529   9.971  1.00  0.00    -0.361 N 
HETATM    9  C5  UNL     1      27.515  47.587   8.637  1.00  0.00     0.182 A 
ATOM     10  H2  UNL     1      26.714  47.715  10.582  1.00  0.00     0.166 HD
ENDBRANCH   4   5
ENDBRANCH   1   4
BRANCH   1  11
HETATM   11  P1  UNL     1      30.222  45.665   4.978  1.00  0.00     0.311 P 
HETATM   12  O2  UNL     1      31.296  45.306   6.006  1.00  0.00    -0.637 OA
HETATM   13  O3  UNL     1      31.149  46.957   4.490  1.00  0.00    -0.637 OA
HETATM   14  O4  UNL     1      30.423  44.167   4.256  1.00  0.00    -0.637 OA
ENDBRANCH   1  11
BRANCH   1  15
HETATM   15  P2  UNL     1      27.318  45.723   5.229  1.00  0.00     0.311 P 
HETATM   16  O5  UNL     1      27.053  44.406   4.246  1.00  0.00    -0.637 OA
HETATM   17  O6  UNL     1      26.643  44.926   6.366  1.00  0.00    -0.637 OA
HETATM   18  O7  UNL     1      26.158  46.890   5.381  1.00  0.00    -0.637 OA
ENDBRANCH   1  15
TORSDOF 5
ENDMDL
