MODEL 1
REMARK VINA RESULT: -6.829989585      0.000      0.000
REMARK  5 active torsions:
REMARK  status: ('A' for Active; 'I' for Inactive)
REMARK    1  A    between atoms: O1_1  and  C1_3 
REMARK    2  A    between atoms: C1_3  and  C2_4 
REMARK    3  A    between atoms: C1_3  and  P1_11 
REMARK    4  A    between atoms: C1_3  and  P2_15 
REMARK    5  A    between atoms: C2_4  and  N1_5 
ROOT
HETATM    1  C1  UNL     1      29.066  45.441   6.161  1.00  0.00     0.301 C 
ENDROOT
BRANCH   1   2
HETATM    2  O1  UNL     1      29.392  44.033   6.165  1.00  0.00    -0.364 OA
ATOM      3  H1  UNL     1      28.689  43.676   5.635  1.00  0.00     0.212 HD
ENDBRANCH   1   2
BRANCH   1   4
HETATM    4  C2  UNL     1      28.853  45.702   7.631  1.00  0.00     0.197 C 
BRANCH   4   5
HETATM    5  N1  UNL     1      28.825  47.041   8.072  1.00  0.00    -0.347 N 
HETATM    6  C3  UNL     1      29.779  47.819   8.572  1.00  0.00     0.108 A 
HETATM    7  C4  UNL     1      29.261  49.064   8.878  1.00  0.00     0.106 A 
HETATM    8  N2  UNL     1      27.964  49.041   8.557  1.00  0.00    -0.361 N 
HETATM    9  C5  UNL     1      27.699  47.826   8.072  1.00  0.00     0.182 A 
ATOM     10  H2  UNL     1      27.301  49.810   8.663  1.00  0.00     0.166 HD
ENDBRANCH   4   5
ENDBRANCH   1   4
BRANCH   1  11
HETATM   11  P1  UNL     1      30.353  46.435   5.578  1.00  0.00     0.311 P 
HETATM   12  O2  UNL     1      30.422  45.967   4.124  1.00  0.00    -0.637 OA
HETATM   13  O3  UNL     1      31.926  45.938   5.792  1.00  0.00    -0.637 OA
HETATM   14  O4  UNL     1      30.029  47.992   5.053  1.00  0.00    -0.637 OA
ENDBRANCH   1  11
BRANCH   1  15
HETATM   15  P2  UNL     1      27.626  45.500   5.150  1.00  0.00     0.311 P 
HETATM   16  O5  UNL     1      27.240  44.218   4.161  1.00  0.00    -0.637 OA
HETATM   17  O6  UNL     1      26.650  44.906   6.189  1.00  0.00    -0.637 OA
HETATM   18  O7  UNL     1      26.716  46.879   5.110  1.00  0.00    -0.637 OA
ENDBRANCH   1  15
TORSDOF 5
ENDMDL
