MODEL 14
REMARK VINA RESULT: -6.355309448      3.694      5.876
REMARK  5 active torsions:
REMARK  status: ('A' for Active; 'I' for Inactive)
REMARK    1  A    between atoms: O1_1  and  C1_3 
REMARK    2  A    between atoms: C1_3  and  C2_4 
REMARK    3  A    between atoms: C1_3  and  P1_11 
REMARK    4  A    between atoms: C1_3  and  P2_15 
REMARK    5  A    between atoms: C2_4  and  N1_5 
ROOT
HETATM    1  C1  UNL     1      28.821  44.880   4.598  1.00  0.00     0.301 C 
ENDROOT
BRANCH   1   2
HETATM    2  O1  UNL     1      29.214  43.597   5.136  1.00  0.00    -0.364 OA
ATOM      3  H1  UNL     1      29.842  43.857   5.800  1.00  0.00     0.212 HD
ENDBRANCH   1   2
BRANCH   1   4
HETATM    4  C2  UNL     1      28.154  44.470   3.309  1.00  0.00     0.197 C 
BRANCH   4   5
HETATM    5  N1  UNL     1      28.313  43.139   2.871  1.00  0.00    -0.347 N 
HETATM    6  C3  UNL     1      29.349  42.517   2.318  1.00  0.00     0.108 A 
HETATM    7  C4  UNL     1      29.018  41.203   2.043  1.00  0.00     0.106 A 
HETATM    8  N2  UNL     1      27.754  41.023   2.438  1.00  0.00    -0.361 N 
HETATM    9  C5  UNL     1      27.327  42.186   2.936  1.00  0.00     0.182 A 
ATOM     10  H2  UNL     1      27.216  40.159   2.370  1.00  0.00     0.166 HD
ENDBRANCH   4   5
ENDBRANCH   1   4
BRANCH   1  11
HETATM   11  P1  UNL     1      27.686  45.717   5.596  1.00  0.00     0.311 P 
HETATM   12  O2  UNL     1      26.553  44.691   5.639  1.00  0.00    -0.637 OA
HETATM   13  O3  UNL     1      26.642  46.811   4.901  1.00  0.00    -0.637 OA
HETATM   14  O4  UNL     1      27.820  45.627   7.263  1.00  0.00    -0.637 OA
ENDBRANCH   1  11
BRANCH   1  15
HETATM   15  P2  UNL     1      30.360  45.719   4.437  1.00  0.00     0.311 P 
HETATM   16  O5  UNL     1      30.551  47.253   5.057  1.00  0.00    -0.637 OA
HETATM   17  O6  UNL     1      30.995  45.186   5.740  1.00  0.00    -0.637 OA
HETATM   18  O7  UNL     1      31.583  45.017   3.575  1.00  0.00    -0.637 OA
ENDBRANCH   1  15
TORSDOF 5
ENDMDL
