MODEL 16
REMARK VINA RESULT: -7.302260037      1.594      2.030
REMARK  5 active torsions:
REMARK  status: ('A' for Active; 'I' for Inactive)
REMARK    1  A    between atoms: O1_1  and  C1_3 
REMARK    2  A    between atoms: C1_3  and  C2_4 
REMARK    3  A    between atoms: C1_3  and  P1_15 
REMARK    4  A    between atoms: C1_3  and  P2_19 
REMARK    5  A    between atoms: C2_4  and  C3_5 
ROOT
HETATM    1  C1  UNL     1      29.283  45.289   5.429  1.00  0.00     0.290 C 
ENDROOT
BRANCH   1   2
HETATM    2  O1  UNL     1      29.623  44.241   6.366  1.00  0.00    -0.365 OA
ATOM      3  H1  UNL     1      30.210  44.739   6.923  1.00  0.00     0.212 HD
ENDBRANCH   1   2
BRANCH   1   4
HETATM    4  C2  UNL     1      30.301  46.325   5.879  1.00  0.00     0.127 C 
BRANCH   4   5
HETATM    5  C3  UNL     1      29.804  47.384   6.764  1.00  0.00     0.037 A 
HETATM    6  C4  UNL     1      29.556  48.704   6.396  1.00  0.00     0.115 A 
HETATM    7  N1  UNL     1      29.165  49.395   7.480  1.00  0.00    -0.350 N 
HETATM    8  C5  UNL     1      29.170  48.514   8.518  1.00  0.00     0.111 A 
ATOM      9  H1  UNL     1      28.915  50.383   7.519  1.00  0.00     0.166 HD
HETATM   10  C6  UNL     1      28.848  48.807   9.826  1.00  0.00     0.049 A 
HETATM   11  N2  UNL     1      29.557  47.303   8.083  1.00  0.00    -0.311 N 
HETATM   12  C7  UNL     1      28.920  47.811  10.777  1.00  0.00     0.005 A 
HETATM   13  C8  UNL     1      29.316  46.562  10.351  1.00  0.00     0.018 A 
HETATM   14  C9  UNL     1      29.627  46.320   9.029  1.00  0.00     0.099 A 
ENDBRANCH   4   5
ENDBRANCH   1   4
BRANCH   1  15
HETATM   15  P1  UNL     1      27.632  45.854   5.664  1.00  0.00     0.310 P 
HETATM   16  O2  UNL     1      26.992  44.584   5.060  1.00  0.00    -0.637 OA
HETATM   17  O3  UNL     1      26.898  45.291   7.133  1.00  0.00    -0.637 OA
HETATM   18  O4  UNL     1      26.875  46.866   4.714  1.00  0.00    -0.637 OA
ENDBRANCH   1  15
BRANCH   1  19
HETATM   19  P2  UNL     1      29.525  44.715   3.858  1.00  0.00     0.310 P 
HETATM   20  O5  UNL     1      29.494  44.241   2.403  1.00  0.00    -0.637 OA
HETATM   21  O6  UNL     1      29.818  43.219   4.424  1.00  0.00    -0.637 OA
HETATM   22  O7  UNL     1      30.817  45.712   3.608  1.00  0.00    -0.637 OA
ENDBRANCH   1  19
TORSDOF 5
ENDMDL
