MODEL 1
REMARK VINA RESULT: -7.900833901      0.000      0.000
REMARK  5 active torsions:
REMARK  status: ('A' for Active; 'I' for Inactive)
REMARK    1  A    between atoms: O1_1  and  C1_3 
REMARK    2  A    between atoms: C1_3  and  C2_4 
REMARK    3  A    between atoms: C1_3  and  P1_15 
REMARK    4  A    between atoms: C1_3  and  P2_19 
REMARK    5  A    between atoms: C2_4  and  C3_5 
ROOT
HETATM    1  C1  UNL     1      28.622  45.973   6.779  1.00  0.00     0.290 C 
ENDROOT
BRANCH   1   2
HETATM    2  O1  UNL     1      28.635  45.372   8.094  1.00  0.00    -0.365 OA
ATOM      3  H1  UNL     1      27.730  45.086   8.124  1.00  0.00     0.212 HD
ENDBRANCH   1   2
BRANCH   1   4
HETATM    4  C2  UNL     1      29.395  47.240   7.108  1.00  0.00     0.127 C 
BRANCH   4   5
HETATM    5  C3  UNL     1      29.166  47.816   8.438  1.00  0.00     0.037 A 
HETATM    6  C4  UNL     1      28.086  48.615   8.804  1.00  0.00     0.115 A 
HETATM    7  N1  UNL     1      28.242  49.002  10.081  1.00  0.00    -0.350 N 
HETATM    8  C5  UNL     1      29.410  48.452  10.509  1.00  0.00     0.111 A 
ATOM      9  H1  UNL     1      27.610  49.592  10.623  1.00  0.00     0.166 HD
HETATM   10  C6  UNL     1      29.965  48.607  11.762  1.00  0.00     0.049 A 
HETATM   11  N2  UNL     1      29.966  47.738   9.515  1.00  0.00    -0.311 N 
HETATM   12  C7  UNL     1      31.172  48.003  12.045  1.00  0.00     0.005 A 
HETATM   13  C8  UNL     1      31.758  47.268  11.037  1.00  0.00     0.018 A 
HETATM   14  C9  UNL     1      31.162  47.142   9.800  1.00  0.00     0.099 A 
ENDBRANCH   4   5
ENDBRANCH   1   4
BRANCH   1  15
HETATM   15  P1  UNL     1      26.981  46.332   6.250  1.00  0.00     0.310 P 
HETATM   16  O2  UNL     1      26.680  44.877   5.824  1.00  0.00    -0.637 OA
HETATM   17  O3  UNL     1      25.770  46.026   7.455  1.00  0.00    -0.637 OA
HETATM   18  O4  UNL     1      26.597  46.974   4.857  1.00  0.00    -0.637 OA
ENDBRANCH   1  15
BRANCH   1  19
HETATM   19  P2  UNL     1      29.410  44.939   5.700  1.00  0.00     0.310 P 
HETATM   20  O5  UNL     1      29.909  43.862   4.732  1.00  0.00    -0.637 OA
HETATM   21  O6  UNL     1      30.480  44.517   6.849  1.00  0.00    -0.637 OA
HETATM   22  O7  UNL     1      29.815  46.178   4.686  1.00  0.00    -0.637 OA
ENDBRANCH   1  19
TORSDOF 5
ENDMDL
