MODEL 13
REMARK VINA RESULT: -7.419749731      1.018      1.212
REMARK  5 active torsions:
REMARK  status: ('A' for Active; 'I' for Inactive)
REMARK    1  A    between atoms: O1_1  and  C1_3 
REMARK    2  A    between atoms: C1_3  and  C2_4 
REMARK    3  A    between atoms: C1_3  and  P1_15 
REMARK    4  A    between atoms: C1_3  and  P2_19 
REMARK    5  A    between atoms: C2_4  and  C3_5 
ROOT
HETATM    1  C1  UNL     1      28.818  46.091   6.408  1.00  0.00     0.290 C 
ENDROOT
BRANCH   1   2
HETATM    2  O1  UNL     1      28.964  45.287   7.601  1.00  0.00    -0.365 OA
ATOM      3  H1  UNL     1      29.330  45.952   8.171  1.00  0.00     0.212 HD
ENDBRANCH   1   2
BRANCH   1   4
HETATM    4  C2  UNL     1      28.858  47.463   7.060  1.00  0.00     0.127 C 
BRANCH   4   5
HETATM    5  C3  UNL     1      28.828  47.488   8.527  1.00  0.00     0.037 A 
HETATM    6  C4  UNL     1      27.682  47.522   9.318  1.00  0.00     0.115 A 
HETATM    7  N1  UNL     1      28.045  47.594  10.610  1.00  0.00    -0.350 N 
HETATM    8  C5  UNL     1      29.405  47.607  10.626  1.00  0.00     0.111 A 
ATOM      9  H1  UNL     1      27.424  47.633  11.418  1.00  0.00     0.166 HD
HETATM   10  C6  UNL     1      30.198  47.691  11.751  1.00  0.00     0.049 A 
HETATM   11  N2  UNL     1      29.874  47.544   9.368  1.00  0.00    -0.311 N 
HETATM   12  C7  UNL     1      31.570  47.714  11.609  1.00  0.00     0.005 A 
HETATM   13  C8  UNL     1      32.070  47.652  10.326  1.00  0.00     0.018 A 
HETATM   14  C9  UNL     1      31.234  47.569   9.232  1.00  0.00     0.099 A 
ENDBRANCH   4   5
ENDBRANCH   1   4
BRANCH   1  15
HETATM   15  P1  UNL     1      27.275  45.792   5.614  1.00  0.00     0.310 P 
HETATM   16  O2  UNL     1      26.570  45.332   6.909  1.00  0.00    -0.637 OA
HETATM   17  O3  UNL     1      26.164  47.123   5.711  1.00  0.00    -0.637 OA
HETATM   18  O4  UNL     1      26.917  44.495   4.783  1.00  0.00    -0.637 OA
ENDBRANCH   1  15
BRANCH   1  19
HETATM   19  P2  UNL     1      30.119  45.775   5.375  1.00  0.00     0.310 P 
HETATM   20  O5  UNL     1      31.121  45.380   4.288  1.00  0.00    -0.637 OA
HETATM   21  O6  UNL     1      30.746  44.726   6.448  1.00  0.00    -0.637 OA
HETATM   22  O7  UNL     1      30.643  47.340   5.429  1.00  0.00    -0.637 OA
ENDBRANCH   1  19
TORSDOF 5
ENDMDL
