MODEL 2
REMARK VINA RESULT: -7.851746071      1.479      2.912
REMARK  5 active torsions:
REMARK  status: ('A' for Active; 'I' for Inactive)
REMARK    1  A    between atoms: O1_1  and  C1_3 
REMARK    2  A    between atoms: C1_3  and  C2_4 
REMARK    3  A    between atoms: C1_3  and  P1_15 
REMARK    4  A    between atoms: C1_3  and  P2_19 
REMARK    5  A    between atoms: C2_4  and  C3_5 
ROOT
HETATM    1  C1  UNL     1      28.374  46.437   5.932  1.00  0.00     0.290 C 
ENDROOT
BRANCH   1   2
HETATM    2  O1  UNL     1      28.313  47.739   5.306  1.00  0.00    -0.365 OA
ATOM      3  H1  UNL     1      28.118  47.457   4.420  1.00  0.00     0.212 HD
ENDBRANCH   1   2
BRANCH   1   4
HETATM    4  C2  UNL     1      29.540  46.700   6.872  1.00  0.00     0.127 C 
BRANCH   4   5
HETATM    5  C3  UNL     1      29.215  47.346   8.148  1.00  0.00     0.037 A 
HETATM    6  C4  UNL     1      28.961  48.703   8.332  1.00  0.00     0.115 A 
HETATM    7  N1  UNL     1      28.758  48.936   9.640  1.00  0.00    -0.350 N 
HETATM    8  C5  UNL     1      28.885  47.736  10.268  1.00  0.00     0.111 A 
ATOM      9  H1  UNL     1      28.550  49.835  10.076  1.00  0.00     0.166 HD
HETATM   10  C6  UNL     1      28.770  47.519  11.625  1.00  0.00     0.049 A 
HETATM   11  N2  UNL     1      29.162  46.779   9.366  1.00  0.00    -0.311 N 
HETATM   12  C7  UNL     1      28.947  46.244  12.121  1.00  0.00     0.005 A 
HETATM   13  C8  UNL     1      29.233  45.249  11.211  1.00  0.00     0.018 A 
HETATM   14  C9  UNL     1      29.337  45.518   9.862  1.00  0.00     0.099 A 
ENDBRANCH   4   5
ENDBRANCH   1   4
BRANCH   1  15
HETATM   15  P1  UNL     1      28.752  45.176   4.763  1.00  0.00     0.310 P 
HETATM   16  O2  UNL     1      30.019  45.887   4.237  1.00  0.00    -0.637 OA
HETATM   17  O3  UNL     1      29.888  43.997   5.342  1.00  0.00    -0.637 OA
HETATM   18  O4  UNL     1      28.072  45.020   3.344  1.00  0.00    -0.637 OA
ENDBRANCH   1  15
BRANCH   1  19
HETATM   19  P2  UNL     1      26.905  46.139   6.714  1.00  0.00     0.310 P 
HETATM   20  O5  UNL     1      25.708  45.904   7.639  1.00  0.00    -0.637 OA
HETATM   21  O6  UNL     1      26.927  44.592   6.214  1.00  0.00    -0.637 OA
HETATM   22  O7  UNL     1      26.097  47.239   5.785  1.00  0.00    -0.637 OA
ENDBRANCH   1  19
TORSDOF 5
ENDMDL
