MODEL 9
REMARK VINA RESULT: -9.453666253      4.021      5.273
REMARK  7 active torsions:
REMARK  status: ('A' for Active; 'I' for Inactive)
REMARK    1  A    between atoms: O1_1  and  C1_3 
REMARK    2  A    between atoms: C1_3  and  C2_4 
REMARK    3  A    between atoms: C1_3  and  P1_23 
REMARK    4  A    between atoms: C1_3  and  P2_27 
REMARK    5  A    between atoms: C2_4  and  N1_5 
REMARK    6  A    between atoms: C6_9  and  C7_10 
REMARK    7  A    between atoms: C11_14  and  C12_15 
ROOT
HETATM    1  N1  UNL     1      29.500  47.723   8.616  1.00  0.00    -0.361 N 
HETATM    2  C3  UNL     1      28.647  48.122   9.575  1.00  0.00     0.090 A 
HETATM    3  C4  UNL     1      28.890  49.267  10.333  1.00  0.00     0.018 A 
HETATM    4  C5  UNL     1      30.022  50.015  10.102  1.00  0.00     0.015 A 
HETATM    5  C6  UNL     1      30.907  49.621   9.122  1.00  0.00    -0.010 A 
HETATM    6  C19 UNL     1      30.602  48.482   8.418  1.00  0.00     0.102 A 
ENDROOT
BRANCH   1   7
HETATM    7  C2  UNL     1      29.323  46.560   7.837  1.00  0.00     0.195 C 
BRANCH   7   8
HETATM    8  C1  UNL     1      29.138  46.744   6.337  1.00  0.00     0.301 C 
BRANCH   8   9
HETATM    9  O1  UNL     1      29.520  48.114   6.185  1.00  0.00    -0.364 OA
ATOM     10  H1  UNL     1      29.535  48.397   7.092  1.00  0.00     0.212 HD
ENDBRANCH   8   9
BRANCH   8  11
HETATM   11  P1  UNL     1      30.066  45.588   5.452  1.00  0.00     0.311 P 
HETATM   12  O2  UNL     1      30.106  45.650   3.805  1.00  0.00    -0.637 OA
HETATM   13  O3  UNL     1      31.426  46.275   5.637  1.00  0.00    -0.637 OA
HETATM   14  O4  UNL     1      30.798  44.248   6.190  1.00  0.00    -0.637 OA
ENDBRANCH   8  11
BRANCH   8  15
HETATM   15  P2  UNL     1      27.413  46.518   6.032  1.00  0.00     0.311 P 
HETATM   16  O5  UNL     1      27.058  45.200   5.072  1.00  0.00    -0.637 OA
HETATM   17  O6  UNL     1      26.983  45.641   7.240  1.00  0.00    -0.637 OA
HETATM   18  O7  UNL     1      27.369  47.367   4.741  1.00  0.00    -0.637 OA
ENDBRANCH   8  15
ENDBRANCH   7   8
ENDBRANCH   1   7
BRANCH   5  19
HETATM   19  C7  UNL     1      32.121  50.376   8.838  1.00  0.00    -0.024 A 
HETATM   20  C8  UNL     1      32.452  50.649   7.516  1.00  0.00     0.012 A 
HETATM   21  C9  UNL     1      33.598  51.360   7.279  1.00  0.00     0.002 A 
HETATM   22  C10 UNL     1      34.408  51.797   8.312  1.00  0.00     0.012 A 
HETATM   23  C11 UNL     1      34.092  51.533   9.630  1.00  0.00    -0.025 A 
HETATM   24  C18 UNL     1      32.930  50.814   9.866  1.00  0.00     0.024 A 
BRANCH  23  25
HETATM   25  C12 UNL     1      34.938  51.987  10.728  1.00  0.00    -0.026 A 
HETATM   26  C13 UNL     1      35.091  53.352  10.947  1.00  0.00     0.012 A 
HETATM   27  C14 UNL     1      35.881  53.827  11.974  1.00  0.00     0.001 A 
HETATM   28  C15 UNL     1      36.553  52.980  12.828  1.00  0.00     0.000 A 
HETATM   29  C16 UNL     1      36.410  51.626  12.622  1.00  0.00     0.001 A 
HETATM   30  C17 UNL     1      35.612  51.143  11.586  1.00  0.00     0.012 A 
ENDBRANCH  23  25
ENDBRANCH   5  19
TORSDOF 7
ENDMDL
