MODEL 5
REMARK VINA RESULT: -9.601959651      3.835      5.195
REMARK  7 active torsions:
REMARK  status: ('A' for Active; 'I' for Inactive)
REMARK    1  A    between atoms: O1_1  and  C1_3 
REMARK    2  A    between atoms: C1_3  and  C2_4 
REMARK    3  A    between atoms: C1_3  and  P1_23 
REMARK    4  A    between atoms: C1_3  and  P2_27 
REMARK    5  A    between atoms: C2_4  and  N1_5 
REMARK    6  A    between atoms: C6_9  and  C7_10 
REMARK    7  A    between atoms: C11_14  and  C12_15 
ROOT
HETATM    1  N1  UNL     1      29.700  48.067   8.373  1.00  0.00    -0.361 N 
HETATM    2  C3  UNL     1      28.884  48.435   9.376  1.00  0.00     0.090 A 
HETATM    3  C4  UNL     1      29.187  49.521  10.198  1.00  0.00     0.018 A 
HETATM    4  C5  UNL     1      30.341  50.240   9.987  1.00  0.00     0.015 A 
HETATM    5  C6  UNL     1      31.189  49.877   8.962  1.00  0.00    -0.010 A 
HETATM    6  C19 UNL     1      30.825  48.798   8.196  1.00  0.00     0.102 A 
ENDROOT
BRANCH   1   7
HETATM    7  C2  UNL     1      29.463  46.964   7.527  1.00  0.00     0.195 C 
BRANCH   7   8
HETATM    8  C1  UNL     1      29.221  47.252   6.052  1.00  0.00     0.301 C 
BRANCH   8   9
HETATM    9  O1  UNL     1      28.991  48.663   6.088  1.00  0.00    -0.364 OA
ATOM     10  H1  UNL     1      28.612  48.760   6.954  1.00  0.00     0.212 HD
ENDBRANCH   8   9
BRANCH   8  11
HETATM   11  P1  UNL     1      30.553  46.719   5.091  1.00  0.00     0.311 P 
HETATM   12  O2  UNL     1      31.904  47.655   4.963  1.00  0.00    -0.637 OA
HETATM   13  O3  UNL     1      31.156  45.770   6.136  1.00  0.00    -0.637 OA
HETATM   14  O4  UNL     1      30.470  45.348   4.096  1.00  0.00    -0.637 OA
ENDBRANCH   8  11
BRANCH   8  15
HETATM   15  P2  UNL     1      27.754  46.369   5.621  1.00  0.00     0.311 P 
HETATM   16  O5  UNL     1      26.352  47.036   6.234  1.00  0.00    -0.637 OA
HETATM   17  O6  UNL     1      27.367  47.026   4.267  1.00  0.00    -0.637 OA
HETATM   18  O7  UNL     1      27.757  45.443   6.859  1.00  0.00    -0.637 OA
ENDBRANCH   8  15
ENDBRANCH   7   8
ENDBRANCH   1   7
BRANCH   5  19
HETATM   19  C7  UNL     1      32.423  50.605   8.697  1.00  0.00    -0.024 A 
HETATM   20  C8  UNL     1      32.819  50.804   7.379  1.00  0.00     0.012 A 
HETATM   21  C9  UNL     1      33.984  51.490   7.160  1.00  0.00     0.002 A 
HETATM   22  C10 UNL     1      34.749  51.973   8.205  1.00  0.00     0.012 A 
HETATM   23  C11 UNL     1      34.370  51.783   9.519  1.00  0.00    -0.025 A 
HETATM   24  C18 UNL     1      33.190  51.088   9.737  1.00  0.00     0.024 A 
BRANCH  23  25
HETATM   25  C12 UNL     1      35.169  52.286  10.630  1.00  0.00    -0.026 A 
HETATM   26  C13 UNL     1      35.679  51.388  11.562  1.00  0.00     0.012 A 
HETATM   27  C14 UNL     1      36.439  51.820  12.629  1.00  0.00     0.001 A 
HETATM   28  C15 UNL     1      36.730  53.152  12.825  1.00  0.00     0.000 A 
HETATM   29  C16 UNL     1      36.231  54.052  11.909  1.00  0.00     0.001 A 
HETATM   30  C17 UNL     1      35.462  53.619  10.830  1.00  0.00     0.012 A 
ENDBRANCH  23  25
ENDBRANCH   5  19
TORSDOF 7
ENDMDL
