MODEL 8
REMARK VINA RESULT: -9.474284262      1.047      2.478
REMARK  7 active torsions:
REMARK  status: ('A' for Active; 'I' for Inactive)
REMARK    1  A    between atoms: O1_1  and  C1_3 
REMARK    2  A    between atoms: C1_3  and  C2_4 
REMARK    3  A    between atoms: C1_3  and  P1_23 
REMARK    4  A    between atoms: C1_3  and  P2_27 
REMARK    5  A    between atoms: C2_4  and  N1_5 
REMARK    6  A    between atoms: C6_9  and  C7_10 
REMARK    7  A    between atoms: C11_14  and  C12_15 
ROOT
HETATM    1  N1  UNL     1      32.904  47.216   5.574  1.00  0.00    -0.361 N 
HETATM    2  C3  UNL     1      32.077  46.160   5.647  1.00  0.00     0.090 A 
HETATM    3  C4  UNL     1      31.132  46.046   6.668  1.00  0.00     0.018 A 
HETATM    4  C5  UNL     1      31.033  47.031   7.623  1.00  0.00     0.015 A 
HETATM    5  C6  UNL     1      31.873  48.123   7.562  1.00  0.00    -0.010 A 
HETATM    6  C19 UNL     1      32.777  48.165   6.530  1.00  0.00     0.102 A 
ENDROOT
BRANCH   1   7
HETATM    7  C2  UNL     1      33.896  47.374   4.584  1.00  0.00     0.195 C 
BRANCH   7   8
HETATM    8  C1  UNL     1      35.161  46.538   4.720  1.00  0.00     0.301 C 
BRANCH   8   9
HETATM    9  O1  UNL     1      34.843  45.757   5.876  1.00  0.00    -0.364 OA
ATOM     10  H1  UNL     1      35.685  45.738   6.315  1.00  0.00     0.212 HD
ENDBRANCH   8   9
BRANCH   8  11
HETATM   11  P1  UNL     1      35.482  45.660   3.268  1.00  0.00     0.311 P 
HETATM   12  O2  UNL     1      35.256  44.027   3.226  1.00  0.00    -0.637 OA
HETATM   13  O3  UNL     1      34.158  45.989   2.566  1.00  0.00    -0.637 OA
HETATM   14  O4  UNL     1      36.217  46.370   1.916  1.00  0.00    -0.637 OA
ENDBRANCH   8  11
BRANCH   8  15
HETATM   15  P2  UNL     1      36.464  47.682   5.054  1.00  0.00     0.311 P 
HETATM   16  O5  UNL     1      36.466  48.278   6.612  1.00  0.00    -0.637 OA
HETATM   17  O6  UNL     1      37.613  46.741   5.508  1.00  0.00    -0.637 OA
HETATM   18  O7  UNL     1      35.668  48.947   4.658  1.00  0.00    -0.637 OA
ENDBRANCH   8  15
ENDBRANCH   7   8
ENDBRANCH   1   7
BRANCH   5  19
HETATM   19  C7  UNL     1      31.809  49.193   8.550  1.00  0.00    -0.024 A 
HETATM   20  C8  UNL     1      30.637  49.374   9.273  1.00  0.00     0.012 A 
HETATM   21  C9  UNL     1      30.605  50.388  10.194  1.00  0.00     0.002 A 
HETATM   22  C10 UNL     1      31.696  51.210  10.405  1.00  0.00     0.012 A 
HETATM   23  C11 UNL     1      32.868  51.043   9.693  1.00  0.00    -0.025 A 
HETATM   24  C18 UNL     1      32.896  50.015   8.763  1.00  0.00     0.024 A 
BRANCH  23  25
HETATM   25  C12 UNL     1      34.026  51.904   9.906  1.00  0.00    -0.026 A 
HETATM   26  C13 UNL     1      34.097  52.672  11.063  1.00  0.00     0.012 A 
HETATM   27  C14 UNL     1      35.173  53.500  11.306  1.00  0.00     0.001 A 
HETATM   28  C15 UNL     1      36.223  53.610  10.421  1.00  0.00     0.000 A 
HETATM   29  C16 UNL     1      36.165  52.854   9.270  1.00  0.00     0.001 A 
HETATM   30  C17 UNL     1      35.079  52.016   9.022  1.00  0.00     0.012 A 
ENDBRANCH  23  25
ENDBRANCH   5  19
TORSDOF 7
ENDMDL
