MODEL 10
REMARK VINA RESULT: -9.447233538      4.365      5.503
REMARK  7 active torsions:
REMARK  status: ('A' for Active; 'I' for Inactive)
REMARK    1  A    between atoms: O1_1  and  C1_3 
REMARK    2  A    between atoms: C1_3  and  C2_4 
REMARK    3  A    between atoms: C1_3  and  P1_23 
REMARK    4  A    between atoms: C1_3  and  P2_27 
REMARK    5  A    between atoms: C2_4  and  N1_5 
REMARK    6  A    between atoms: C6_9  and  C7_10 
REMARK    7  A    between atoms: C11_14  and  C12_15 
ROOT
HETATM    1  N1  UNL     1      30.139  46.492   8.605  1.00  0.00    -0.361 N 
HETATM    2  C3  UNL     1      29.631  46.372   9.843  1.00  0.00     0.090 A 
HETATM    3  C4  UNL     1      29.942  47.289  10.848  1.00  0.00     0.018 A 
HETATM    4  C5  UNL     1      30.784  48.343  10.578  1.00  0.00     0.015 A 
HETATM    5  C6  UNL     1      31.314  48.482   9.312  1.00  0.00    -0.010 A 
HETATM    6  C19 UNL     1      30.963  47.541   8.376  1.00  0.00     0.102 A 
ENDROOT
BRANCH   1   7
HETATM    7  C2  UNL     1      29.884  45.584   7.556  1.00  0.00     0.195 C 
BRANCH   7   8
HETATM    8  C1  UNL     1      28.630  45.811   6.723  1.00  0.00     0.301 C 
BRANCH   8   9
HETATM    9  O1  UNL     1      27.687  45.001   7.431  1.00  0.00    -0.364 OA
ATOM     10  H1  UNL     1      26.930  45.575   7.440  1.00  0.00     0.212 HD
ENDBRANCH   8   9
BRANCH   8  11
HETATM   11  P1  UNL     1      28.259  47.493   6.609  1.00  0.00     0.311 P 
HETATM   12  O2  UNL     1      28.731  48.353   5.283  1.00  0.00    -0.637 OA
HETATM   13  O3  UNL     1      26.808  47.322   6.137  1.00  0.00    -0.637 OA
HETATM   14  O4  UNL     1      27.591  48.371   7.897  1.00  0.00    -0.637 OA
ENDBRANCH   8  11
BRANCH   8  15
HETATM   15  P2  UNL     1      28.983  45.144   5.126  1.00  0.00     0.311 P 
HETATM   16  O5  UNL     1      29.759  43.667   5.160  1.00  0.00    -0.637 OA
HETATM   17  O6  UNL     1      27.683  44.353   4.811  1.00  0.00    -0.637 OA
HETATM   18  O7  UNL     1      30.384  45.784   4.994  1.00  0.00    -0.637 OA
ENDBRANCH   8  15
ENDBRANCH   7   8
ENDBRANCH   1   7
BRANCH   5  19
HETATM   19  C7  UNL     1      32.211  49.579   8.975  1.00  0.00    -0.024 A 
HETATM   20  C8  UNL     1      32.249  50.040   7.664  1.00  0.00     0.012 A 
HETATM   21  C9  UNL     1      33.102  51.071   7.375  1.00  0.00     0.002 A 
HETATM   22  C10 UNL     1      33.904  51.644   8.345  1.00  0.00     0.012 A 
HETATM   23  C11 UNL     1      33.877  51.197   9.652  1.00  0.00    -0.025 A 
HETATM   24  C18 UNL     1      33.012  50.152   9.940  1.00  0.00     0.024 A 
BRANCH  23  25
HETATM   25  C12 UNL     1      34.718  51.791  10.685  1.00  0.00    -0.026 A 
HETATM   26  C13 UNL     1      35.455  50.960  11.522  1.00  0.00     0.012 A 
HETATM   27  C14 UNL     1      36.263  51.479  12.512  1.00  0.00     0.001 A 
HETATM   28  C15 UNL     1      36.381  52.835  12.721  1.00  0.00     0.000 A 
HETATM   29  C16 UNL     1      35.656  53.670  11.898  1.00  0.00     0.001 A 
HETATM   30  C17 UNL     1      34.839  53.149  10.897  1.00  0.00     0.012 A 
ENDBRANCH  23  25
ENDBRANCH   5  19
TORSDOF 7
ENDMDL
