MODEL 3
REMARK VINA RESULT: -9.843540455      2.720      5.477
REMARK  7 active torsions:
REMARK  status: ('A' for Active; 'I' for Inactive)
REMARK    1  A    between atoms: O1_1  and  C1_3 
REMARK    2  A    between atoms: C1_3  and  C2_4 
REMARK    3  A    between atoms: C1_3  and  P1_23 
REMARK    4  A    between atoms: C1_3  and  P2_27 
REMARK    5  A    between atoms: C2_4  and  N1_5 
REMARK    6  A    between atoms: C6_9  and  C7_10 
REMARK    7  A    between atoms: C11_14  and  C12_15 
ROOT
HETATM    1  N1  UNL     1      37.608  52.358   5.634  1.00  0.00    -0.361 N 
HETATM    2  C3  UNL     1      38.584  53.282   5.650  1.00  0.00     0.090 A 
HETATM    3  C4  UNL     1      38.760  54.132   6.742  1.00  0.00     0.018 A 
HETATM    4  C5  UNL     1      37.926  54.031   7.832  1.00  0.00     0.015 A 
HETATM    5  C6  UNL     1      36.921  53.088   7.832  1.00  0.00    -0.010 A 
HETATM    6  C19 UNL     1      36.808  52.288   6.722  1.00  0.00     0.102 A 
ENDROOT
BRANCH   1   7
HETATM    7  C2  UNL     1      37.363  51.490   4.549  1.00  0.00     0.195 C 
BRANCH   7   8
HETATM    8  C1  UNL     1      38.184  50.210   4.478  1.00  0.00     0.301 C 
BRANCH   8   9
HETATM    9  O1  UNL     1      39.209  50.494   5.434  1.00  0.00    -0.364 OA
ATOM     10  H1  UNL     1      39.833  49.806   5.236  1.00  0.00     0.212 HD
ENDBRANCH   8   9
BRANCH   8  11
HETATM   11  P1  UNL     1      37.201  48.826   4.797  1.00  0.00     0.311 P 
HETATM   12  O2  UNL     1      36.618  47.923   3.546  1.00  0.00    -0.637 OA
HETATM   13  O3  UNL     1      38.352  47.864   5.121  1.00  0.00    -0.637 OA
HETATM   14  O4  UNL     1      36.632  48.449   6.349  1.00  0.00    -0.637 OA
ENDBRANCH   8  11
BRANCH   8  15
HETATM   15  P2  UNL     1      38.833  50.143   2.837  1.00  0.00     0.311 P 
HETATM   16  O5  UNL     1      39.690  51.503   2.387  1.00  0.00    -0.637 OA
HETATM   17  O6  UNL     1      40.210  49.459   3.061  1.00  0.00    -0.637 OA
HETATM   18  O7  UNL     1      37.606  50.791   2.155  1.00  0.00    -0.637 OA
ENDBRANCH   8  15
ENDBRANCH   7   8
ENDBRANCH   1   7
BRANCH   5  19
HETATM   19  C7  UNL     1      36.010  52.941   8.960  1.00  0.00    -0.024 A 
HETATM   20  C8  UNL     1      36.357  53.501  10.184  1.00  0.00     0.012 A 
HETATM   21  C9  UNL     1      35.483  53.346  11.227  1.00  0.00     0.002 A 
HETATM   22  C10 UNL     1      34.293  52.657  11.081  1.00  0.00     0.012 A 
HETATM   23  C11 UNL     1      33.935  52.094   9.871  1.00  0.00    -0.025 A 
HETATM   24  C18 UNL     1      34.823  52.254   8.818  1.00  0.00     0.024 A 
BRANCH  23  25
HETATM   25  C12 UNL     1      32.684  51.364   9.703  1.00  0.00    -0.026 A 
HETATM   26  C13 UNL     1      32.330  50.905   8.439  1.00  0.00     0.012 A 
HETATM   27  C14 UNL     1      31.156  50.211   8.234  1.00  0.00     0.001 A 
HETATM   28  C15 UNL     1      30.280  49.939   9.263  1.00  0.00     0.000 A 
HETATM   29  C16 UNL     1      30.619  50.389  10.520  1.00  0.00     0.001 A 
HETATM   30  C17 UNL     1      31.805  51.090  10.730  1.00  0.00     0.012 A 
ENDBRANCH  23  25
ENDBRANCH   5  19
TORSDOF 7
ENDMDL
