MODEL 2
REMARK VINA RESULT: -9.913563699      4.505      5.980
REMARK  7 active torsions:
REMARK  status: ('A' for Active; 'I' for Inactive)
REMARK    1  A    between atoms: O1_1  and  C1_3 
REMARK    2  A    between atoms: C1_3  and  C2_4 
REMARK    3  A    between atoms: C1_3  and  P1_23 
REMARK    4  A    between atoms: C1_3  and  P2_27 
REMARK    5  A    between atoms: C2_4  and  N1_5 
REMARK    6  A    between atoms: C6_9  and  C7_10 
REMARK    7  A    between atoms: C11_14  and  C12_15 
ROOT
HETATM    1  N1  UNL     1      28.778  48.388   8.897  1.00  0.00    -0.361 N 
HETATM    2  C3  UNL     1      28.496  48.189  10.195  1.00  0.00     0.090 A 
HETATM    3  C4  UNL     1      29.320  48.692  11.203  1.00  0.00     0.018 A 
HETATM    4  C5  UNL     1      30.446  49.411  10.873  1.00  0.00     0.015 A 
HETATM    5  C6  UNL     1      30.749  49.626   9.546  1.00  0.00    -0.010 A 
HETATM    6  C19 UNL     1      29.893  49.100   8.611  1.00  0.00     0.102 A 
ENDROOT
BRANCH   1   7
HETATM    7  C2  UNL     1      28.000  47.883   7.834  1.00  0.00     0.195 C 
BRANCH   7   8
HETATM    8  C1  UNL     1      28.187  46.418   7.465  1.00  0.00     0.301 C 
BRANCH   8   9
HETATM    9  O1  UNL     1      27.486  45.779   8.535  1.00  0.00    -0.364 OA
ATOM     10  H1  UNL     1      27.861  46.225   9.285  1.00  0.00     0.212 HD
ENDBRANCH   8   9
BRANCH   8  11
HETATM   11  P1  UNL     1      27.601  46.102   5.871  1.00  0.00     0.311 P 
HETATM   12  O2  UNL     1      27.547  44.554   5.305  1.00  0.00    -0.637 OA
HETATM   13  O3  UNL     1      26.108  46.163   6.217  1.00  0.00    -0.637 OA
HETATM   14  O4  UNL     1      27.254  47.339   4.764  1.00  0.00    -0.637 OA
ENDBRANCH   8  11
BRANCH   8  15
HETATM   15  P2  UNL     1      29.924  46.114   7.558  1.00  0.00     0.311 P 
HETATM   16  O5  UNL     1      30.407  44.693   6.829  1.00  0.00    -0.637 OA
HETATM   17  O6  UNL     1      30.448  46.839   6.288  1.00  0.00    -0.637 OA
HETATM   18  O7  UNL     1      29.874  45.320   8.884  1.00  0.00    -0.637 OA
ENDBRANCH   8  15
ENDBRANCH   7   8
ENDBRANCH   1   7
BRANCH   5  19
HETATM   19  C7  UNL     1      31.930  50.379   9.143  1.00  0.00    -0.024 A 
HETATM   20  C8  UNL     1      32.158  50.603   7.790  1.00  0.00     0.012 A 
HETATM   21  C9  UNL     1      33.276  51.313   7.441  1.00  0.00     0.002 A 
HETATM   22  C10 UNL     1      34.156  51.796   8.392  1.00  0.00     0.012 A 
HETATM   23  C11 UNL     1      33.943  51.581   9.740  1.00  0.00    -0.025 A 
HETATM   24  C18 UNL     1      32.810  50.862  10.089  1.00  0.00     0.024 A 
BRANCH  23  25
HETATM   25  C12 UNL     1      34.863  52.084  10.753  1.00  0.00    -0.026 A 
HETATM   26  C13 UNL     1      35.588  51.179  11.520  1.00  0.00     0.012 A 
HETATM   27  C14 UNL     1      36.470  51.609  12.490  1.00  0.00     0.001 A 
HETATM   28  C15 UNL     1      36.676  52.948  12.745  1.00  0.00     0.000 A 
HETATM   29  C16 UNL     1      35.964  53.855  11.991  1.00  0.00     0.001 A 
HETATM   30  C17 UNL     1      35.073  53.422  11.011  1.00  0.00     0.012 A 
ENDBRANCH  23  25
ENDBRANCH   5  19
TORSDOF 7
ENDMDL
