MODEL 12
REMARK VINA RESULT: -9.409944730      4.299      5.724
REMARK  7 active torsions:
REMARK  status: ('A' for Active; 'I' for Inactive)
REMARK    1  A    between atoms: O1_1  and  C1_3 
REMARK    2  A    between atoms: C1_3  and  C2_4 
REMARK    3  A    between atoms: C1_3  and  P1_23 
REMARK    4  A    between atoms: C1_3  and  P2_27 
REMARK    5  A    between atoms: C2_4  and  N1_5 
REMARK    6  A    between atoms: C6_9  and  C7_10 
REMARK    7  A    between atoms: C11_14  and  C12_15 
ROOT
HETATM    1  N1  UNL     1      29.267  48.888   8.047  1.00  0.00    -0.361 N 
HETATM    2  C3  UNL     1      28.666  48.986   9.244  1.00  0.00     0.090 A 
HETATM    3  C4  UNL     1      29.259  49.679  10.300  1.00  0.00     0.018 A 
HETATM    4  C5  UNL     1      30.483  50.281  10.124  1.00  0.00     0.015 A 
HETATM    5  C6  UNL     1      31.114  50.191   8.901  1.00  0.00    -0.010 A 
HETATM    6  C19 UNL     1      30.470  49.492   7.910  1.00  0.00     0.102 A 
ENDROOT
BRANCH   1   7
HETATM    7  C2  UNL     1      28.731  48.179   6.951  1.00  0.00     0.195 C 
BRANCH   7   8
HETATM    8  C1  UNL     1      28.707  46.660   7.044  1.00  0.00     0.301 C 
BRANCH   8   9
HETATM    9  O1  UNL     1      29.042  46.469   8.421  1.00  0.00    -0.364 OA
ATOM     10  H1  UNL     1      29.895  46.059   8.342  1.00  0.00     0.212 HD
ENDBRANCH   8   9
BRANCH   8  11
HETATM   11  P1  UNL     1      27.182  46.033   6.534  1.00  0.00     0.311 P 
HETATM   12  O2  UNL     1      25.916  45.985   7.589  1.00  0.00    -0.637 OA
HETATM   13  O3  UNL     1      26.700  47.301   5.817  1.00  0.00    -0.637 OA
HETATM   14  O4  UNL     1      26.964  45.268   5.036  1.00  0.00    -0.637 OA
ENDBRANCH   8  11
BRANCH   8  15
HETATM   15  P2  UNL     1      29.998  46.090   5.982  1.00  0.00     0.311 P 
HETATM   16  O5  UNL     1      31.531  46.528   6.476  1.00  0.00    -0.637 OA
HETATM   17  O6  UNL     1      30.306  44.686   6.571  1.00  0.00    -0.637 OA
HETATM   18  O7  UNL     1      30.022  47.343   5.076  1.00  0.00    -0.637 OA
ENDBRANCH   8  15
ENDBRANCH   7   8
ENDBRANCH   1   7
BRANCH   5  19
HETATM   19  C7  UNL     1      32.412  50.810   8.662  1.00  0.00    -0.024 A 
HETATM   20  C8  UNL     1      32.872  50.928   7.356  1.00  0.00     0.012 A 
HETATM   21  C9  UNL     1      34.095  51.512   7.161  1.00  0.00     0.002 A 
HETATM   22  C10 UNL     1      34.857  51.972   8.220  1.00  0.00     0.012 A 
HETATM   23  C11 UNL     1      34.413  51.861   9.523  1.00  0.00    -0.025 A 
HETATM   24  C18 UNL     1      33.174  51.270   9.716  1.00  0.00     0.024 A 
BRANCH  23  25
HETATM   25  C12 UNL     1      35.206  52.342  10.648  1.00  0.00    -0.026 A 
HETATM   26  C13 UNL     1      35.634  51.436  11.613  1.00  0.00     0.012 A 
HETATM   27  C14 UNL     1      36.386  51.846  12.694  1.00  0.00     0.001 A 
HETATM   28  C15 UNL     1      36.749  53.163  12.873  1.00  0.00     0.000 A 
HETATM   29  C16 UNL     1      36.331  54.071  11.924  1.00  0.00     0.001 A 
HETATM   30  C17 UNL     1      35.572  53.659  10.830  1.00  0.00     0.012 A 
ENDBRANCH  23  25
ENDBRANCH   5  19
TORSDOF 7
ENDMDL
