MODEL 1
REMARK VINA RESULT: -10.095901847      0.000      0.000
REMARK  7 active torsions:
REMARK  status: ('A' for Active; 'I' for Inactive)
REMARK    1  A    between atoms: O1_1  and  C1_3 
REMARK    2  A    between atoms: C1_3  and  C2_4 
REMARK    3  A    between atoms: C1_3  and  P1_23 
REMARK    4  A    between atoms: C1_3  and  P2_27 
REMARK    5  A    between atoms: C2_4  and  N1_5 
REMARK    6  A    between atoms: C6_9  and  C7_10 
REMARK    7  A    between atoms: C11_14  and  C12_15 
ROOT
HETATM    1  N1  UNL     1      33.095  47.192   5.989  1.00  0.00    -0.361 N 
HETATM    2  C3  UNL     1      31.976  46.946   5.288  1.00  0.00     0.090 A 
HETATM    3  C4  UNL     1      30.769  47.571   5.604  1.00  0.00     0.018 A 
HETATM    4  C5  UNL     1      30.710  48.460   6.651  1.00  0.00     0.015 A 
HETATM    5  C6  UNL     1      31.850  48.725   7.381  1.00  0.00    -0.010 A 
HETATM    6  C19 UNL     1      33.000  48.073   7.012  1.00  0.00     0.102 A 
ENDROOT
BRANCH   1   7
HETATM    7  C2  UNL     1      34.337  46.573   5.736  1.00  0.00     0.195 C 
BRANCH   7   8
HETATM    8  C1  UNL     1      35.354  47.353   4.915  1.00  0.00     0.301 C 
BRANCH   8   9
HETATM    9  O1  UNL     1      34.735  48.641   4.873  1.00  0.00    -0.364 OA
ATOM     10  H1  UNL     1      34.995  48.937   4.009  1.00  0.00     0.212 HD
ENDBRANCH   8   9
BRANCH   8  11
HETATM   11  P1  UNL     1      36.921  47.279   5.637  1.00  0.00     0.311 P 
HETATM   12  O2  UNL     1      38.196  48.037   4.917  1.00  0.00    -0.637 OA
HETATM   13  O3  UNL     1      36.688  48.384   6.676  1.00  0.00    -0.637 OA
HETATM   14  O4  UNL     1      37.266  46.289   6.969  1.00  0.00    -0.637 OA
ENDBRANCH   8  11
BRANCH   8  15
HETATM   15  P2  UNL     1      35.371  46.594   3.320  1.00  0.00     0.311 P 
HETATM   16  O5  UNL     1      36.437  47.294   2.243  1.00  0.00    -0.637 OA
HETATM   17  O6  UNL     1      36.433  45.475   3.505  1.00  0.00    -0.637 OA
HETATM   18  O7  UNL     1      34.281  47.500   2.702  1.00  0.00    -0.637 OA
ENDBRANCH   8  15
ENDBRANCH   7   8
ENDBRANCH   1   7
BRANCH   5  19
HETATM   19  C7  UNL     1      31.841  49.658   8.500  1.00  0.00    -0.024 A 
HETATM   20  C8  UNL     1      30.703  49.752   9.292  1.00  0.00     0.012 A 
HETATM   21  C9  UNL     1      30.723  50.638  10.337  1.00  0.00     0.002 A 
HETATM   22  C10 UNL     1      31.832  51.419  10.604  1.00  0.00     0.012 A 
HETATM   23  C11 UNL     1      32.970  51.338   9.826  1.00  0.00    -0.025 A 
HETATM   24  C18 UNL     1      32.946  50.439   8.770  1.00  0.00     0.024 A 
BRANCH  23  25
HETATM   25  C12 UNL     1      34.146  52.157  10.097  1.00  0.00    -0.026 A 
HETATM   26  C13 UNL     1      35.180  52.189   9.167  1.00  0.00     0.012 A 
HETATM   27  C14 UNL     1      36.311  52.949   9.382  1.00  0.00     0.001 A 
HETATM   28  C15 UNL     1      36.473  53.709  10.520  1.00  0.00     0.000 A 
HETATM   29  C16 UNL     1      35.456  53.686  11.449  1.00  0.00     0.001 A 
HETATM   30  C17 UNL     1      34.312  52.919  11.234  1.00  0.00     0.012 A 
ENDBRANCH  23  25
ENDBRANCH   5  19
TORSDOF 7
ENDMDL
