MODEL 1
REMARK VINA RESULT: -6.301342649      0.000      0.000
REMARK  1 active torsions:
REMARK  status: ('A' for Active; 'I' for Inactive)
REMARK    1  A    between atoms: O1_1  and  C1_3 
ROOT
HETATM    1  C1  UNL     1       2.487  10.668 -23.058  1.00  0.00     0.223 C 
HETATM    2  N1  UNL     1       3.599  11.046 -22.279  1.00  0.00    -0.307 N 
ATOM      3  H1  UNL     1       3.938  11.989 -22.466  1.00  0.00     0.171 HD
HETATM    4  C2  UNL     1       4.329  10.355 -21.287  1.00  0.00     0.125 A 
HETATM    5  C3  UNL     1       4.630  10.965 -20.063  1.00  0.00     0.136 A 
HETATM    6  N2  UNL     1       5.323  10.332 -19.123  1.00  0.00    -0.368 N 
ATOM      7  H2  UNL     1       5.535  10.789 -18.236  1.00  0.00     0.164 HD
HETATM    8  C4  UNL     1       5.738   9.081 -19.362  1.00  0.00     0.144 A 
HETATM    9  C5  UNL     1       5.474   8.423 -20.548  1.00  0.00     0.159 A 
HETATM   10  N3  UNL     1       4.778   9.103 -21.453  1.00  0.00    -0.321 N 
ATOM     11  H3  UNL     1       4.570   8.639 -22.338  1.00  0.00     0.169 HD
HETATM   12  O2  UNL     1       5.937   7.147 -20.706  1.00  0.00    -0.335 OA
HETATM   13  C6  UNL     1       5.809   6.344 -21.849  1.00  0.00     0.177 C 
HETATM   14  C7  UNL     1       4.452   5.648 -21.793  1.00  0.00     0.027 C 
HETATM   15  C8  UNL     1       3.797   5.594 -23.135  1.00  0.00     0.004 C 
HETATM   16  C9  UNL     1       2.329   5.880 -22.970  1.00  0.00     0.027 C 
HETATM   17  C10 UNL     1       2.168   7.387 -22.894  1.00  0.00     0.175 C 
HETATM   18  O3  UNL     1       2.097   7.724 -21.536  1.00  0.00    -0.349 OA
HETATM   19  C11 UNL     1       1.164   8.533 -20.911  1.00  0.00     0.095 A 
HETATM   20  C12 UNL     1       0.636   8.090 -19.697  1.00  0.00     0.041 A 
HETATM   21  C13 UNL     1      -0.301   8.786 -18.969  1.00  0.00     0.026 A 
HETATM   22  C14 UNL     1      -0.743   9.987 -19.467  1.00  0.00     0.036 A 
HETATM   23 CL1  UNL     1      -1.948  10.954 -18.602  1.00  0.00    -0.084 Cl
HETATM   24  C15 UNL     1      -0.232  10.429 -20.654  1.00  0.00     0.056 A 
HETATM   25  C16 UNL     1       0.729   9.736 -21.416  1.00  0.00     0.070 A 
HETATM   26  N4  UNL     1       1.183  10.327 -22.635  1.00  0.00    -0.320 N 
ATOM     27  H4  UNL     1       0.446  10.536 -23.309  1.00  0.00     0.169 HD
ENDROOT
BRANCH   1  28
HETATM   28  O1  UNL     1       2.644  10.614 -24.362  1.00  0.00    -0.332 OA
ATOM     29  H1  UNL     1       1.862  10.565 -24.899  1.00  0.00     0.220 HD
ENDBRANCH   1  28
TORSDOF 1
ENDMDL
