MODEL 2
REMARK VINA RESULT: -6.095486282      3.044      5.783
REMARK  1 active torsions:
REMARK  status: ('A' for Active; 'I' for Inactive)
REMARK    1  A    between atoms: O1_1  and  C1_3 
ROOT
HETATM    1  C1  UNL     1       4.530   9.274 -18.474  1.00  0.00     0.223 C 
HETATM    2  N1  UNL     1       4.439  10.087 -19.623  1.00  0.00    -0.307 N 
ATOM      3  H1  UNL     1       5.201  10.757 -19.720  1.00  0.00     0.171 HD
HETATM    4  C2  UNL     1       3.484  10.140 -20.662  1.00  0.00     0.125 A 
HETATM    5  C3  UNL     1       3.886  10.158 -22.004  1.00  0.00     0.136 A 
HETATM    6  N2  UNL     1       3.000  10.216 -22.993  1.00  0.00    -0.368 N 
ATOM      7  H2  UNL     1       3.308  10.229 -23.965  1.00  0.00     0.164 HD
HETATM    8  C4  UNL     1       1.696  10.258 -22.688  1.00  0.00     0.144 A 
HETATM    9  C5  UNL     1       1.236  10.244 -21.385  1.00  0.00     0.159 A 
HETATM   10  N3  UNL     1       2.164  10.185 -20.435  1.00  0.00    -0.321 N 
ATOM     11  H3  UNL     1       1.850  10.172 -19.465  1.00  0.00     0.169 HD
HETATM   12  O2  UNL     1      -0.113  10.289 -21.167  1.00  0.00    -0.335 OA
HETATM   13  C6  UNL     1      -0.759  10.331 -19.924  1.00  0.00     0.177 C 
HETATM   14  C7  UNL     1      -0.913   8.899 -19.418  1.00  0.00     0.027 C 
HETATM   15  C8  UNL     1      -0.663   8.796 -17.949  1.00  0.00     0.004 C 
HETATM   16  C9  UNL     1       0.132   7.547 -17.679  1.00  0.00     0.027 C 
HETATM   17  C10 UNL     1       1.589   7.869 -17.958  1.00  0.00     0.175 C 
HETATM   18  O3  UNL     1       1.866   7.424 -19.258  1.00  0.00    -0.349 OA
HETATM   19  C11 UNL     1       2.930   6.646 -19.679  1.00  0.00     0.095 A 
HETATM   20  C12 UNL     1       2.655   5.601 -20.562  1.00  0.00     0.041 A 
HETATM   21  C13 UNL     1       3.612   4.745 -21.059  1.00  0.00     0.026 A 
HETATM   22  C14 UNL     1       4.912   4.930 -20.660  1.00  0.00     0.036 A 
HETATM   23 CL1  UNL     1       6.212   3.880 -21.244  1.00  0.00    -0.084 Cl
HETATM   24  C15 UNL     1       5.191   5.951 -19.796  1.00  0.00     0.056 A 
HETATM   25  C16 UNL     1       4.230   6.841 -19.275  1.00  0.00     0.070 A 
HETATM   26  N4  UNL     1       4.670   7.871 -18.389  1.00  0.00    -0.320 N 
ATOM     27  H4  UNL     1       5.164   7.540 -17.560  1.00  0.00     0.169 HD
ENDROOT
BRANCH   1  28
HETATM   28  O1  UNL     1       4.482   9.867 -17.301  1.00  0.00    -0.332 OA
ATOM     29  H1  UNL     1       5.175   9.674 -16.681  1.00  0.00     0.220 HD
ENDBRANCH   1  28
TORSDOF 1
ENDMDL
