MODEL 3
REMARK VINA RESULT: -5.933636256      2.486      4.526
REMARK  1 active torsions:
REMARK  status: ('A' for Active; 'I' for Inactive)
REMARK    1  A    between atoms: O1_1  and  C1_3 
ROOT
HETATM    1  C1  UNL     1       4.195   7.096 -18.440  1.00  0.00     0.223 C 
HETATM    2  N1  UNL     1       4.036   5.843 -19.065  1.00  0.00    -0.307 N 
ATOM      3  H1  UNL     1       4.375   5.055 -18.512  1.00  0.00     0.171 HD
HETATM    4  C2  UNL     1       3.492   5.480 -20.317  1.00  0.00     0.125 A 
HETATM    5  C3  UNL     1       2.563   4.437 -20.419  1.00  0.00     0.136 A 
HETATM    6  N2  UNL     1       2.049   4.079 -21.591  1.00  0.00    -0.368 N 
ATOM      7  H2  UNL     1       1.373   3.317 -21.650  1.00  0.00     0.164 HD
HETATM    8  C4  UNL     1       2.435   4.736 -22.692  1.00  0.00     0.144 A 
HETATM    9  C5  UNL     1       3.348   5.773 -22.658  1.00  0.00     0.159 A 
HETATM   10  N3  UNL     1       3.831   6.090 -21.461  1.00  0.00    -0.321 N 
ATOM     11  H3  UNL     1       4.506   6.853 -21.409  1.00  0.00     0.169 HD
HETATM   12  O2  UNL     1       3.684   6.387 -23.832  1.00  0.00    -0.335 OA
HETATM   13  C6  UNL     1       4.621   7.418 -23.999  1.00  0.00     0.177 C 
HETATM   14  C7  UNL     1       3.923   8.746 -23.718  1.00  0.00     0.027 C 
HETATM   15  C8  UNL     1       4.799   9.686 -22.956  1.00  0.00     0.004 C 
HETATM   16  C9  UNL     1       3.969  10.387 -21.916  1.00  0.00     0.027 C 
HETATM   17  C10 UNL     1       3.850   9.450 -20.726  1.00  0.00     0.175 C 
HETATM   18  O3  UNL     1       2.623   8.785 -20.850  1.00  0.00    -0.349 OA
HETATM   19  C11 UNL     1       1.645   8.623 -19.884  1.00  0.00     0.095 A 
HETATM   20  C12 UNL     1       0.319   8.830 -20.266  1.00  0.00     0.041 A 
HETATM   21  C13 UNL     1      -0.754   8.710 -19.412  1.00  0.00     0.026 A 
HETATM   22  C14 UNL     1      -0.503   8.366 -18.107  1.00  0.00     0.036 A 
HETATM   23 CL1  UNL     1      -1.817   8.188 -16.934  1.00  0.00    -0.084 Cl
HETATM   24  C15 UNL     1       0.792   8.161 -17.723  1.00  0.00     0.056 A 
HETATM   25  C16 UNL     1       1.906   8.277 -18.578  1.00  0.00     0.070 A 
HETATM   26  N4  UNL     1       3.204   8.020 -18.040  1.00  0.00    -0.320 N 
ATOM     27  H4  UNL     1       3.456   8.598 -17.238  1.00  0.00     0.169 HD
ENDROOT
BRANCH   1  28
HETATM   28  O1  UNL     1       5.419   7.496 -18.175  1.00  0.00    -0.332 OA
ATOM     29  H1  UNL     1       5.531   8.162 -17.508  1.00  0.00     0.220 HD
ENDBRANCH   1  28
TORSDOF 1
ENDMDL
