MODEL 1
REMARK VINA RESULT: -6.820883822      0.000      0.000
REMARK  3 active torsions:
REMARK  status: ('A' for Active; 'I' for Inactive)
REMARK    1  A    between atoms: O1_1  and  C1_3 
REMARK    2  A    between atoms: C2_6  and  C3_7 
REMARK    3  A    between atoms: C5_11  and  C6_12 
ROOT
HETATM    1  C1  UNL     1      25.729  39.043  73.131  1.00  0.00     0.218 C 
HETATM    2  N1  UNL     1      25.020  40.349  72.909  1.00  0.00    -0.317 N 
ATOM      3  H1  UNL     1      24.012  40.460  72.797  1.00  0.00     0.169 HD
HETATM    4  C2  UNL     1      25.904  41.334  72.881  1.00  0.00     0.111 C 
HETATM    5  C4  UNL     1      27.136  41.356  73.011  1.00  0.00     0.045 C 
HETATM    6  C5  UNL     1      28.028  40.106  73.214  1.00  0.00     0.211 C 
HETATM    7  N2  UNL     1      27.042  39.060  73.143  1.00  0.00    -0.339 N 
ATOM      8  H2  UNL     1      27.453  38.127  73.091  1.00  0.00     0.164 HD
ENDROOT
BRANCH   4   9
HETATM    9  C3  UNL     1      25.359  42.683  72.332  1.00  0.00     0.226 C 
HETATM   10  O2  UNL     1      26.104  43.758  72.705  1.00  0.00    -0.643 OA
HETATM   11  O3  UNL     1      24.308  42.876  71.599  1.00  0.00    -0.643 OA
ENDBRANCH   4   9
BRANCH   1  12
HETATM   12  O1  UNL     1      25.008  37.977  73.357  1.00  0.00    -0.333 OA
ATOM     13  H1  UNL     1      25.142  37.216  72.804  1.00  0.00     0.220 HD
ENDBRANCH   1  12
BRANCH   6  14
HETATM   14  C6  UNL     1      28.830  40.317  71.947  1.00  0.00     0.200 C 
HETATM   15  O4  UNL     1      29.993  40.830  71.986  1.00  0.00    -0.646 OA
HETATM   16  O5  UNL     1      28.322  39.985  70.731  1.00  0.00    -0.646 OA
ENDBRANCH   6  14
TORSDOF 3
ENDMDL
