MODEL 3
REMARK VINA RESULT: -6.673878391      0.932      1.020
REMARK  3 active torsions:
REMARK  status: ('A' for Active; 'I' for Inactive)
REMARK    1  A    between atoms: O1_1  and  C1_3 
REMARK    2  A    between atoms: C2_6  and  C3_7 
REMARK    3  A    between atoms: C5_11  and  C6_12 
ROOT
HETATM    1  C1  UNL     1      25.786  39.348  72.844  1.00  0.00     0.218 C 
HETATM    2  N1  UNL     1      24.933  40.464  72.310  1.00  0.00    -0.317 N 
ATOM      3  H1  UNL     1      23.999  40.353  71.915  1.00  0.00     0.169 HD
HETATM    4  C2  UNL     1      25.578  41.613  72.433  1.00  0.00     0.111 C 
HETATM    5  C4  UNL     1      26.690  41.902  72.896  1.00  0.00     0.045 C 
HETATM    6  C5  UNL     1      27.710  40.879  73.457  1.00  0.00     0.211 C 
HETATM    7  N2  UNL     1      27.010  39.645  73.218  1.00  0.00    -0.339 N 
ATOM      8  H2  UNL     1      27.591  38.820  73.372  1.00  0.00     0.164 HD
ENDROOT
BRANCH   4   9
HETATM    9  C3  UNL     1      24.966  42.794  71.628  1.00  0.00     0.226 C 
HETATM   10  O2  UNL     1      25.726  43.920  71.659  1.00  0.00    -0.643 OA
HETATM   11  O3  UNL     1      23.849  42.812  70.970  1.00  0.00    -0.643 OA
ENDBRANCH   4   9
BRANCH   1  12
HETATM   12  O1  UNL     1      25.252  38.162  72.964  1.00  0.00    -0.333 OA
ATOM     13  H1  UNL     1      24.807  37.788  72.212  1.00  0.00     0.220 HD
ENDBRANCH   1  12
BRANCH   6  14
HETATM   14  C6  UNL     1      28.789  41.210  72.447  1.00  0.00     0.200 C 
HETATM   15  O4  UNL     1      29.769  40.424  72.256  1.00  0.00    -0.646 OA
HETATM   16  O5  UNL     1      28.750  42.365  71.731  1.00  0.00    -0.646 OA
ENDBRANCH   6  14
TORSDOF 3
ENDMDL
