MODEL 7
REMARK VINA RESULT: -6.318273372      1.387      3.575
REMARK  3 active torsions:
REMARK  status: ('A' for Active; 'I' for Inactive)
REMARK    1  A    between atoms: O1_1  and  C1_3 
REMARK    2  A    between atoms: C2_6  and  C3_7 
REMARK    3  A    between atoms: C5_11  and  C6_12 
ROOT
HETATM    1  C1  UNL     1      25.918  39.347  73.058  1.00  0.00     0.218 C 
HETATM    2  N1  UNL     1      27.337  39.795  73.271  1.00  0.00    -0.317 N 
ATOM      3  H1  UNL     1      27.986  39.390  73.946  1.00  0.00     0.169 HD
HETATM    4  C2  UNL     1      27.615  40.794  72.449  1.00  0.00     0.111 C 
HETATM    5  C4  UNL     1      26.947  41.375  71.583  1.00  0.00     0.045 C 
HETATM    6  C5  UNL     1      25.465  41.067  71.251  1.00  0.00     0.211 C 
HETATM    7  N2  UNL     1      25.180  40.047  72.227  1.00  0.00    -0.339 N 
ATOM      8  H2  UNL     1      24.187  39.818  72.286  1.00  0.00     0.164 HD
ENDROOT
BRANCH   4   9
HETATM    9  C3  UNL     1      28.920  41.570  72.785  1.00  0.00     0.226 C 
HETATM   10  O2  UNL     1      29.062  42.720  72.075  1.00  0.00    -0.643 OA
HETATM   11  O3  UNL     1      29.848  41.238  73.627  1.00  0.00    -0.643 OA
ENDBRANCH   4   9
BRANCH   1  12
HETATM   12  O1  UNL     1      25.513  38.260  73.659  1.00  0.00    -0.333 OA
ATOM     13  H1  UNL     1      24.649  38.258  74.053  1.00  0.00     0.220 HD
ENDBRANCH   1  12
BRANCH   6  14
HETATM   14  C6  UNL     1      24.966  42.452  71.609  1.00  0.00     0.200 C 
HETATM   15  O4  UNL     1      25.651  43.486  71.328  1.00  0.00    -0.646 OA
HETATM   16  O5  UNL     1      23.785  42.627  72.257  1.00  0.00    -0.646 OA
ENDBRANCH   6  14
TORSDOF 3
ENDMDL
