MODEL 2
REMARK VINA RESULT: -6.776669215      0.911      3.728
REMARK  3 active torsions:
REMARK  status: ('A' for Active; 'I' for Inactive)
REMARK    1  A    between atoms: O1_1  and  C1_3 
REMARK    2  A    between atoms: C2_6  and  C3_7 
REMARK    3  A    between atoms: C5_11  and  C6_12 
ROOT
HETATM    1  C1  UNL     1      25.851  39.123  73.372  1.00  0.00     0.218 C 
HETATM    2  N1  UNL     1      27.339  39.313  73.274  1.00  0.00    -0.317 N 
ATOM      3  H1  UNL     1      28.034  38.804  73.821  1.00  0.00     0.169 HD
HETATM    4  C2  UNL     1      27.609  40.241  72.370  1.00  0.00     0.111 C 
HETATM    5  C4  UNL     1      26.886  40.925  71.632  1.00  0.00     0.045 C 
HETATM    6  C5  UNL     1      25.337  40.883  71.622  1.00  0.00     0.211 C 
HETATM    7  N2  UNL     1      25.089  39.938  72.678  1.00  0.00    -0.339 N 
ATOM      8  H2  UNL     1      24.106  39.889  72.947  1.00  0.00     0.164 HD
ENDROOT
BRANCH   4   9
HETATM    9  C3  UNL     1      29.069  40.774  72.401  1.00  0.00     0.226 C 
HETATM   10  O2  UNL     1      29.729  40.608  71.224  1.00  0.00    -0.643 OA
HETATM   11  O3  UNL     1      29.693  41.327  73.393  1.00  0.00    -0.643 OA
ENDBRANCH   4   9
BRANCH   1  12
HETATM   12  O1  UNL     1      25.398  38.130  74.089  1.00  0.00    -0.333 OA
ATOM     13  H1  UNL     1      24.485  38.142  74.351  1.00  0.00     0.220 HD
ENDBRANCH   1  12
BRANCH   6  14
HETATM   14  C6  UNL     1      25.170  42.337  72.011  1.00  0.00     0.200 C 
HETATM   15  O4  UNL     1      24.170  43.011  71.608  1.00  0.00    -0.646 OA
HETATM   16  O5  UNL     1      26.094  42.967  72.784  1.00  0.00    -0.646 OA
ENDBRANCH   6  14
TORSDOF 3
ENDMDL
