MODEL 4
REMARK VINA RESULT: -6.664664089      0.147      1.261
REMARK  3 active torsions:
REMARK  status: ('A' for Active; 'I' for Inactive)
REMARK    1  A    between atoms: O1_1  and  C1_3 
REMARK    2  A    between atoms: C2_6  and  C3_7 
REMARK    3  A    between atoms: C5_11  and  C6_12 
ROOT
HETATM    1  C1  UNL     1      25.679  39.024  73.106  1.00  0.00     0.218 C 
HETATM    2  N1  UNL     1      25.022  40.369  72.971  1.00  0.00    -0.317 N 
ATOM      3  H1  UNL     1      24.018  40.527  72.887  1.00  0.00     0.169 HD
HETATM    4  C2  UNL     1      25.946  41.316  72.980  1.00  0.00     0.111 C 
HETATM    5  C4  UNL     1      27.180  41.280  73.085  1.00  0.00     0.045 C 
HETATM    6  C5  UNL     1      28.023  39.985  73.201  1.00  0.00     0.211 C 
HETATM    7  N2  UNL     1      26.992  38.986  73.093  1.00  0.00    -0.339 N 
ATOM      8  H2  UNL     1      27.362  38.041  72.981  1.00  0.00     0.164 HD
ENDROOT
BRANCH   4   9
HETATM    9  C3  UNL     1      25.449  42.715  72.517  1.00  0.00     0.226 C 
HETATM   10  O2  UNL     1      24.248  42.678  71.881  1.00  0.00    -0.643 OA
HETATM   11  O3  UNL     1      26.044  43.857  72.662  1.00  0.00    -0.643 OA
ENDBRANCH   4   9
BRANCH   1  12
HETATM   12  O1  UNL     1      24.919  37.977  73.288  1.00  0.00    -0.333 OA
ATOM     13  H1  UNL     1      25.025  37.234  72.705  1.00  0.00     0.220 HD
ENDBRANCH   1  12
BRANCH   6  14
HETATM   14  C6  UNL     1      28.809  40.233  71.931  1.00  0.00     0.200 C 
HETATM   15  O4  UNL     1      28.358  39.866  70.800  1.00  0.00    -0.646 OA
HETATM   16  O5  UNL     1      30.027  40.835  71.966  1.00  0.00    -0.646 OA
ENDBRANCH   6  14
TORSDOF 3
ENDMDL
