MODEL 4
REMARK VINA RESULT: -5.638756232      2.851      4.758
REMARK  4 active torsions:
REMARK  status: ('A' for Active; 'I' for Inactive)
REMARK    1  A    between atoms: C5_8  and  C6_9 
REMARK    2  A    between atoms: C6_9  and  O2_10 
REMARK    3  A    between atoms: C7_12  and  O3_13 
REMARK    4  A    between atoms: C8_15  and  O4_16 
ROOT
HETATM    1  C1  UNL     1      20.006   7.172  35.816  1.00  0.00     0.076 C 
HETATM    2  C2  UNL     1      20.961   7.554  36.913  1.00  0.00     0.041 C 
HETATM    3  N1  UNL     1      20.808   7.557  38.139  1.00  0.00    -0.378 N 
ATOM      4  H1  UNL     1      19.905   7.261  38.512  1.00  0.00     0.160 HD
HETATM    5  C3  UNL     1      21.779   7.934  39.023  1.00  0.00     0.152 C 
HETATM    6  C4  UNL     1      23.096   8.201  38.388  1.00  0.00     0.214 C 
HETATM    7  O1  UNL     1      23.692   9.387  38.700  1.00  0.00    -0.363 OA
HETATM    8  C5  UNL     1      23.761   9.518  40.077  1.00  0.00     0.178 C 
HETATM    9  C7  UNL     1      22.390   9.545  40.729  1.00  0.00     0.180 C 
HETATM   10  C8  UNL     1      21.349   9.272  39.660  1.00  0.00     0.175 C 
HETATM   11  S1  UNL     1      22.631   8.119  36.618  1.00  0.00    -0.083 SA
ENDROOT
BRANCH   8  12
HETATM   12  C6  UNL     1      24.637   8.426  40.643  1.00  0.00     0.198 C 
BRANCH  12  13
HETATM   13  O2  UNL     1      26.004   8.781  40.539  1.00  0.00    -0.398 OA
ATOM     14  H2  UNL     1      26.110   9.534  39.972  1.00  0.00     0.209 HD
ENDBRANCH  12  13
ENDBRANCH   8  12
BRANCH   9  15
HETATM   15  O3  UNL     1      22.150  10.720  41.406  1.00  0.00    -0.390 OA
ATOM     16  H3  UNL     1      21.228  10.947  41.424  1.00  0.00     0.210 HD
ENDBRANCH   9  15
BRANCH  10  17
HETATM   17  O4  UNL     1      20.073   9.217  40.155  1.00  0.00    -0.391 OA
ATOM     18  H4  UNL     1      19.792  10.054  40.506  1.00  0.00     0.210 HD
ENDBRANCH  10  17
TORSDOF 4
ENDMDL
