MODEL 1
REMARK VINA RESULT: -6.615820776      0.000      0.000
REMARK  4 active torsions:
REMARK  status: ('A' for Active; 'I' for Inactive)
REMARK    1  A    between atoms: C5_8  and  C6_9 
REMARK    2  A    between atoms: C6_9  and  O2_10 
REMARK    3  A    between atoms: C7_12  and  O3_13 
REMARK    4  A    between atoms: C8_15  and  O4_16 
ROOT
HETATM    1  C1  UNL     1      25.585   4.198  42.021  1.00  0.00     0.076 C 
HETATM    2  C2  UNL     1      24.800   5.287  41.345  1.00  0.00     0.041 C 
HETATM    3  N1  UNL     1      24.971   5.833  40.250  1.00  0.00    -0.378 N 
ATOM      4  H1  UNL     1      25.758   5.527  39.678  1.00  0.00     0.160 HD
HETATM    5  C3  UNL     1      24.164   6.822  39.762  1.00  0.00     0.152 C 
HETATM    6  C4  UNL     1      22.966   7.086  40.601  1.00  0.00     0.214 C 
HETATM    7  O1  UNL     1      22.738   8.386  40.943  1.00  0.00    -0.363 OA
HETATM    8  C5  UNL     1      22.736   9.169  39.800  1.00  0.00     0.178 C 
HETATM    9  C7  UNL     1      24.070   9.145  39.076  1.00  0.00     0.180 C 
HETATM   10  C8  UNL     1      24.969   8.137  39.766  1.00  0.00     0.175 C 
HETATM   11  S1  UNL     1      23.354   6.056  42.064  1.00  0.00    -0.083 SA
ENDROOT
BRANCH   8  12
HETATM   12  C6  UNL     1      21.595   8.747  38.904  1.00  0.00     0.198 C 
BRANCH  12  13
HETATM   13  O2  UNL     1      20.382   9.336  39.333  1.00  0.00    -0.398 OA
ATOM     14  H2  UNL     1      19.641   8.917  38.912  1.00  0.00     0.209 HD
ENDBRANCH  12  13
ENDBRANCH   8  12
BRANCH   9  15
HETATM   15  O3  UNL     1      24.647  10.393  38.992  1.00  0.00    -0.390 OA
ATOM     16  H3  UNL     1      25.382  10.494  39.585  1.00  0.00     0.210 HD
ENDBRANCH   9  15
BRANCH  10  17
HETATM   17  O4  UNL     1      26.186   7.997  39.153  1.00  0.00    -0.391 OA
ATOM     18  H4  UNL     1      26.755   8.739  39.317  1.00  0.00     0.210 HD
ENDBRANCH  10  17
TORSDOF 4
ENDMDL
