MODEL 3
REMARK VINA RESULT: -5.845786776      2.805      4.820
REMARK  4 active torsions:
REMARK  status: ('A' for Active; 'I' for Inactive)
REMARK    1  A    between atoms: C5_8  and  C6_9 
REMARK    2  A    between atoms: C6_9  and  O2_10 
REMARK    3  A    between atoms: C7_12  and  O3_13 
REMARK    4  A    between atoms: C8_15  and  O4_16 
ROOT
HETATM    1  C1  UNL     1      18.578  10.004  38.251  1.00  0.00     0.076 C 
HETATM    2  C2  UNL     1      19.855   9.326  38.664  1.00  0.00     0.041 C 
HETATM    3  N1  UNL     1      20.426   9.299  39.759  1.00  0.00    -0.378 N 
ATOM      4  H1  UNL     1      20.000   9.804  40.536  1.00  0.00     0.160 HD
HETATM    5  C3  UNL     1      21.596   8.631  39.987  1.00  0.00     0.152 C 
HETATM    6  C4  UNL     1      22.051   7.810  38.835  1.00  0.00     0.214 C 
HETATM    7  O1  UNL     1      23.343   7.985  38.435  1.00  0.00    -0.363 OA
HETATM    8  C5  UNL     1      24.185   7.837  39.524  1.00  0.00     0.178 C 
HETATM    9  C7  UNL     1      23.928   8.872  40.605  1.00  0.00     0.180 C 
HETATM   10  C8  UNL     1      22.706   9.679  40.210  1.00  0.00     0.175 C 
HETATM   11  S1  UNL     1      20.862   8.352  37.553  1.00  0.00    -0.083 SA
ENDROOT
BRANCH   8  12
HETATM   12  C6  UNL     1      24.080   6.426  40.053  1.00  0.00     0.198 C 
BRANCH  12  13
HETATM   13  O2  UNL     1      25.350   5.800  40.055  1.00  0.00    -0.398 OA
ATOM     14  H2  UNL     1      25.486   5.327  40.867  1.00  0.00     0.209 HD
ENDBRANCH  12  13
ENDBRANCH   8  12
BRANCH   9  15
HETATM   15  O3  UNL     1      25.026   9.667  40.846  1.00  0.00    -0.390 OA
ATOM     16  H3  UNL     1      25.132   9.871  41.768  1.00  0.00     0.210 HD
ENDBRANCH   9  15
BRANCH  10  17
HETATM   17  O4  UNL     1      22.352  10.609  41.151  1.00  0.00    -0.391 OA
ATOM     18  H4  UNL     1      22.598  11.489  40.891  1.00  0.00     0.210 HD
ENDBRANCH  10  17
TORSDOF 4
ENDMDL
