MODEL 5
REMARK VINA RESULT: -5.612284298      2.660      4.508
REMARK  4 active torsions:
REMARK  status: ('A' for Active; 'I' for Inactive)
REMARK    1  A    between atoms: C5_8  and  C6_9 
REMARK    2  A    between atoms: C6_9  and  O2_10 
REMARK    3  A    between atoms: C7_12  and  O3_13 
REMARK    4  A    between atoms: C8_15  and  O4_16 
ROOT
HETATM    1  C1  UNL     1      21.227  10.438  36.038  1.00  0.00     0.076 C 
HETATM    2  C2  UNL     1      21.761   9.627  37.186  1.00  0.00     0.041 C 
HETATM    3  N1  UNL     1      22.707   9.849  37.949  1.00  0.00    -0.378 N 
ATOM      4  H1  UNL     1      23.240  10.709  37.815  1.00  0.00     0.160 HD
HETATM    5  C3  UNL     1      23.079   9.010  38.960  1.00  0.00     0.152 C 
HETATM    6  C4  UNL     1      22.150   7.868  39.162  1.00  0.00     0.214 C 
HETATM    7  O1  UNL     1      22.714   6.627  39.212  1.00  0.00    -0.363 OA
HETATM    8  C5  UNL     1      23.731   6.622  40.152  1.00  0.00     0.178 C 
HETATM    9  C7  UNL     1      24.850   7.586  39.804  1.00  0.00     0.180 C 
HETATM   10  C8  UNL     1      24.434   8.378  38.579  1.00  0.00     0.175 C 
HETATM   11  S1  UNL     1      21.065   8.062  37.700  1.00  0.00    -0.083 SA
ENDROOT
BRANCH   8  12
HETATM   12  C6  UNL     1      23.152   6.894  41.521  1.00  0.00     0.198 C 
BRANCH  12  13
HETATM   13  O2  UNL     1      23.491   5.855  42.420  1.00  0.00    -0.398 OA
ATOM     14  H2  UNL     1      22.712   5.393  42.705  1.00  0.00     0.209 HD
ENDBRANCH  12  13
ENDBRANCH   8  12
BRANCH   9  15
HETATM   15  O3  UNL     1      26.060   6.951  39.631  1.00  0.00    -0.390 OA
ATOM     16  H3  UNL     1      26.797   7.499  39.872  1.00  0.00     0.210 HD
ENDBRANCH   9  15
BRANCH  10  17
HETATM   17  O4  UNL     1      25.355   9.322  38.213  1.00  0.00    -0.391 OA
ATOM     18  H4  UNL     1      26.246   9.006  38.309  1.00  0.00     0.210 HD
ENDBRANCH  10  17
TORSDOF 4
ENDMDL
