MODEL 2
REMARK VINA RESULT: -7.936594419      2.221      2.849
REMARK  2 active torsions:
REMARK  status: ('A' for Active; 'I' for Inactive)
REMARK    1  A    between atoms: C5_8  and  S1_9 
REMARK    2  A    between atoms: S1_9  and  N2_12 
ROOT
HETATM    1  O1  UNL     1       4.802  10.445   5.389  1.00  0.00    -0.267 OA
HETATM    2  C1  UNL     1       5.440  10.236   4.314  1.00  0.00     0.256 A 
HETATM    3  N1  UNL     1       4.810  10.115   3.129  1.00  0.00    -0.333 N 
ATOM      4  H1  UNL     1       3.794  10.194   3.088  1.00  0.00     0.168 HD
HETATM    5  C2  UNL     1       5.504   9.893   1.998  1.00  0.00     0.092 A 
HETATM    6  C3  UNL     1       6.876   9.777   1.991  1.00  0.00     0.031 A 
HETATM    7  C4  UNL     1       7.537   9.898   3.199  1.00  0.00     0.004 A 
HETATM    8  C5  UNL     1       8.910   9.799   3.301  1.00  0.00     0.091 A 
HETATM    9  C11 UNL     1       9.513   9.931   4.548  1.00  0.00     0.026 A 
HETATM   10  C12 UNL     1       8.788  10.158   5.693  1.00  0.00     0.003 A 
HETATM   11  C13 UNL     1       7.418  10.258   5.599  1.00  0.00     0.018 A 
HETATM   12  C14 UNL     1       6.800  10.129   4.365  1.00  0.00     0.044 A 
ENDROOT
BRANCH   8  13
HETATM   13  S1  UNL     1       9.826   9.510   1.854  1.00  0.00     0.265 S 
HETATM   14  O2  UNL     1       9.484   8.126   1.329  1.00  0.00    -0.200 OA
HETATM   15  O3  UNL     1       9.376  10.487   0.801  1.00  0.00    -0.200 OA
BRANCH  13  16
HETATM   16  N2  UNL     1      11.482   9.639   2.034  1.00  0.00    -0.285 N 
HETATM   17  C6  UNL     1      12.189   8.661   2.725  1.00  0.00     0.078 C 
HETATM   18  C7  UNL     1      13.193   7.971   1.832  1.00  0.00     0.065 C 
HETATM   19  C8  UNL     1      14.478   8.722   1.696  1.00  0.00     0.119 C 
HETATM   20  N3  UNL     1      14.356  10.133   1.613  1.00  0.00    -0.419 N 
HETATM   21  C9  UNL     1      13.266  10.608   0.815  1.00  0.00     0.134 C 
ATOM     22  H3  UNL     1      15.000  10.765   2.088  1.00  0.00     0.153 HD
HETATM   23  C10 UNL     1      12.090  10.874   1.766  1.00  0.00     0.160 C 
ENDBRANCH  13  16
ENDBRANCH   8  13
TORSDOF 2
ENDMDL
