MODEL 3
REMARK VINA RESULT: -7.917836985      6.046      7.856
REMARK  2 active torsions:
REMARK  status: ('A' for Active; 'I' for Inactive)
REMARK    1  A    between atoms: C5_8  and  S1_9 
REMARK    2  A    between atoms: S1_9  and  N2_12 
ROOT
HETATM    1  O1  UNL     1      14.006  11.272  -4.413  1.00  0.00    -0.267 OA
HETATM    2  C1  UNL     1      14.429  11.054  -3.239  1.00  0.00     0.256 A 
HETATM    3  N1  UNL     1      13.739  11.451  -2.152  1.00  0.00    -0.333 N 
ATOM      4  H1  UNL     1      12.851  11.940  -2.270  1.00  0.00     0.168 HD
HETATM    5  C2  UNL     1      14.205  11.212  -0.913  1.00  0.00     0.092 A 
HETATM    6  C3  UNL     1      15.396  10.557  -0.691  1.00  0.00     0.031 A 
HETATM    7  C4  UNL     1      16.116  10.143  -1.797  1.00  0.00     0.004 A 
HETATM    8  C5  UNL     1      17.321   9.480  -1.684  1.00  0.00     0.091 A 
HETATM    9  C11 UNL     1      17.995   9.090  -2.837  1.00  0.00     0.026 A 
HETATM   10  C12 UNL     1      17.505   9.343  -4.095  1.00  0.00     0.003 A 
HETATM   11  C13 UNL     1      16.303  10.006  -4.216  1.00  0.00     0.018 A 
HETATM   12  C14 UNL     1      15.618  10.401  -3.077  1.00  0.00     0.044 A 
ENDROOT
BRANCH   8  13
HETATM   13  S1  UNL     1      17.942   9.161  -0.094  1.00  0.00     0.265 S 
HETATM   14  O2  UNL     1      19.338   8.575  -0.226  1.00  0.00    -0.200 OA
HETATM   15  O3  UNL     1      18.097  10.471   0.630  1.00  0.00    -0.200 OA
BRANCH  13  16
HETATM   16  N2  UNL     1      17.002   8.140   0.836  1.00  0.00    -0.285 N 
HETATM   17  C6  UNL     1      17.139   8.128   2.219  1.00  0.00     0.078 C 
HETATM   18  C7  UNL     1      15.859   8.547   2.903  1.00  0.00     0.065 C 
HETATM   19  C8  UNL     1      14.874   7.432   3.050  1.00  0.00     0.119 C 
HETATM   20  N3  UNL     1      14.791   6.541   1.949  1.00  0.00    -0.419 N 
HETATM   21  C9  UNL     1      14.856   7.154   0.657  1.00  0.00     0.134 C 
ATOM     22  H3  UNL     1      14.694   5.532   2.069  1.00  0.00     0.153 HD
HETATM   23  C10 UNL     1      16.320   7.094   0.198  1.00  0.00     0.160 C 
ENDBRANCH  13  16
ENDBRANCH   8  13
TORSDOF 2
ENDMDL
