MODEL 9
REMARK VINA RESULT: -7.629747710      2.230      6.333
REMARK  2 active torsions:
REMARK  status: ('A' for Active; 'I' for Inactive)
REMARK    1  A    between atoms: C5_8  and  S1_9 
REMARK    2  A    between atoms: S1_9  and  N2_12 
ROOT
HETATM    1  O1  UNL     1      16.216  10.701  -1.200  1.00  0.00    -0.267 OA
HETATM    2  C1  UNL     1      15.732  10.081  -0.206  1.00  0.00     0.256 A 
HETATM    3  N1  UNL     1      16.438   9.143   0.456  1.00  0.00    -0.333 N 
ATOM      4  H1  UNL     1      17.388   8.922   0.156  1.00  0.00     0.168 HD
HETATM    5  C2  UNL     1      15.908   8.496   1.508  1.00  0.00     0.092 A 
HETATM    6  C3  UNL     1      14.631   8.751   1.960  1.00  0.00     0.031 A 
HETATM    7  C4  UNL     1      13.894   9.710   1.291  1.00  0.00     0.004 A 
HETATM    8  C5  UNL     1      12.607  10.041   1.662  1.00  0.00     0.091 A 
HETATM    9  C11 UNL     1      11.920  11.017   0.946  1.00  0.00     0.026 A 
HETATM   10  C12 UNL     1      12.478  11.668  -0.127  1.00  0.00     0.003 A 
HETATM   11  C13 UNL     1      13.762  11.343  -0.504  1.00  0.00     0.018 A 
HETATM   12  C14 UNL     1      14.461  10.374   0.198  1.00  0.00     0.044 A 
ENDROOT
BRANCH   8  13
HETATM   13  S1  UNL     1      11.901   9.217   3.018  1.00  0.00     0.265 S 
HETATM   14  O2  UNL     1      12.513   7.830   3.116  1.00  0.00    -0.200 OA
HETATM   15  O3  UNL     1      12.292   9.944   4.276  1.00  0.00    -0.200 OA
BRANCH  13  16
HETATM   16  N2  UNL     1      10.236   9.083   2.969  1.00  0.00    -0.285 N 
HETATM   17  C6  UNL     1       9.500   9.080   4.148  1.00  0.00     0.078 C 
HETATM   18  C7  UNL     1       8.555  10.257   4.211  1.00  0.00     0.065 C 
HETATM   19  C8  UNL     1       7.273  10.027   3.478  1.00  0.00     0.119 C 
HETATM   20  N3  UNL     1       7.387   9.316   2.255  1.00  0.00    -0.419 N 
HETATM   21  C9  UNL     1       8.517   9.663   1.447  1.00  0.00     0.134 C 
ATOM     22  H3  UNL     1       6.712   8.606   1.971  1.00  0.00     0.153 HD
HETATM   23  C10 UNL     1       9.634   8.662   1.775  1.00  0.00     0.160 C 
ENDBRANCH  13  16
ENDBRANCH   8  13
TORSDOF 2
ENDMDL
