MODEL 11
REMARK VINA RESULT: -7.570452024      2.123      5.854
REMARK  2 active torsions:
REMARK  status: ('A' for Active; 'I' for Inactive)
REMARK    1  A    between atoms: C5_8  and  S1_9 
REMARK    2  A    between atoms: S1_9  and  N2_12 
ROOT
HETATM    1  O1  UNL     1      15.349  10.361  -1.283  1.00  0.00    -0.267 OA
HETATM    2  C1  UNL     1      14.411  10.789  -0.545  1.00  0.00     0.256 A 
HETATM    3  N1  UNL     1      13.767  11.941  -0.815  1.00  0.00    -0.333 N 
ATOM      4  H1  UNL     1      14.035  12.488  -1.633  1.00  0.00     0.168 HD
HETATM    5  C2  UNL     1      12.775  12.380  -0.020  1.00  0.00     0.092 A 
HETATM    6  C3  UNL     1      12.370  11.685   1.098  1.00  0.00     0.031 A 
HETATM    7  C4  UNL     1      13.021  10.500   1.388  1.00  0.00     0.004 A 
HETATM    8  C5  UNL     1      12.692   9.728   2.484  1.00  0.00     0.091 A 
HETATM    9  C11 UNL     1      13.387   8.546   2.719  1.00  0.00     0.026 A 
HETATM   10  C12 UNL     1      14.398   8.113   1.896  1.00  0.00     0.003 A 
HETATM   11  C13 UNL     1      14.733   8.878   0.801  1.00  0.00     0.018 A 
HETATM   12  C14 UNL     1      14.051  10.059   0.551  1.00  0.00     0.044 A 
ENDROOT
BRANCH   8  13
HETATM   13  S1  UNL     1      11.414  10.276   3.526  1.00  0.00     0.265 S 
HETATM   14  O2  UNL     1      11.719   9.830   4.945  1.00  0.00    -0.200 OA
HETATM   15  O3  UNL     1      11.422  11.781   3.542  1.00  0.00    -0.200 OA
BRANCH  13  16
HETATM   16  N2  UNL     1       9.886   9.751   3.099  1.00  0.00    -0.285 N 
HETATM   17  C6  UNL     1       9.009   9.286   4.071  1.00  0.00     0.078 C 
HETATM   18  C7  UNL     1       7.768  10.143   4.149  1.00  0.00     0.065 C 
HETATM   19  C8  UNL     1       6.735   9.784   3.130  1.00  0.00     0.119 C 
HETATM   20  N3  UNL     1       7.237   9.435   1.848  1.00  0.00    -0.419 N 
HETATM   21  C9  UNL     1       8.330  10.233   1.380  1.00  0.00     0.134 C 
ATOM     22  H3  UNL     1       6.846   8.669   1.300  1.00  0.00     0.153 HD
HETATM   23  C10 UNL     1       9.623   9.490   1.746  1.00  0.00     0.160 C 
ENDBRANCH  13  16
ENDBRANCH   8  13
TORSDOF 2
ENDMDL
