MODEL 10
REMARK VINA RESULT: -7.557565425      3.040     10.120
REMARK  9 active torsions:
REMARK  status: ('A' for Active; 'I' for Inactive)
REMARK    1  A    between atoms: C2_2  and  O2_4 
REMARK    2  A    between atoms: O2_4  and  C3_5 
REMARK    3  A    between atoms: C6_8  and  C7_9 
REMARK    4  A    between atoms: C8_10  and  C9_11 
REMARK       I    between atoms: C9_11  and  N1_13 
REMARK    5  A    between atoms: N1_13  and  C10_15 
REMARK    6  A    between atoms: C10_15  and  C11_16 
REMARK    7  A    between atoms: C11_16  and  C12_17 
REMARK    8  A    between atoms: C19_24  and  O4_25 
REMARK    9  A    between atoms: O4_25  and  C20_26 
ROOT
HETATM    1  C3  UNL     1     -77.346 -66.044  52.983  1.00  0.00     0.113 A 
HETATM    2  C4  UNL     1     -76.736 -65.946  51.740  1.00  0.00     0.041 A 
HETATM    3  C5  UNL     1     -77.400 -65.337  50.694  1.00  0.00     0.014 A 
HETATM    4  C6  UNL     1     -78.673 -64.817  50.856  1.00  0.00    -0.033 A 
HETATM    5  C18 UNL     1     -79.264 -64.920  52.089  1.00  0.00     0.051 A 
HETATM    6  C19 UNL     1     -78.607 -65.532  53.160  1.00  0.00     0.113 A 
ENDROOT
BRANCH   4   7
HETATM    7  C7  UNL     1     -79.320 -64.190  49.724  1.00  0.00     0.017 C 
HETATM    8  C8  UNL     1     -78.664 -63.670  48.718  1.00  0.00     0.075 C 
BRANCH   8   9
HETATM    9  C9  UNL     1     -79.346 -63.046  47.593  1.00  0.00     0.241 C 
HETATM   10  O3  UNL     1     -80.302 -62.235  47.868  1.00  0.00    -0.269 OA
HETATM   11  N1  UNL     1     -79.035 -63.268  46.239  1.00  0.00    -0.357 N 
ATOM     12  H1  UNL     1     -78.277 -63.909  46.003  1.00  0.00     0.162 HD
BRANCH  11  13
HETATM   13  C10 UNL     1     -79.751 -62.620  45.183  1.00  0.00     0.127 C 
BRANCH  13  14
HETATM   14  C11 UNL     1     -80.867 -63.437  44.586  1.00  0.00     0.058 C 
BRANCH  14  15
HETATM   15  C12 UNL     1     -82.135 -62.686  44.880  1.00  0.00    -0.057 A 
HETATM   16  C13 UNL     1     -82.512 -61.615  44.099  1.00  0.00     0.007 A 
HETATM   17  C14 UNL     1     -83.692 -60.912  44.368  1.00  0.00     0.001 A 
HETATM   18  C15 UNL     1     -84.509 -61.269  45.419  1.00  0.00     0.000 A 
HETATM   19  C16 UNL     1     -84.125 -62.341  46.195  1.00  0.00     0.001 A 
HETATM   20  C17 UNL     1     -82.947 -63.048  45.932  1.00  0.00     0.007 A 
ENDBRANCH  14  15
ENDBRANCH  13  14
ENDBRANCH  11  13
ENDBRANCH   8   9
ENDBRANCH   4   7
BRANCH   6  21
HETATM   21  O4  UNL     1     -79.237 -65.616  54.383  1.00  0.00    -0.276 OA
BRANCH  21  22
HETATM   22  C20 UNL     1     -78.983 -64.732  55.439  1.00  0.00     0.260 C 
HETATM   23  C21 UNL     1     -78.201 -65.128  56.639  1.00  0.00     0.126 C 
HETATM   24  O5  UNL     1     -79.468 -63.569  55.295  1.00  0.00    -0.265 OA
ENDBRANCH  21  22
ENDBRANCH   6  21
BRANCH   1  25
HETATM   25  O2  UNL     1     -76.648 -66.657  53.995  1.00  0.00    -0.276 OA
BRANCH  25  26
HETATM   26  C2  UNL     1     -75.369 -66.357  54.375  1.00  0.00     0.260 C 
HETATM   27  C1  UNL     1     -74.315 -67.394  54.243  1.00  0.00     0.126 C 
HETATM   28  O1  UNL     1     -75.137 -65.206  54.821  1.00  0.00    -0.265 OA
ENDBRANCH  25  26
ENDBRANCH   1  25
TORSDOF 9
ENDMDL
