MODEL 3
REMARK VINA RESULT: -7.767035728      1.435      2.892
REMARK  9 active torsions:
REMARK  status: ('A' for Active; 'I' for Inactive)
REMARK    1  A    between atoms: C2_2  and  O2_4 
REMARK    2  A    between atoms: O2_4  and  C3_5 
REMARK    3  A    between atoms: C6_8  and  C7_9 
REMARK    4  A    between atoms: C8_10  and  C9_11 
REMARK       I    between atoms: C9_11  and  N1_13 
REMARK    5  A    between atoms: N1_13  and  C10_15 
REMARK    6  A    between atoms: C10_15  and  C11_16 
REMARK    7  A    between atoms: C11_16  and  C12_17 
REMARK    8  A    between atoms: C19_24  and  O4_25 
REMARK    9  A    between atoms: O4_25  and  C20_26 
ROOT
HETATM    1  C3  UNL     1     -79.059 -64.401  46.660  1.00  0.00     0.113 A 
HETATM    2  C4  UNL     1     -78.391 -65.519  47.138  1.00  0.00     0.041 A 
HETATM    3  C5  UNL     1     -78.527 -65.888  48.461  1.00  0.00     0.014 A 
HETATM    4  C6  UNL     1     -79.321 -65.162  49.332  1.00  0.00    -0.033 A 
HETATM    5  C18 UNL     1     -79.976 -64.058  48.847  1.00  0.00     0.051 A 
HETATM    6  C19 UNL     1     -79.851 -63.670  47.511  1.00  0.00     0.113 A 
ENDROOT
BRANCH   4   7
HETATM    7  C7  UNL     1     -79.426 -65.595  50.708  1.00  0.00     0.017 C 
HETATM    8  C8  UNL     1     -79.731 -64.790  51.694  1.00  0.00     0.075 C 
BRANCH   8   9
HETATM    9  C9  UNL     1     -79.829 -65.259  53.070  1.00  0.00     0.241 C 
HETATM   10  O3  UNL     1     -80.880 -65.924  53.386  1.00  0.00    -0.269 OA
HETATM   11  N1  UNL     1     -78.861 -65.036  54.067  1.00  0.00    -0.357 N 
ATOM     12  H1  UNL     1     -78.020 -64.510  53.832  1.00  0.00     0.162 HD
BRANCH  11  13
HETATM   13  C10 UNL     1     -79.025 -65.526  55.402  1.00  0.00     0.127 C 
BRANCH  13  14
HETATM   14  C11 UNL     1     -78.213 -64.798  56.442  1.00  0.00     0.058 C 
BRANCH  14  15
HETATM   15  C12 UNL     1     -76.920 -65.554  56.563  1.00  0.00    -0.057 A 
HETATM   16  C13 UNL     1     -76.921 -66.904  56.838  1.00  0.00     0.007 A 
HETATM   17  C14 UNL     1     -75.719 -67.613  56.951  1.00  0.00     0.001 A 
HETATM   18  C15 UNL     1     -74.504 -66.983  56.791  1.00  0.00     0.000 A 
HETATM   19  C16 UNL     1     -74.512 -65.633  56.517  1.00  0.00     0.001 A 
HETATM   20  C17 UNL     1     -75.709 -64.918  56.402  1.00  0.00     0.007 A 
ENDBRANCH  14  15
ENDBRANCH  13  14
ENDBRANCH  11  13
ENDBRANCH   8   9
ENDBRANCH   4   7
BRANCH   6  21
HETATM   21  O4  UNL     1     -80.525 -62.555  47.063  1.00  0.00    -0.276 OA
BRANCH  21  22
HETATM   22  C20 UNL     1     -81.874 -62.573  46.686  1.00  0.00     0.260 C 
HETATM   23  C21 UNL     1     -82.417 -63.561  45.717  1.00  0.00     0.126 C 
HETATM   24  O5  UNL     1     -82.597 -61.685  47.232  1.00  0.00    -0.265 OA
ENDBRANCH  21  22
ENDBRANCH   6  21
BRANCH   1  25
HETATM   25  O2  UNL     1     -78.895 -64.071  45.336  1.00  0.00    -0.276 OA
BRANCH  25  26
HETATM   26  C2  UNL     1     -78.797 -64.959  44.302  1.00  0.00     0.260 C 
HETATM   27  C1  UNL     1     -80.007 -65.705  43.873  1.00  0.00     0.126 C 
HETATM   28  O1  UNL     1     -77.678 -65.108  43.751  1.00  0.00    -0.265 OA
ENDBRANCH  25  26
ENDBRANCH   1  25
TORSDOF 9
ENDMDL
