MODEL 6
REMARK VINA RESULT: -7.665316945      3.204     10.194
REMARK  9 active torsions:
REMARK  status: ('A' for Active; 'I' for Inactive)
REMARK    1  A    between atoms: C2_2  and  O2_4 
REMARK    2  A    between atoms: O2_4  and  C3_5 
REMARK    3  A    between atoms: C6_8  and  C7_9 
REMARK    4  A    between atoms: C8_10  and  C9_11 
REMARK       I    between atoms: C9_11  and  N1_13 
REMARK    5  A    between atoms: N1_13  and  C10_15 
REMARK    6  A    between atoms: C10_15  and  C11_16 
REMARK    7  A    between atoms: C11_16  and  C12_17 
REMARK    8  A    between atoms: C19_24  and  O4_25 
REMARK    9  A    between atoms: O4_25  and  C20_26 
ROOT
HETATM    1  C3  UNL     1     -77.347 -66.008  52.983  1.00  0.00     0.113 A 
HETATM    2  C4  UNL     1     -76.736 -65.913  51.741  1.00  0.00     0.041 A 
HETATM    3  C5  UNL     1     -77.405 -65.322  50.688  1.00  0.00     0.014 A 
HETATM    4  C6  UNL     1     -78.685 -64.818  50.842  1.00  0.00    -0.033 A 
HETATM    5  C18 UNL     1     -79.278 -64.918  52.075  1.00  0.00     0.051 A 
HETATM    6  C19 UNL     1     -78.616 -65.512  53.152  1.00  0.00     0.113 A 
ENDROOT
BRANCH   4   7
HETATM    7  C7  UNL     1     -79.338 -64.210  49.704  1.00  0.00     0.017 C 
HETATM    8  C8  UNL     1     -78.686 -63.668  48.705  1.00  0.00     0.075 C 
BRANCH   8   9
HETATM    9  C9  UNL     1     -79.374 -63.064  47.573  1.00  0.00     0.241 C 
HETATM   10  O3  UNL     1     -78.649 -62.456  46.706  1.00  0.00    -0.269 OA
HETATM   11  N1  UNL     1     -80.765 -63.099  47.365  1.00  0.00    -0.357 N 
ATOM     12  H1  UNL     1     -81.356 -63.579  48.043  1.00  0.00     0.162 HD
BRANCH  11  13
HETATM   13  C10 UNL     1     -81.375 -62.481  46.226  1.00  0.00     0.127 C 
BRANCH  13  14
HETATM   14  C11 UNL     1     -82.477 -63.287  45.589  1.00  0.00     0.058 C 
BRANCH  14  15
HETATM   15  C12 UNL     1     -83.745 -62.515  45.825  1.00  0.00    -0.057 A 
HETATM   16  C13 UNL     1     -84.741 -62.495  44.874  1.00  0.00     0.007 A 
HETATM   17  C14 UNL     1     -85.924 -61.778  45.090  1.00  0.00     0.001 A 
HETATM   18  C15 UNL     1     -86.126 -61.073  46.257  1.00  0.00     0.000 A 
HETATM   19  C16 UNL     1     -85.125 -61.099  47.203  1.00  0.00     0.001 A 
HETATM   20  C17 UNL     1     -83.941 -61.813  46.995  1.00  0.00     0.007 A 
ENDBRANCH  14  15
ENDBRANCH  13  14
ENDBRANCH  11  13
ENDBRANCH   8   9
ENDBRANCH   4   7
BRANCH   6  21
HETATM   21  O4  UNL     1     -79.247 -65.594  54.375  1.00  0.00    -0.276 OA
BRANCH  21  22
HETATM   22  C20 UNL     1     -78.993 -64.709  55.431  1.00  0.00     0.260 C 
HETATM   23  C21 UNL     1     -78.226 -65.111  56.638  1.00  0.00     0.126 C 
HETATM   24  O5  UNL     1     -79.466 -63.542  55.279  1.00  0.00    -0.265 OA
ENDBRANCH  21  22
ENDBRANCH   6  21
BRANCH   1  25
HETATM   25  O2  UNL     1     -76.643 -66.603  54.002  1.00  0.00    -0.276 OA
BRANCH  25  26
HETATM   26  C2  UNL     1     -75.372 -66.278  54.386  1.00  0.00     0.260 C 
HETATM   27  C1  UNL     1     -74.288 -67.280  54.214  1.00  0.00     0.126 C 
HETATM   28  O1  UNL     1     -75.170 -65.137  54.870  1.00  0.00    -0.265 OA
ENDBRANCH  25  26
ENDBRANCH   1  25
TORSDOF 9
ENDMDL
