MODEL 7
REMARK VINA RESULT: -7.628615887      3.203      9.983
REMARK  9 active torsions:
REMARK  status: ('A' for Active; 'I' for Inactive)
REMARK    1  A    between atoms: C2_2  and  O2_4 
REMARK    2  A    between atoms: O2_4  and  C3_5 
REMARK    3  A    between atoms: C6_8  and  C7_9 
REMARK    4  A    between atoms: C8_10  and  C9_11 
REMARK       I    between atoms: C9_11  and  N1_13 
REMARK    5  A    between atoms: N1_13  and  C10_15 
REMARK    6  A    between atoms: C10_15  and  C11_16 
REMARK    7  A    between atoms: C11_16  and  C12_17 
REMARK    8  A    between atoms: C19_24  and  O4_25 
REMARK    9  A    between atoms: O4_25  and  C20_26 
ROOT
HETATM    1  C3  UNL     1     -77.902 -65.917  54.360  1.00  0.00     0.113 A 
HETATM    2  C4  UNL     1     -79.077 -65.192  54.222  1.00  0.00     0.041 A 
HETATM    3  C5  UNL     1     -79.503 -64.803  52.968  1.00  0.00     0.014 A 
HETATM    4  C6  UNL     1     -78.779 -65.123  51.832  1.00  0.00    -0.033 A 
HETATM    5  C18 UNL     1     -77.619 -65.839  51.981  1.00  0.00     0.051 A 
HETATM    6  C19 UNL     1     -77.173 -66.242  53.243  1.00  0.00     0.113 A 
ENDROOT
BRANCH   4   7
HETATM    7  C7  UNL     1     -79.274 -64.689  50.544  1.00  0.00     0.017 C 
HETATM    8  C8  UNL     1     -78.520 -64.115  49.640  1.00  0.00     0.075 C 
BRANCH   8   9
HETATM    9  C9  UNL     1     -79.050 -63.690  48.352  1.00  0.00     0.241 C 
HETATM   10  O3  UNL     1     -78.334 -63.940  47.315  1.00  0.00    -0.269 OA
HETATM   11  N1  UNL     1     -80.279 -63.031  48.165  1.00  0.00    -0.357 N 
ATOM     12  H1  UNL     1     -80.860 -62.826  48.977  1.00  0.00     0.162 HD
BRANCH  11  13
HETATM   13  C10 UNL     1     -80.737 -62.641  46.866  1.00  0.00     0.127 C 
BRANCH  13  14
HETATM   14  C11 UNL     1     -81.686 -63.614  46.215  1.00  0.00     0.058 C 
BRANCH  14  15
HETATM   15  C12 UNL     1     -82.978 -62.871  46.028  1.00  0.00    -0.057 A 
HETATM   16  C13 UNL     1     -83.259 -61.752  46.782  1.00  0.00     0.007 A 
HETATM   17  C14 UNL     1     -84.461 -61.056  46.611  1.00  0.00     0.001 A 
HETATM   18  C15 UNL     1     -85.396 -61.467  45.686  1.00  0.00     0.000 A 
HETATM   19  C16 UNL     1     -85.107 -62.586  44.936  1.00  0.00     0.001 A 
HETATM   20  C17 UNL     1     -83.909 -63.287  45.102  1.00  0.00     0.007 A 
ENDBRANCH  14  15
ENDBRANCH  13  14
ENDBRANCH  11  13
ENDBRANCH   8   9
ENDBRANCH   4   7
BRANCH   6  21
HETATM   21  O4  UNL     1     -76.001 -66.961  53.350  1.00  0.00    -0.276 OA
BRANCH  21  22
HETATM   22  C20 UNL     1     -74.746 -66.362  53.519  1.00  0.00     0.260 C 
HETATM   23  C21 UNL     1     -74.076 -66.279  54.843  1.00  0.00     0.126 C 
HETATM   24  O5  UNL     1     -74.225 -65.899  52.460  1.00  0.00    -0.265 OA
ENDBRANCH  21  22
ENDBRANCH   6  21
BRANCH   1  25
HETATM   25  O2  UNL     1     -77.516 -66.283  55.626  1.00  0.00    -0.276 OA
BRANCH  25  26
HETATM   26  C2  UNL     1     -77.359 -65.434  56.686  1.00  0.00     0.260 C 
HETATM   27  C1  UNL     1     -78.271 -65.559  57.852  1.00  0.00     0.126 C 
HETATM   28  O1  UNL     1     -76.441 -64.578  56.631  1.00  0.00    -0.265 OA
ENDBRANCH  25  26
ENDBRANCH   1  25
TORSDOF 9
ENDMDL
