MODEL 8
REMARK VINA RESULT: -7.580252374      1.285      2.541
REMARK  9 active torsions:
REMARK  status: ('A' for Active; 'I' for Inactive)
REMARK    1  A    between atoms: C2_2  and  O2_4 
REMARK    2  A    between atoms: O2_4  and  C3_5 
REMARK    3  A    between atoms: C6_8  and  C7_9 
REMARK    4  A    between atoms: C8_10  and  C9_11 
REMARK       I    between atoms: C9_11  and  N1_13 
REMARK    5  A    between atoms: N1_13  and  C10_15 
REMARK    6  A    between atoms: C10_15  and  C11_16 
REMARK    7  A    between atoms: C11_16  and  C12_17 
REMARK    8  A    between atoms: C19_24  and  O4_25 
REMARK    9  A    between atoms: O4_25  and  C20_26 
ROOT
HETATM    1  C3  UNL     1     -79.169 -64.919  46.501  1.00  0.00     0.113 A 
HETATM    2  C4  UNL     1     -78.094 -65.437  47.209  1.00  0.00     0.041 A 
HETATM    3  C5  UNL     1     -78.233 -65.740  48.548  1.00  0.00     0.014 A 
HETATM    4  C6  UNL     1     -79.432 -65.536  49.210  1.00  0.00    -0.033 A 
HETATM    5  C18 UNL     1     -80.487 -65.023  48.500  1.00  0.00     0.051 A 
HETATM    6  C19 UNL     1     -80.364 -64.712  47.143  1.00  0.00     0.113 A 
ENDROOT
BRANCH   4   7
HETATM    7  C7  UNL     1     -79.519 -65.871  50.615  1.00  0.00     0.017 C 
HETATM    8  C8  UNL     1     -79.700 -64.980  51.557  1.00  0.00     0.075 C 
BRANCH   8   9
HETATM    9  C9  UNL     1     -79.785 -65.351  52.962  1.00  0.00     0.241 C 
HETATM   10  O3  UNL     1     -80.864 -65.928  53.350  1.00  0.00    -0.269 OA
HETATM   11  N1  UNL     1     -78.776 -65.123  53.917  1.00  0.00    -0.357 N 
ATOM     12  H1  UNL     1     -77.912 -64.666  53.625  1.00  0.00     0.162 HD
BRANCH  11  13
HETATM   13  C10 UNL     1     -78.929 -65.514  55.285  1.00  0.00     0.127 C 
BRANCH  13  14
HETATM   14  C11 UNL     1     -78.083 -64.734  56.259  1.00  0.00     0.058 C 
BRANCH  14  15
HETATM   15  C12 UNL     1     -76.821 -65.528  56.441  1.00  0.00    -0.057 A 
HETATM   16  C13 UNL     1     -75.597 -64.983  56.118  1.00  0.00     0.007 A 
HETATM   17  C14 UNL     1     -74.418 -65.718  56.286  1.00  0.00     0.001 A 
HETATM   18  C15 UNL     1     -74.446 -67.005  56.777  1.00  0.00     0.000 A 
HETATM   19  C16 UNL     1     -75.673 -67.543  57.098  1.00  0.00     0.001 A 
HETATM   20  C17 UNL     1     -76.855 -66.814  56.933  1.00  0.00     0.007 A 
ENDBRANCH  14  15
ENDBRANCH  13  14
ENDBRANCH  11  13
ENDBRANCH   8   9
ENDBRANCH   4   7
BRANCH   6  21
HETATM   21  O4  UNL     1     -81.449 -64.198  46.465  1.00  0.00    -0.276 OA
BRANCH  21  22
HETATM   22  C20 UNL     1     -81.895 -62.879  46.618  1.00  0.00     0.260 C 
HETATM   23  C21 UNL     1     -83.076 -62.348  45.889  1.00  0.00     0.126 C 
HETATM   24  O5  UNL     1     -81.216 -62.172  47.424  1.00  0.00    -0.265 OA
ENDBRANCH  21  22
ENDBRANCH   6  21
BRANCH   1  25
HETATM   25  O2  UNL     1     -78.985 -64.634  45.170  1.00  0.00    -0.276 OA
BRANCH  25  26
HETATM   26  C2  UNL     1     -78.997 -63.384  44.616  1.00  0.00     0.260 C 
HETATM   27  C1  UNL     1     -79.725 -63.168  43.339  1.00  0.00     0.126 C 
HETATM   28  O1  UNL     1     -78.389 -62.462  45.214  1.00  0.00    -0.265 OA
ENDBRANCH  25  26
ENDBRANCH   1  25
TORSDOF 9
ENDMDL
