MODEL 2
REMARK VINA RESULT: -7.775906510      1.702      2.679
REMARK  9 active torsions:
REMARK  status: ('A' for Active; 'I' for Inactive)
REMARK    1  A    between atoms: C2_2  and  O2_4 
REMARK    2  A    between atoms: O2_4  and  C3_5 
REMARK    3  A    between atoms: C6_8  and  C7_9 
REMARK    4  A    between atoms: C8_10  and  C9_11 
REMARK       I    between atoms: C9_11  and  N1_13 
REMARK    5  A    between atoms: N1_13  and  C10_15 
REMARK    6  A    between atoms: C10_15  and  C11_16 
REMARK    7  A    between atoms: C11_16  and  C12_17 
REMARK    8  A    between atoms: C19_24  and  O4_25 
REMARK    9  A    between atoms: O4_25  and  C20_26 
ROOT
HETATM    1  C3  UNL     1     -79.326 -62.935  46.720  1.00  0.00     0.113 A 
HETATM    2  C4  UNL     1     -78.320 -62.546  47.592  1.00  0.00     0.041 A 
HETATM    3  C5  UNL     1     -78.269 -63.078  48.865  1.00  0.00     0.014 A 
HETATM    4  C6  UNL     1     -79.207 -64.000  49.296  1.00  0.00    -0.033 A 
HETATM    5  C18 UNL     1     -80.197 -64.377  48.424  1.00  0.00     0.051 A 
HETATM    6  C19 UNL     1     -80.263 -63.849  47.132  1.00  0.00     0.113 A 
ENDROOT
BRANCH   4   7
HETATM    7  C7  UNL     1     -79.104 -64.525  50.641  1.00  0.00     0.017 C 
HETATM    8  C8  UNL     1     -80.133 -64.665  51.438  1.00  0.00     0.075 C 
BRANCH   8   9
HETATM    9  C9  UNL     1     -79.995 -65.197  52.787  1.00  0.00     0.241 C 
HETATM   10  O3  UNL     1     -80.990 -65.857  53.259  1.00  0.00    -0.269 OA
HETATM   11  N1  UNL     1     -78.859 -65.039  53.602  1.00  0.00    -0.357 N 
ATOM     12  H1  UNL     1     -78.059 -64.518  53.243  1.00  0.00     0.162 HD
BRANCH  11  13
HETATM   13  C10 UNL     1     -78.793 -65.589  54.922  1.00  0.00     0.127 C 
BRANCH  13  14
HETATM   14  C11 UNL     1     -78.039 -64.746  55.918  1.00  0.00     0.058 C 
BRANCH  14  15
HETATM   15  C12 UNL     1     -76.800 -65.522  56.264  1.00  0.00    -0.057 A 
HETATM   16  C13 UNL     1     -76.892 -66.803  56.764  1.00  0.00     0.007 A 
HETATM   17  C14 UNL     1     -75.741 -67.530  57.087  1.00  0.00     0.001 A 
HETATM   18  C15 UNL     1     -74.485 -66.988  56.916  1.00  0.00     0.000 A 
HETATM   19  C16 UNL     1     -74.402 -65.707  56.416  1.00  0.00     0.001 A 
HETATM   20  C17 UNL     1     -75.548 -64.974  56.091  1.00  0.00     0.007 A 
ENDBRANCH  14  15
ENDBRANCH  13  14
ENDBRANCH  11  13
ENDBRANCH   8   9
ENDBRANCH   4   7
BRANCH   6  21
HETATM   21  O4  UNL     1     -81.274 -64.252  46.286  1.00  0.00    -0.276 OA
BRANCH  21  22
HETATM   22  C20 UNL     1     -82.282 -63.394  45.829  1.00  0.00     0.260 C 
HETATM   23  C21 UNL     1     -82.985 -63.607  44.538  1.00  0.00     0.126 C 
HETATM   24  O5  UNL     1     -82.549 -62.422  46.599  1.00  0.00    -0.265 OA
ENDBRANCH  21  22
ENDBRANCH   6  21
BRANCH   1  25
HETATM   25  O2  UNL     1     -79.337 -62.380  45.463  1.00  0.00    -0.276 OA
BRANCH  25  26
HETATM   26  C2  UNL     1     -78.764 -62.924  44.348  1.00  0.00     0.260 C 
HETATM   27  C1  UNL     1     -78.514 -62.056  43.168  1.00  0.00     0.126 C 
HETATM   28  O1  UNL     1     -78.468 -64.144  44.367  1.00  0.00    -0.265 OA
ENDBRANCH  25  26
ENDBRANCH   1  25
TORSDOF 9
ENDMDL
