MODEL 9
REMARK VINA RESULT: -9.210258800      7.968     10.588
REMARK  4 active torsions:
REMARK  status: ('A' for Active; 'I' for Inactive)
REMARK    1  A    between atoms: S1_2  and  C2_4 
REMARK    2  A    between atoms: C5_7  and  C6_8 
REMARK    3  A    between atoms: C7_11  and  C8_12 
REMARK    4  A    between atoms: C13_19  and  C14_20 
ROOT
HETATM    1  C6  UNL     1      -1.272   3.477  14.990  1.00  0.00     0.116 A 
HETATM    2  N1  UNL     1      -1.089   4.757  14.587  1.00  0.00    -0.339 N 
ATOM      3  H1  UNL     1      -1.640   5.557  14.899  1.00  0.00     0.167 HD
HETATM    4  C7  UNL     1      -0.070   4.812  13.713  1.00  0.00     0.072 A 
HETATM    5  C13 UNL     1       0.405   3.532  13.557  1.00  0.00     0.072 A 
HETATM    6  N3  UNL     1      -0.355   2.756  14.351  1.00  0.00    -0.339 N 
ATOM      7  H3  UNL     1      -0.243   1.747  14.450  1.00  0.00     0.167 HD
ENDROOT
BRANCH   1   8
HETATM    8  C5  UNL     1      -2.261   2.963  15.931  1.00  0.00     0.008 A 
HETATM    9  C4  UNL     1      -1.989   2.945  17.286  1.00  0.00     0.016 A 
HETATM   10  C3  UNL     1      -2.898   2.468  18.185  1.00  0.00     0.022 A 
HETATM   11  C2  UNL     1      -4.114   1.991  17.761  1.00  0.00     0.031 A 
HETATM   12  C21 UNL     1      -4.404   1.997  16.437  1.00  0.00     0.022 A 
HETATM   13  C20 UNL     1      -3.481   2.481  15.532  1.00  0.00     0.016 A 
BRANCH  11  14
HETATM   14  S1  UNL     1      -5.235   1.384  19.030  1.00  0.00     0.045 S 
HETATM   15  C1  UNL     1      -4.180   0.216  19.957  1.00  0.00     0.133 C 
HETATM   16  O1  UNL     1      -6.153   0.438  18.228  1.00  0.00    -0.253 OA
ENDBRANCH  11  14
ENDBRANCH   1   8
BRANCH   4  17
HETATM   17  C8  UNL     1       0.455   5.987  13.044  1.00  0.00    -0.004 A 
HETATM   18  C9  UNL     1      -0.327   7.120  12.906  1.00  0.00     0.030 A 
HETATM   19  C10 UNL     1       0.213   8.212  12.261  1.00  0.00     0.088 A 
HETATM   20  N2  UNL     1       1.457   8.238  11.760  1.00  0.00    -0.375 N 
HETATM   21  C11 UNL     1       2.230   7.151  11.883  1.00  0.00     0.088 A 
ATOM     22  H2  UNL     1       1.808   9.073  11.291  1.00  0.00     0.164 HD
HETATM   23  C12 UNL     1       1.732   6.041  12.519  1.00  0.00     0.030 A 
ENDBRANCH   4  17
BRANCH   5  24
HETATM   24  C14 UNL     1       1.498   3.072  12.716  1.00  0.00    -0.007 A 
HETATM   25  C15 UNL     1       2.744   2.770  13.249  1.00  0.00     0.017 A 
HETATM   26  C16 UNL     1       3.761   2.340  12.437  1.00  0.00     0.043 A 
HETATM   27  C17 UNL     1       3.568   2.199  11.082  1.00  0.00     0.116 A 
HETATM   28  F1  UNL     1       4.583   1.769  10.261  1.00  0.00    -0.206 F 
HETATM   29  C18 UNL     1       2.350   2.489  10.515  1.00  0.00     0.043 A 
HETATM   30  C19 UNL     1       1.337   2.920  11.339  1.00  0.00     0.017 A 
ENDBRANCH   5  24
TORSDOF 4
ENDMDL
