MODEL 1
REMARK VINA RESULT: -10.157933423      0.000      0.000
REMARK  4 active torsions:
REMARK  status: ('A' for Active; 'I' for Inactive)
REMARK    1  A    between atoms: S1_2  and  C2_4 
REMARK    2  A    between atoms: C5_7  and  C6_8 
REMARK    3  A    between atoms: C7_11  and  C8_12 
REMARK    4  A    between atoms: C13_19  and  C14_20 
ROOT
HETATM    1  C6  UNL     1      -3.037   4.215  21.947  1.00  0.00     0.116 A 
HETATM    2  N1  UNL     1      -2.863   3.045  22.607  1.00  0.00    -0.339 N 
ATOM      3  H1  UNL     1      -2.411   2.944  23.516  1.00  0.00     0.167 HD
HETATM    4  C7  UNL     1      -3.377   2.039  21.881  1.00  0.00     0.072 A 
HETATM    5  C13 UNL     1      -3.890   2.586  20.729  1.00  0.00     0.072 A 
HETATM    6  N3  UNL     1      -3.661   3.908  20.813  1.00  0.00    -0.339 N 
ATOM      7  H3  UNL     1      -3.930   4.587  20.101  1.00  0.00     0.167 HD
ENDROOT
BRANCH   1   8
HETATM    8  C5  UNL     1      -2.636   5.553  22.367  1.00  0.00     0.008 A 
HETATM    9  C4  UNL     1      -2.785   6.626  21.509  1.00  0.00     0.016 A 
HETATM   10  C3  UNL     1      -2.416   7.886  21.879  1.00  0.00     0.022 A 
HETATM   11  C2  UNL     1      -1.884   8.120  23.123  1.00  0.00     0.031 A 
HETATM   12  C21 UNL     1      -1.728   7.085  23.983  1.00  0.00     0.022 A 
HETATM   13  C20 UNL     1      -2.103   5.811  23.604  1.00  0.00     0.016 A 
BRANCH  11  14
HETATM   14  S1  UNL     1      -1.431   9.818  23.507  1.00  0.00     0.045 S 
HETATM   15  C1  UNL     1       0.109  10.037  22.548  1.00  0.00     0.133 C 
HETATM   16  O1  UNL     1      -0.906   9.697  24.953  1.00  0.00    -0.253 OA
ENDBRANCH  11  14
ENDBRANCH   1   8
BRANCH   4  17
HETATM   17  C8  UNL     1      -3.402   0.630  22.223  1.00  0.00    -0.004 A 
HETATM   18  C9  UNL     1      -3.997   0.206  23.397  1.00  0.00     0.030 A 
HETATM   19  C10 UNL     1      -3.995  -1.143  23.681  1.00  0.00     0.088 A 
HETATM   20  N2  UNL     1      -3.448  -2.070  22.881  1.00  0.00    -0.375 N 
HETATM   21  C11 UNL     1      -2.867  -1.680  21.739  1.00  0.00     0.088 A 
ATOM     22  H2  UNL     1      -3.473  -3.056  23.138  1.00  0.00     0.164 HD
HETATM   23  C12 UNL     1      -2.846  -0.346  21.416  1.00  0.00     0.030 A 
ENDBRANCH   4  17
BRANCH   5  24
HETATM   24  C14 UNL     1      -4.549   1.907  19.625  1.00  0.00    -0.007 A 
HETATM   25  C15 UNL     1      -5.740   1.216  19.807  1.00  0.00     0.017 A 
HETATM   26  C16 UNL     1      -6.343   0.581  18.752  1.00  0.00     0.043 A 
HETATM   27  C17 UNL     1      -5.782   0.616  17.496  1.00  0.00     0.116 A 
HETATM   28  F1  UNL     1      -6.380  -0.017  16.433  1.00  0.00    -0.206 F 
HETATM   29  C18 UNL     1      -4.603   1.289  17.275  1.00  0.00     0.043 A 
HETATM   30  C19 UNL     1      -4.007   1.921  18.340  1.00  0.00     0.017 A 
ENDBRANCH   5  24
TORSDOF 4
ENDMDL
