MODEL 10
REMARK VINA RESULT: -9.185797059      7.906     10.318
REMARK  4 active torsions:
REMARK  status: ('A' for Active; 'I' for Inactive)
REMARK    1  A    between atoms: S1_2  and  C2_4 
REMARK    2  A    between atoms: C5_7  and  C6_8 
REMARK    3  A    between atoms: C7_11  and  C8_12 
REMARK    4  A    between atoms: C13_19  and  C14_20 
ROOT
HETATM    1  C6  UNL     1      -1.440   3.431  15.103  1.00  0.00     0.116 A 
HETATM    2  N1  UNL     1      -0.499   2.752  14.405  1.00  0.00    -0.339 N 
ATOM      3  H1  UNL     1      -0.323   1.750  14.474  1.00  0.00     0.167 HD
HETATM    4  C7  UNL     1       0.168   3.602  13.606  1.00  0.00     0.072 A 
HETATM    5  C13 UNL     1      -0.364   4.853  13.805  1.00  0.00     0.072 A 
HETATM    6  N3  UNL     1      -1.337   4.701  14.721  1.00  0.00    -0.339 N 
ATOM      7  H3  UNL     1      -1.919   5.459  15.077  1.00  0.00     0.167 HD
ENDROOT
BRANCH   1   8
HETATM    8  C5  UNL     1      -2.389   2.906  16.079  1.00  0.00     0.008 A 
HETATM    9  C4  UNL     1      -2.083   2.924  17.426  1.00  0.00     0.016 A 
HETATM   10  C3  UNL     1      -2.953   2.438  18.358  1.00  0.00     0.022 A 
HETATM   11  C2  UNL     1      -4.164   1.915  17.975  1.00  0.00     0.031 A 
HETATM   12  C21 UNL     1      -4.487   1.886  16.659  1.00  0.00     0.022 A 
HETATM   13  C20 UNL     1      -3.603   2.380  15.721  1.00  0.00     0.016 A 
BRANCH  11  14
HETATM   14  S1  UNL     1      -5.234   1.301  19.284  1.00  0.00     0.045 S 
HETATM   15  C1  UNL     1      -4.136   0.143  20.174  1.00  0.00     0.133 C 
HETATM   16  O1  UNL     1      -6.171   0.345  18.517  1.00  0.00    -0.253 OA
ENDBRANCH  11  14
ENDBRANCH   1   8
BRANCH   4  17
HETATM   17  C8  UNL     1       1.251   3.288  12.694  1.00  0.00    -0.004 A 
HETATM   18  C9  UNL     1       0.983   2.735  11.455  1.00  0.00     0.030 A 
HETATM   19  C10 UNL     1       2.044   2.450  10.622  1.00  0.00     0.088 A 
HETATM   20  N2  UNL     1       3.325   2.680  10.947  1.00  0.00    -0.375 N 
HETATM   21  C11 UNL     1       3.606   3.214  12.143  1.00  0.00     0.088 A 
ATOM     22  H2  UNL     1       4.073   2.451  10.293  1.00  0.00     0.164 HD
HETATM   23  C12 UNL     1       2.579   3.514  13.003  1.00  0.00     0.030 A 
ENDBRANCH   4  17
BRANCH   5  24
HETATM   24  C14 UNL     1       0.020   6.107  13.175  1.00  0.00    -0.007 A 
HETATM   25  C15 UNL     1      -0.005   6.260  11.795  1.00  0.00     0.017 A 
HETATM   26  C16 UNL     1       0.364   7.450  11.222  1.00  0.00     0.043 A 
HETATM   27  C17 UNL     1       0.763   8.512  12.001  1.00  0.00     0.116 A 
HETATM   28  F1  UNL     1       1.134   9.708  11.434  1.00  0.00    -0.206 F 
HETATM   29  C18 UNL     1       0.801   8.400  13.370  1.00  0.00     0.043 A 
HETATM   30  C19 UNL     1       0.430   7.202  13.934  1.00  0.00     0.017 A 
ENDBRANCH   5  24
TORSDOF 4
ENDMDL
