MODEL 2
REMARK VINA RESULT: -10.147492914      0.404      1.337
REMARK  4 active torsions:
REMARK  status: ('A' for Active; 'I' for Inactive)
REMARK    1  A    between atoms: S1_2  and  C2_4 
REMARK    2  A    between atoms: C5_7  and  C6_8 
REMARK    3  A    between atoms: C7_11  and  C8_12 
REMARK    4  A    between atoms: C13_19  and  C14_20 
ROOT
HETATM    1  C6  UNL     1      -3.078   4.266  21.872  1.00  0.00     0.116 A 
HETATM    2  N1  UNL     1      -2.895   3.104  22.544  1.00  0.00    -0.339 N 
ATOM      3  H1  UNL     1      -2.444   3.015  23.454  1.00  0.00     0.167 HD
HETATM    4  C7  UNL     1      -3.400   2.087  21.826  1.00  0.00     0.072 A 
HETATM    5  C13 UNL     1      -3.915   2.618  20.668  1.00  0.00     0.072 A 
HETATM    6  N3  UNL     1      -3.697   3.943  20.740  1.00  0.00    -0.339 N 
ATOM      7  H3  UNL     1      -3.970   4.613  20.021  1.00  0.00     0.167 HD
ENDROOT
BRANCH   1   8
HETATM    8  C5  UNL     1      -2.689   5.611  22.280  1.00  0.00     0.008 A 
HETATM    9  C4  UNL     1      -2.173   5.833  23.543  1.00  0.00     0.016 A 
HETATM   10  C3  UNL     1      -1.803   7.083  23.948  1.00  0.00     0.022 A 
HETATM   11  C2  UNL     1      -1.936   8.157  23.103  1.00  0.00     0.031 A 
HETATM   12  C21 UNL     1      -2.439   7.966  21.860  1.00  0.00     0.022 A 
HETATM   13  C20 UNL     1      -2.811   6.699  21.455  1.00  0.00     0.016 A 
BRANCH  11  14
HETATM   14  S1  UNL     1      -1.419   9.759  23.739  1.00  0.00     0.045 S 
HETATM   15  C1  UNL     1      -1.269  10.755  22.215  1.00  0.00     0.133 C 
HETATM   16  O1  UNL     1       0.056   9.501  24.112  1.00  0.00    -0.253 OA
ENDBRANCH  11  14
ENDBRANCH   1   8
BRANCH   4  17
HETATM   17  C8  UNL     1      -3.414   0.680  22.181  1.00  0.00    -0.004 A 
HETATM   18  C9  UNL     1      -2.807  -0.254  21.362  1.00  0.00     0.030 A 
HETATM   19  C10 UNL     1      -2.848  -1.579  21.739  1.00  0.00     0.088 A 
HETATM   20  N2  UNL     1      -3.445  -2.015  22.858  1.00  0.00    -0.375 N 
HETATM   21  C11 UNL     1      -4.039  -1.125  23.665  1.00  0.00     0.088 A 
ATOM     22  H2  UNL     1      -3.446  -3.007  23.091  1.00  0.00     0.164 HD
HETATM   23  C12 UNL     1      -4.022   0.205  23.328  1.00  0.00     0.030 A 
ENDBRANCH   4  17
BRANCH   5  24
HETATM   24  C14 UNL     1      -4.567   1.924  19.569  1.00  0.00    -0.007 A 
HETATM   25  C15 UNL     1      -5.750   1.221  19.757  1.00  0.00     0.017 A 
HETATM   26  C16 UNL     1      -6.345   0.571  18.707  1.00  0.00     0.043 A 
HETATM   27  C17 UNL     1      -5.785   0.603  17.450  1.00  0.00     0.116 A 
HETATM   28  F1  UNL     1      -6.376  -0.045  16.393  1.00  0.00    -0.206 F 
HETATM   29  C18 UNL     1      -4.614   1.288  17.224  1.00  0.00     0.043 A 
HETATM   30  C19 UNL     1      -4.025   1.935  18.284  1.00  0.00     0.017 A 
ENDBRANCH   5  24
TORSDOF 4
ENDMDL
