MODEL 3
REMARK VINA RESULT: -10.134874843      0.394      1.347
REMARK  4 active torsions:
REMARK  status: ('A' for Active; 'I' for Inactive)
REMARK    1  A    between atoms: S1_2  and  C2_4 
REMARK    2  A    between atoms: C5_7  and  C6_8 
REMARK    3  A    between atoms: C7_11  and  C8_12 
REMARK    4  A    between atoms: C13_19  and  C14_20 
ROOT
HETATM    1  C6  UNL     1      -3.055   4.280  21.903  1.00  0.00     0.116 A 
HETATM    2  N1  UNL     1      -2.885   3.119  22.579  1.00  0.00    -0.339 N 
ATOM      3  H1  UNL     1      -2.446   3.030  23.496  1.00  0.00     0.167 HD
HETATM    4  C7  UNL     1      -3.383   2.102  21.856  1.00  0.00     0.072 A 
HETATM    5  C13 UNL     1      -3.881   2.633  20.691  1.00  0.00     0.072 A 
HETATM    6  N3  UNL     1      -3.659   3.957  20.763  1.00  0.00    -0.339 N 
ATOM      7  H3  UNL     1      -3.920   4.626  20.039  1.00  0.00     0.167 HD
ENDROOT
BRANCH   1   8
HETATM    8  C5  UNL     1      -2.667   5.625  22.314  1.00  0.00     0.008 A 
HETATM    9  C4  UNL     1      -2.160   5.847  23.580  1.00  0.00     0.016 A 
HETATM   10  C3  UNL     1      -1.792   7.096  23.988  1.00  0.00     0.022 A 
HETATM   11  C2  UNL     1      -1.917   8.170  23.142  1.00  0.00     0.031 A 
HETATM   12  C21 UNL     1      -2.411   7.979  21.895  1.00  0.00     0.022 A 
HETATM   13  C20 UNL     1      -2.782   6.713  21.488  1.00  0.00     0.016 A 
BRANCH  11  14
HETATM   14  S1  UNL     1      -1.403   9.771  23.782  1.00  0.00     0.045 S 
HETATM   15  C1  UNL     1      -1.230  10.764  22.257  1.00  0.00     0.133 C 
HETATM   16  O1  UNL     1       0.066   9.509  24.174  1.00  0.00    -0.253 OA
ENDBRANCH  11  14
ENDBRANCH   1   8
BRANCH   4  17
HETATM   17  C8  UNL     1      -3.406   0.696  22.214  1.00  0.00    -0.004 A 
HETATM   18  C9  UNL     1      -4.022   0.282  23.381  1.00  0.00     0.030 A 
HETATM   19  C10 UNL     1      -4.018  -1.064  23.681  1.00  0.00     0.088 A 
HETATM   20  N2  UNL     1      -3.449  -1.996  22.902  1.00  0.00    -0.375 N 
HETATM   21  C11 UNL     1      -2.847  -1.615  21.768  1.00  0.00     0.088 A 
ATOM     22  H2  UNL     1      -3.474  -2.979  23.171  1.00  0.00     0.164 HD
HETATM   23  C12 UNL     1      -2.828  -0.285  21.430  1.00  0.00     0.030 A 
ENDBRANCH   4  17
BRANCH   5  24
HETATM   24  C14 UNL     1      -4.519   1.938  19.584  1.00  0.00    -0.007 A 
HETATM   25  C15 UNL     1      -3.962   1.938  18.312  1.00  0.00     0.017 A 
HETATM   26  C16 UNL     1      -4.582   1.279  17.282  1.00  0.00     0.043 A 
HETATM   27  C17 UNL     1      -5.764   0.604  17.489  1.00  0.00     0.116 A 
HETATM   28  F1  UNL     1      -6.392  -0.059  16.462  1.00  0.00    -0.206 F 
HETATM   29  C18 UNL     1      -6.347   0.581  18.734  1.00  0.00     0.043 A 
HETATM   30  C19 UNL     1      -5.718   1.246  19.758  1.00  0.00     0.017 A 
ENDBRANCH   5  24
TORSDOF 4
ENDMDL
