MODEL 8
REMARK VINA RESULT: -9.375134500      1.010      1.718
REMARK  4 active torsions:
REMARK  status: ('A' for Active; 'I' for Inactive)
REMARK    1  A    between atoms: S1_2  and  C2_4 
REMARK    2  A    between atoms: C5_7  and  C6_8 
REMARK    3  A    between atoms: C7_11  and  C8_12 
REMARK    4  A    between atoms: C13_19  and  C14_20 
ROOT
HETATM    1  C6  UNL     1      -2.810   4.156  22.643  1.00  0.00     0.116 A 
HETATM    2  N1  UNL     1      -2.673   2.957  23.259  1.00  0.00    -0.339 N 
ATOM      3  H1  UNL     1      -2.258   2.812  24.180  1.00  0.00     0.167 HD
HETATM    4  C7  UNL     1      -3.167   1.989  22.470  1.00  0.00     0.072 A 
HETATM    5  C13 UNL     1      -3.629   2.589  21.324  1.00  0.00     0.072 A 
HETATM    6  N3  UNL     1      -3.390   3.905  21.474  1.00  0.00    -0.339 N 
ATOM      7  H3  UNL     1      -3.624   4.616  20.781  1.00  0.00     0.167 HD
ENDROOT
BRANCH   1   8
HETATM    8  C5  UNL     1      -2.413   5.470  23.136  1.00  0.00     0.008 A 
HETATM    9  C4  UNL     1      -1.993   5.626  24.444  1.00  0.00     0.016 A 
HETATM   10  C3  UNL     1      -1.619   6.845  24.928  1.00  0.00     0.022 A 
HETATM   11  C2  UNL     1      -1.650   7.956  24.120  1.00  0.00     0.031 A 
HETATM   12  C21 UNL     1      -2.058   7.829  22.834  1.00  0.00     0.022 A 
HETATM   13  C20 UNL     1      -2.436   6.593  22.350  1.00  0.00     0.016 A 
BRANCH  11  14
HETATM   14  S1  UNL     1      -1.137   9.513  24.861  1.00  0.00     0.045 S 
HETATM   15  C1  UNL     1      -1.848   9.399  26.540  1.00  0.00     0.133 C 
HETATM   16  O1  UNL     1      -2.075  10.526  24.172  1.00  0.00    -0.253 OA
ENDBRANCH  11  14
ENDBRANCH   1   8
BRANCH   4  17
HETATM   17  C8  UNL     1      -3.219   0.566  22.750  1.00  0.00    -0.004 A 
HETATM   18  C9  UNL     1      -2.360  -0.305  22.106  1.00  0.00     0.030 A 
HETATM   19  C10 UNL     1      -2.448  -1.649  22.402  1.00  0.00     0.088 A 
HETATM   20  N2  UNL     1      -3.321  -2.160  23.282  1.00  0.00    -0.375 N 
HETATM   21  C11 UNL     1      -4.162  -1.332  23.917  1.00  0.00     0.088 A 
ATOM     22  H2  UNL     1      -3.345  -3.162  23.465  1.00  0.00     0.164 HD
HETATM   23  C12 UNL     1      -4.109   0.014  23.652  1.00  0.00     0.030 A 
ENDBRANCH   4  17
BRANCH   5  24
HETATM   24  C14 UNL     1      -4.249   1.965  20.166  1.00  0.00    -0.007 A 
HETATM   25  C15 UNL     1      -5.473   1.315  20.263  1.00  0.00     0.017 A 
HETATM   26  C16 UNL     1      -6.038   0.732  19.159  1.00  0.00     0.043 A 
HETATM   27  C17 UNL     1      -5.408   0.780  17.937  1.00  0.00     0.116 A 
HETATM   28  F1  UNL     1      -5.968   0.197  16.826  1.00  0.00    -0.206 F 
HETATM   29  C18 UNL     1      -4.196   1.413  17.800  1.00  0.00     0.043 A 
HETATM   30  C19 UNL     1      -3.637   1.994  18.913  1.00  0.00     0.017 A 
ENDBRANCH   5  24
TORSDOF 4
ENDMDL
