MODEL 12
REMARK VINA RESULT: -8.585490433      5.115      7.622
REMARK  4 active torsions:
REMARK  status: ('A' for Active; 'I' for Inactive)
REMARK    1  A    between atoms: S1_2  and  C2_4 
REMARK    2  A    between atoms: C5_7  and  C6_8 
REMARK    3  A    between atoms: C7_11  and  C8_12 
REMARK    4  A    between atoms: C13_19  and  C14_20 
ROOT
HETATM    1  C6  UNL     1      -3.419   1.374  21.827  1.00  0.00     0.116 A 
HETATM    2  N1  UNL     1      -2.900   0.302  22.471  1.00  0.00    -0.339 N 
ATOM      3  H1  UNL     1      -2.850  -0.644  22.094  1.00  0.00     0.167 HD
HETATM    4  C7  UNL     1      -2.460   0.677  23.684  1.00  0.00     0.072 A 
HETATM    5  C13 UNL     1      -2.708   2.023  23.812  1.00  0.00     0.072 A 
HETATM    6  N3  UNL     1      -3.291   2.402  22.661  1.00  0.00    -0.339 N 
ATOM      7  H3  UNL     1      -3.595   3.354  22.455  1.00  0.00     0.167 HD
ENDROOT
BRANCH   1   8
HETATM    8  C5  UNL     1      -4.005   1.424  20.492  1.00  0.00     0.008 A 
HETATM    9  C4  UNL     1      -3.351   2.085  19.470  1.00  0.00     0.016 A 
HETATM   10  C3  UNL     1      -3.880   2.147  18.213  1.00  0.00     0.022 A 
HETATM   11  C2  UNL     1      -5.083   1.548  17.933  1.00  0.00     0.031 A 
HETATM   12  C21 UNL     1      -5.744   0.893  18.919  1.00  0.00     0.022 A 
HETATM   13  C20 UNL     1      -5.205   0.834  20.188  1.00  0.00     0.016 A 
BRANCH  11  14
HETATM   14  S1  UNL     1      -5.689   1.691  16.245  1.00  0.00     0.045 S 
HETATM   15  C1  UNL     1      -5.569  -0.029  15.640  1.00  0.00     0.133 C 
HETATM   16  O1  UNL     1      -4.504   2.376  15.532  1.00  0.00    -0.253 OA
ENDBRANCH  11  14
ENDBRANCH   1   8
BRANCH   4  17
HETATM   17  C8  UNL     1      -1.834  -0.159  24.691  1.00  0.00    -0.004 A 
HETATM   18  C9  UNL     1      -0.568  -0.675  24.482  1.00  0.00     0.030 A 
HETATM   19  C10 UNL     1      -0.014  -1.467  25.467  1.00  0.00     0.088 A 
HETATM   20  N2  UNL     1      -0.636  -1.764  26.617  1.00  0.00    -0.375 N 
HETATM   21  C11 UNL     1      -1.863  -1.274  26.838  1.00  0.00     0.088 A 
ATOM     22  H2  UNL     1      -0.181  -2.355  27.313  1.00  0.00     0.164 HD
HETATM   23  C12 UNL     1      -2.451  -0.481  25.885  1.00  0.00     0.030 A 
ENDBRANCH   4  17
BRANCH   5  24
HETATM   24  C14 UNL     1      -2.417   2.889  24.943  1.00  0.00    -0.007 A 
HETATM   25  C15 UNL     1      -3.425   3.350  25.780  1.00  0.00     0.017 A 
HETATM   26  C16 UNL     1      -3.128   4.168  26.838  1.00  0.00     0.043 A 
HETATM   27  C17 UNL     1      -1.830   4.548  27.093  1.00  0.00     0.116 A 
HETATM   28  F1  UNL     1      -1.524   5.368  28.152  1.00  0.00    -0.206 F 
HETATM   29  C18 UNL     1      -0.804   4.113  26.288  1.00  0.00     0.043 A 
HETATM   30  C19 UNL     1      -1.113   3.294  25.228  1.00  0.00     0.017 A 
ENDBRANCH   5  24
TORSDOF 4
ENDMDL
