MODEL 6
REMARK VINA RESULT: -6.473033980      4.504      7.278
REMARK  5 active torsions:
REMARK  status: ('A' for Active; 'I' for Inactive)
REMARK    1  A    between atoms: C2_2  and  C3_3 
REMARK    2  A    between atoms: C2_2  and  C4_5 
REMARK       I    between atoms: C4_5  and  N1_7 
REMARK    3  A    between atoms: C6_9  and  S2_10 
REMARK    4  A    between atoms: S2_10  and  C7_11 
REMARK    5  A    between atoms: C14_18  and  C15_19 
ROOT
HETATM    1  C4  UNL     1      68.905  53.179  23.912  1.00  0.00     0.225 C 
HETATM    2  O1  UNL     1      69.982  53.356  24.582  1.00  0.00    -0.273 OA
HETATM    3  N1  UNL     1      69.024  52.988  22.517  1.00  0.00    -0.336 N 
HETATM    4  C5  UNL     1      67.971  52.791  21.539  1.00  0.00     0.142 C 
HETATM    5  C6  UNL     1      68.662  51.785  20.606  1.00  0.00     0.073 C 
HETATM    6  C13 UNL     1      69.978  52.508  20.395  1.00  0.00     0.053 C 
HETATM    7  C14 UNL     1      70.311  52.952  21.800  1.00  0.00     0.189 C 
ENDROOT
BRANCH   5   8
HETATM    8  S2  UNL     1      67.728  51.597  19.074  1.00  0.00    -0.123 SA
BRANCH   8   9
HETATM    9  C7  UNL     1      65.995  51.540  19.496  1.00  0.00     0.001 A 
HETATM   10  C8  UNL     1      65.151  52.593  19.221  1.00  0.00     0.018 A 
HETATM   11  C9  UNL     1      63.799  52.543  19.553  1.00  0.00     0.001 A 
HETATM   12  C10 UNL     1      63.261  51.428  20.170  1.00  0.00     0.000 A 
HETATM   13  C11 UNL     1      64.102  50.364  20.451  1.00  0.00     0.001 A 
HETATM   14  C12 UNL     1      65.427  50.432  20.117  1.00  0.00     0.018 A 
ENDBRANCH   8   9
ENDBRANCH   5   8
BRANCH   7  15
HETATM   15  C15 UNL     1      70.988  54.252  21.853  1.00  0.00     0.197 C 
HETATM   16  O2  UNL     1      70.414  55.245  21.341  1.00  0.00    -0.646 OA
HETATM   17  O3  UNL     1      72.228  54.457  22.435  1.00  0.00    -0.646 OA
ENDBRANCH   7  15
BRANCH   1  18
HETATM   18  C2  UNL     1      67.654  53.192  24.678  1.00  0.00     0.084 C 
HETATM   19  C1  UNL     1      67.971  53.592  26.124  1.00  0.00     0.020 C 
BRANCH  18  20
HETATM   20  C3  UNL     1      66.996  51.830  24.742  1.00  0.00     0.099 C 
HETATM   21  S1  UNL     1      65.319  51.854  24.095  1.00  0.00    -0.097 SA
ENDBRANCH  18  20
ENDBRANCH   1  18
TORSDOF 5
ENDMDL
