MODEL 7
REMARK VINA RESULT: -6.466054721      4.514      7.245
REMARK  5 active torsions:
REMARK  status: ('A' for Active; 'I' for Inactive)
REMARK    1  A    between atoms: C2_2  and  C3_3 
REMARK    2  A    between atoms: C2_2  and  C4_5 
REMARK       I    between atoms: C4_5  and  N1_7 
REMARK    3  A    between atoms: C6_9  and  S2_10 
REMARK    4  A    between atoms: S2_10  and  C7_11 
REMARK    5  A    between atoms: C14_18  and  C15_19 
ROOT
HETATM    1  C4  UNL     1      68.903  53.183  23.926  1.00  0.00     0.225 C 
HETATM    2  O1  UNL     1      69.983  53.341  24.597  1.00  0.00    -0.273 OA
HETATM    3  N1  UNL     1      69.021  53.001  22.529  1.00  0.00    -0.336 N 
HETATM    4  C5  UNL     1      67.966  52.825  21.549  1.00  0.00     0.142 C 
HETATM    5  C6  UNL     1      68.645  51.819  20.608  1.00  0.00     0.073 C 
HETATM    6  C13 UNL     1      69.968  52.527  20.403  1.00  0.00     0.053 C 
HETATM    7  C14 UNL     1      70.307  52.956  21.812  1.00  0.00     0.189 C 
ENDROOT
BRANCH   5   8
HETATM    8  S2  UNL     1      67.709  51.654  19.075  1.00  0.00    -0.123 SA
BRANCH   8   9
HETATM    9  C7  UNL     1      65.979  51.552  19.501  1.00  0.00     0.001 A 
HETATM   10  C8  UNL     1      65.449  50.432  20.104  1.00  0.00     0.018 A 
HETATM   11  C9  UNL     1      64.098  50.358  20.434  1.00  0.00     0.001 A 
HETATM   12  C10 UNL     1      63.244  51.412  20.165  1.00  0.00     0.000 A 
HETATM   13  C11 UNL     1      63.767  52.542  19.559  1.00  0.00     0.001 A 
HETATM   14  C12 UNL     1      65.096  52.596  19.243  1.00  0.00     0.018 A 
ENDBRANCH   8   9
ENDBRANCH   5   8
BRANCH   7  15
HETATM   15  C15 UNL     1      70.999  54.248  21.876  1.00  0.00     0.197 C 
HETATM   16  O2  UNL     1      70.449  55.246  21.348  1.00  0.00    -0.646 OA
HETATM   17  O3  UNL     1      72.229  54.439  22.484  1.00  0.00    -0.646 OA
ENDBRANCH   7  15
BRANCH   1  18
HETATM   18  C2  UNL     1      67.653  53.204  24.692  1.00  0.00     0.084 C 
HETATM   19  C1  UNL     1      67.970  53.624  26.132  1.00  0.00     0.020 C 
BRANCH  18  20
HETATM   20  C3  UNL     1      66.997  51.841  24.775  1.00  0.00     0.099 C 
HETATM   21  S1  UNL     1      65.329  51.848  24.104  1.00  0.00    -0.097 SA
ENDBRANCH  18  20
ENDBRANCH   1  18
TORSDOF 5
ENDMDL
