MODEL 3
REMARK VINA RESULT: -9.562348338      1.273      1.873
REMARK  10 active torsions:
REMARK  status: ('A' for Active; 'I' for Inactive)
REMARK    1  A    between atoms: N5_13  and  C6_14 
REMARK    2  A    between atoms: C7_16  and  C8_17 
REMARK    3  A    between atoms: C8_17  and  O2_18 
REMARK    4  A    between atoms: O2_18  and  P1_19 
REMARK    5  A    between atoms: P1_19  and  O5_22 
REMARK    6  A    between atoms: O5_22  and  P2_23 
REMARK    7  A    between atoms: P2_23  and  N6_26 
REMARK    8  A    between atoms: N6_26  and  P3_28 
REMARK    9  A    between atoms: C9_32  and  O11_33 
REMARK   10  A    between atoms: C10_35  and  O12_36 
ROOT
HETATM    1  C6  UNL     1      22.411  26.570  -0.137  1.00  0.00     0.262 C 
HETATM    2  O1  UNL     1      21.018  26.602   0.032  1.00  0.00    -0.353 OA
HETATM    3  C7  UNL     1      20.585  25.691  -0.929  1.00  0.00     0.180 C 
HETATM    4  C9  UNL     1      21.530  24.513  -0.847  1.00  0.00     0.182 C 
HETATM    5  C10 UNL     1      22.704  25.103  -0.092  1.00  0.00     0.198 C 
ENDROOT
BRANCH   3   6
HETATM    6  C8  UNL     1      19.150  25.285  -0.760  1.00  0.00     0.216 C 
BRANCH   6   7
HETATM    7  O2  UNL     1      18.300  25.968  -1.591  1.00  0.00    -0.287 OA
BRANCH   7   8
HETATM    8  P1  UNL     1      17.496  25.121  -2.725  1.00  0.00     0.417 P 
HETATM    9  O3  UNL     1      18.212  24.765  -4.190  1.00  0.00    -0.624 OA
HETATM   10  O4  UNL     1      16.007  24.469  -2.428  1.00  0.00    -0.624 OA
BRANCH   8  11
HETATM   11  O5  UNL     1      16.885  26.368  -3.357  1.00  0.00    -0.186 OA
BRANCH  11  12
HETATM   12  P2  UNL     1      16.488  26.510  -4.952  1.00  0.00     0.379 P 
HETATM   13  O6  UNL     1      17.010  27.896  -5.782  1.00  0.00    -0.629 OA
HETATM   14  O7  UNL     1      15.816  25.327  -5.816  1.00  0.00    -0.629 OA
BRANCH  12  15
HETATM   15  N6  UNL     1      15.162  27.288  -4.502  1.00  0.00    -0.218 N 
ATOM     16  H6  UNL     1      14.295  26.752  -4.480  1.00  0.00     0.179 HD
BRANCH  15  17
HETATM   17  P3  UNL     1      15.073  28.898  -4.065  1.00  0.00     0.381 P 
HETATM   18  O8  UNL     1      14.823  29.331  -2.482  1.00  0.00    -0.622 OA
HETATM   19  O9  UNL     1      15.457  30.103  -5.186  1.00  0.00    -0.622 OA
HETATM   20  O10 UNL     1      13.595  29.187  -4.376  1.00  0.00    -0.622 OA
ENDBRANCH  15  17
ENDBRANCH  12  15
ENDBRANCH  11  12
ENDBRANCH   8  11
ENDBRANCH   7   8
ENDBRANCH   6   7
ENDBRANCH   3   6
BRANCH   4  21
HETATM   21  O11 UNL     1      22.000  24.163  -2.124  1.00  0.00    -0.390 OA
ATOM     22  H11 UNL     1      21.414  23.541  -2.539  1.00  0.00     0.210 HD
ENDBRANCH   4  21
BRANCH   1  23
HETATM   23  N5  UNL     1      23.100  27.285   0.894  1.00  0.00    -0.297 N 
HETATM   24  C3  UNL     1      23.010  27.160   2.229  1.00  0.00     0.142 A 
HETATM   25  N3  UNL     1      22.278  26.360   3.009  1.00  0.00    -0.336 N 
HETATM   26  C4  UNL     1      23.863  28.059   2.856  1.00  0.00     0.119 A 
HETATM   27  C2  UNL     1      22.374  26.435   4.351  1.00  0.00     0.183 A 
ATOM     28  H3  UNL     1      21.640  25.687   2.585  1.00  0.00     0.168 HD
HETATM   29  N2  UNL     1      23.213  27.319   4.968  1.00  0.00    -0.339 N 
HETATM   30  C1  UNL     1      23.967  28.141   4.225  1.00  0.00     0.148 A 
ATOM     31  H2  UNL     1      23.265  27.355   5.985  1.00  0.00     0.167 HD
HETATM   32  N1  UNL     1      24.829  29.050   4.874  1.00  0.00    -0.080 NA
HETATM   33  N4  UNL     1      24.467  28.728   1.850  1.00  0.00    -0.346 N 
HETATM   34  C5  UNL     1      24.002  28.256   0.669  1.00  0.00     0.188 A 
ATOM     35  H4  UNL     1      25.161  29.468   1.962  1.00  0.00     0.167 HD
ENDBRANCH   1  23
BRANCH   5  36
HETATM   36  O12 UNL     1      23.909  24.782  -0.726  1.00  0.00    -0.388 OA
ATOM     37  H12 UNL     1      24.076  23.846  -0.734  1.00  0.00     0.210 HD
ENDBRANCH   5  36
TORSDOF 10
ENDMDL
