MODEL 20
REMARK VINA RESULT: -9.075361216      6.816     12.262
REMARK  10 active torsions:
REMARK  status: ('A' for Active; 'I' for Inactive)
REMARK    1  A    between atoms: N5_13  and  C6_14 
REMARK    2  A    between atoms: C7_16  and  C8_17 
REMARK    3  A    between atoms: C8_17  and  O2_18 
REMARK    4  A    between atoms: O2_18  and  P1_19 
REMARK    5  A    between atoms: P1_19  and  O5_22 
REMARK    6  A    between atoms: O5_22  and  P2_23 
REMARK    7  A    between atoms: P2_23  and  N6_26 
REMARK    8  A    between atoms: N6_26  and  P3_28 
REMARK    9  A    between atoms: C9_32  and  O11_33 
REMARK   10  A    between atoms: C10_35  and  O12_36 
ROOT
HETATM    1  C6  UNL     1      12.742  29.458  -6.911  1.00  0.00     0.262 C 
HETATM    2  O1  UNL     1      14.069  29.023  -7.049  1.00  0.00    -0.353 OA
HETATM    3  C7  UNL     1      14.652  29.485  -5.871  1.00  0.00     0.180 C 
HETATM    4  C9  UNL     1      13.662  29.192  -4.768  1.00  0.00     0.182 C 
HETATM    5  C10 UNL     1      12.382  28.960  -5.546  1.00  0.00     0.198 C 
ENDROOT
BRANCH   3   6
HETATM    6  C8  UNL     1      16.002  28.886  -5.600  1.00  0.00     0.216 C 
BRANCH   6   7
HETATM    7  O2  UNL     1      15.986  27.969  -4.582  1.00  0.00    -0.287 OA
BRANCH   7   8
HETATM    8  P1  UNL     1      16.412  26.436  -4.928  1.00  0.00     0.417 P 
HETATM    9  O3  UNL     1      15.477  25.154  -4.412  1.00  0.00    -0.624 OA
HETATM   10  O4  UNL     1      17.698  26.094  -5.906  1.00  0.00    -0.624 OA
BRANCH   8  11
HETATM   11  O5  UNL     1      17.261  26.289  -3.669  1.00  0.00    -0.186 OA
BRANCH  11  12
HETATM   12  P2  UNL     1      17.243  24.971  -2.677  1.00  0.00     0.379 P 
HETATM   13  O6  UNL     1      16.413  25.095  -1.201  1.00  0.00    -0.629 OA
HETATM   14  O7  UNL     1      17.788  23.518  -3.111  1.00  0.00    -0.629 OA
BRANCH  12  15
HETATM   15  N6  UNL     1      18.563  25.544  -1.974  1.00  0.00    -0.218 N 
ATOM     16  H6  UNL     1      19.005  26.355  -2.407  1.00  0.00     0.179 HD
BRANCH  15  17
HETATM   17  P3  UNL     1      19.282  24.932  -0.596  1.00  0.00     0.381 P 
HETATM   18  O8  UNL     1      20.191  25.912   0.389  1.00  0.00    -0.622 OA
HETATM   19  O9  UNL     1      18.912  23.370  -0.068  1.00  0.00    -0.622 OA
HETATM   20  O10 UNL     1      20.570  24.342  -1.194  1.00  0.00    -0.622 OA
ENDBRANCH  15  17
ENDBRANCH  12  15
ENDBRANCH  11  12
ENDBRANCH   8  11
ENDBRANCH   7   8
ENDBRANCH   6   7
ENDBRANCH   3   6
BRANCH   4  21
HETATM   21  O11 UNL     1      13.453  30.331  -3.971  1.00  0.00    -0.390 OA
ATOM     22  H11 UNL     1      12.527  30.534  -3.912  1.00  0.00     0.210 HD
ENDBRANCH   4  21
BRANCH   1  23
HETATM   23  N5  UNL     1      11.885  28.917  -7.922  1.00  0.00    -0.297 N 
HETATM   24  C3  UNL     1      10.576  28.613  -7.862  1.00  0.00     0.142 A 
HETATM   25  N3  UNL     1       9.676  28.710  -6.879  1.00  0.00    -0.336 N 
HETATM   26  C4  UNL     1      10.142  28.110  -9.080  1.00  0.00     0.119 A 
HETATM   27  C2  UNL     1       8.400  28.329  -7.080  1.00  0.00     0.183 A 
ATOM     28  H3  UNL     1       9.958  29.076  -5.970  1.00  0.00     0.168 HD
HETATM   29  N2  UNL     1       7.972  27.833  -8.279  1.00  0.00    -0.339 N 
HETATM   30  C1  UNL     1       8.841  27.719  -9.292  1.00  0.00     0.148 A 
ATOM     31  H2  UNL     1       7.000  27.551  -8.401  1.00  0.00     0.167 HD
HETATM   32  N1  UNL     1       8.388  27.205 -10.525  1.00  0.00    -0.080 NA
HETATM   33  N4  UNL     1      11.235  28.121  -9.874  1.00  0.00    -0.346 N 
HETATM   34  C5  UNL     1      12.284  28.610  -9.168  1.00  0.00     0.188 A 
ATOM     35  H4  UNL     1      11.267  27.812 -10.846  1.00  0.00     0.167 HD
ENDBRANCH   1  23
BRANCH   5  36
HETATM   36  O12 UNL     1      11.323  29.677  -4.980  1.00  0.00    -0.388 OA
ATOM     37  H12 UNL     1      10.563  29.130  -4.815  1.00  0.00     0.210 HD
ENDBRANCH   5  36
TORSDOF 10
ENDMDL
