MODEL 1
REMARK VINA RESULT: -10.052252078      0.000      0.000
REMARK  10 active torsions:
REMARK  status: ('A' for Active; 'I' for Inactive)
REMARK    1  A    between atoms: N5_13  and  C6_14 
REMARK    2  A    between atoms: C7_16  and  C8_17 
REMARK    3  A    between atoms: C8_17  and  O2_18 
REMARK    4  A    between atoms: O2_18  and  P1_19 
REMARK    5  A    between atoms: P1_19  and  O5_22 
REMARK    6  A    between atoms: O5_22  and  P2_23 
REMARK    7  A    between atoms: P2_23  and  N6_26 
REMARK    8  A    between atoms: N6_26  and  P3_28 
REMARK    9  A    between atoms: C9_32  and  O11_33 
REMARK   10  A    between atoms: C10_35  and  O12_36 
ROOT
HETATM    1  C6  UNL     1      21.801  27.552   0.666  1.00  0.00     0.262 C 
HETATM    2  O1  UNL     1      20.725  26.658   0.569  1.00  0.00    -0.353 OA
HETATM    3  C7  UNL     1      20.471  26.653  -0.801  1.00  0.00     0.180 C 
HETATM    4  C9  UNL     1      21.821  26.598  -1.479  1.00  0.00     0.182 C 
HETATM    5  C10 UNL     1      22.752  27.020  -0.360  1.00  0.00     0.198 C 
ENDROOT
BRANCH   3   6
HETATM    6  C8  UNL     1      19.569  25.534  -1.236  1.00  0.00     0.216 C 
BRANCH   6   7
HETATM    7  O2  UNL     1      18.319  25.965  -1.599  1.00  0.00    -0.287 OA
BRANCH   7   8
HETATM    8  P1  UNL     1      17.514  25.111  -2.727  1.00  0.00     0.417 P 
HETATM    9  O3  UNL     1      18.224  24.758  -4.195  1.00  0.00    -0.624 OA
HETATM   10  O4  UNL     1      16.032  24.450  -2.420  1.00  0.00    -0.624 OA
BRANCH   8  11
HETATM   11  O5  UNL     1      16.891  26.353  -3.357  1.00  0.00    -0.186 OA
BRANCH  11  12
HETATM   12  P2  UNL     1      16.494  26.493  -4.952  1.00  0.00     0.379 P 
HETATM   13  O6  UNL     1      17.015  27.879  -5.784  1.00  0.00    -0.629 OA
HETATM   14  O7  UNL     1      15.821  25.309  -5.814  1.00  0.00    -0.629 OA
BRANCH  12  15
HETATM   15  N6  UNL     1      15.168  27.272  -4.502  1.00  0.00    -0.218 N 
ATOM     16  H6  UNL     1      14.301  26.736  -4.478  1.00  0.00     0.179 HD
BRANCH  15  17
HETATM   17  P3  UNL     1      15.079  28.883  -4.070  1.00  0.00     0.381 P 
HETATM   18  O8  UNL     1      14.823  29.320  -2.489  1.00  0.00    -0.622 OA
HETATM   19  O9  UNL     1      15.468  30.085  -5.192  1.00  0.00    -0.622 OA
HETATM   20  O10 UNL     1      13.602  29.173  -4.387  1.00  0.00    -0.622 OA
ENDBRANCH  15  17
ENDBRANCH  12  15
ENDBRANCH  11  12
ENDBRANCH   8  11
ENDBRANCH   7   8
ENDBRANCH   6   7
ENDBRANCH   3   6
BRANCH   4  21
HETATM   21  O11 UNL     1      21.916  27.579  -2.480  1.00  0.00    -0.390 OA
ATOM     22  H11 UNL     1      22.673  27.424  -3.032  1.00  0.00     0.210 HD
ENDBRANCH   4  21
BRANCH   1  23
HETATM   23  N5  UNL     1      22.379  27.567   1.976  1.00  0.00    -0.297 N 
HETATM   24  C3  UNL     1      23.095  28.528   2.584  1.00  0.00     0.142 A 
HETATM   25  N3  UNL     1      23.492  29.740   2.187  1.00  0.00    -0.336 N 
HETATM   26  C4  UNL     1      23.460  28.122   3.860  1.00  0.00     0.119 A 
HETATM   27  C2  UNL     1      24.218  30.527   3.005  1.00  0.00     0.183 A 
ATOM     28  H3  UNL     1      23.243  30.073   1.255  1.00  0.00     0.168 HD
HETATM   29  N2  UNL     1      24.577  30.127   4.261  1.00  0.00    -0.339 N 
HETATM   30  C1  UNL     1      24.201  28.919   4.701  1.00  0.00     0.148 A 
ATOM     31  H2  UNL     1      25.129  30.743   4.858  1.00  0.00     0.167 HD
HETATM   32  N1  UNL     1      24.579  28.518   6.000  1.00  0.00    -0.080 NA
HETATM   33  N4  UNL     1      22.938  26.883   3.997  1.00  0.00    -0.346 N 
HETATM   34  C5  UNL     1      22.287  26.555   2.855  1.00  0.00     0.188 A 
ATOM     35  H4  UNL     1      23.021  26.292   4.824  1.00  0.00     0.167 HD
ENDBRANCH   1  23
BRANCH   5  36
HETATM   36  O12 UNL     1      23.652  27.994  -0.807  1.00  0.00    -0.388 OA
ATOM     37  H12 UNL     1      24.192  27.684  -1.525  1.00  0.00     0.210 HD
ENDBRANCH   5  36
TORSDOF 10
ENDMDL
