MODEL 2
REMARK VINA RESULT: -9.704982868      2.368      4.220
REMARK  10 active torsions:
REMARK  status: ('A' for Active; 'I' for Inactive)
REMARK    1  A    between atoms: N5_13  and  C6_14 
REMARK    2  A    between atoms: C7_16  and  C8_17 
REMARK    3  A    between atoms: C8_17  and  O2_18 
REMARK    4  A    between atoms: O2_18  and  P1_19 
REMARK    5  A    between atoms: P1_19  and  O5_22 
REMARK    6  A    between atoms: O5_22  and  P2_23 
REMARK    7  A    between atoms: P2_23  and  N6_26 
REMARK    8  A    between atoms: N6_26  and  P3_28 
REMARK    9  A    between atoms: C9_32  and  O11_33 
REMARK   10  A    between atoms: C10_35  and  O12_36 
ROOT
HETATM    1  C6  UNL     1      23.631  26.805   2.492  1.00  0.00     0.262 C 
HETATM    2  O1  UNL     1      23.761  26.417   1.150  1.00  0.00    -0.353 OA
HETATM    3  C7  UNL     1      23.010  25.245   1.109  1.00  0.00     0.180 C 
HETATM    4  C9  UNL     1      21.755  25.522   1.906  1.00  0.00     0.182 C 
HETATM    5  C10 UNL     1      22.151  26.752   2.698  1.00  0.00     0.198 C 
ENDROOT
BRANCH   3   6
HETATM    6  C8  UNL     1      22.709  24.778  -0.285  1.00  0.00     0.216 C 
BRANCH   6   7
HETATM    7  O2  UNL     1      21.386  24.911  -0.620  1.00  0.00    -0.287 OA
BRANCH   7   8
HETATM    8  P1  UNL     1      20.980  26.083  -1.675  1.00  0.00     0.417 P 
HETATM    9  O3  UNL     1      20.767  27.656  -1.161  1.00  0.00    -0.624 OA
HETATM   10  O4  UNL     1      20.894  25.796  -3.300  1.00  0.00    -0.624 OA
BRANCH   8  11
HETATM   11  O5  UNL     1      19.482  25.851  -1.499  1.00  0.00    -0.186 OA
BRANCH  11  12
HETATM   12  P2  UNL     1      18.823  24.649  -0.581  1.00  0.00     0.379 P 
HETATM   13  O6  UNL     1      18.788  23.079  -1.229  1.00  0.00    -0.629 OA
HETATM   14  O7  UNL     1      18.398  24.833   0.962  1.00  0.00    -0.629 OA
BRANCH  12  15
HETATM   15  N6  UNL     1      17.413  24.958  -1.277  1.00  0.00    -0.218 N 
ATOM     16  H6  UNL     1      16.585  24.918  -0.684  1.00  0.00     0.179 HD
BRANCH  15  17
HETATM   17  P3  UNL     1      17.179  25.341  -2.886  1.00  0.00     0.381 P 
HETATM   18  O8  UNL     1      16.343  26.709  -3.316  1.00  0.00    -0.622 OA
HETATM   19  O9  UNL     1      17.978  24.465  -4.091  1.00  0.00    -0.622 OA
HETATM   20  O10 UNL     1      15.938  24.487  -3.196  1.00  0.00    -0.622 OA
ENDBRANCH  15  17
ENDBRANCH  12  15
ENDBRANCH  11  12
ENDBRANCH   8  11
ENDBRANCH   7   8
ENDBRANCH   6   7
ENDBRANCH   3   6
BRANCH   4  21
HETATM   21  O11 UNL     1      21.520  24.496   2.836  1.00  0.00    -0.390 OA
ATOM     22  H11 UNL     1      20.700  24.054   2.649  1.00  0.00     0.210 HD
ENDBRANCH   4  21
BRANCH   1  23
HETATM   23  N5  UNL     1      24.160  28.114   2.733  1.00  0.00    -0.297 N 
HETATM   24  C3  UNL     1      24.453  28.716   3.899  1.00  0.00     0.142 A 
HETATM   25  N3  UNL     1      24.353  28.313   5.169  1.00  0.00    -0.336 N 
HETATM   26  C4  UNL     1      24.947  29.993   3.670  1.00  0.00     0.119 A 
HETATM   27  C2  UNL     1      24.721  29.127   6.177  1.00  0.00     0.183 A 
ATOM     28  H3  UNL     1      23.993  27.381   5.376  1.00  0.00     0.168 HD
HETATM   29  N2  UNL     1      25.207  30.384   5.952  1.00  0.00    -0.339 N 
HETATM   30  C1  UNL     1      25.325  30.829   4.694  1.00  0.00     0.148 A 
ATOM     31  H2  UNL     1      25.477  30.978   6.735  1.00  0.00     0.167 HD
HETATM   32  N1  UNL     1      25.828  32.129   4.474  1.00  0.00    -0.080 NA
HETATM   33  N4  UNL     1      24.940  30.136   2.326  1.00  0.00    -0.346 N 
HETATM   34  C5  UNL     1      24.464  28.997   1.768  1.00  0.00     0.188 A 
ATOM     35  H4  UNL     1      25.244  30.966   1.816  1.00  0.00     0.167 HD
ENDBRANCH   1  23
BRANCH   5  36
HETATM   36  O12 UNL     1      21.806  26.602   4.046  1.00  0.00    -0.388 OA
ATOM     37  H12 UNL     1      20.964  26.993   4.250  1.00  0.00     0.210 HD
ENDBRANCH   5  36
TORSDOF 10
ENDMDL
