MODEL 3
REMARK VINA RESULT: -6.000722257      3.527      5.659
REMARK  4 active torsions:
REMARK  status: ('A' for Active; 'I' for Inactive)
REMARK    1  A    between atoms: C2_2  and  C4_4 
REMARK    2  A    between atoms: C4_4  and  C5_5 
REMARK    3  A    between atoms: C5_5  and  N1_6 
REMARK    4  A    between atoms: N1_6  and  C6_8 
ROOT
HETATM    1  C6  UNL     1     101.423  97.679  80.732  1.00  0.00     0.133 A 
HETATM    2  N2  UNL     1     101.683  96.400  81.065  1.00  0.00    -0.337 N 
ATOM      3  H2  UNL     1     102.548  95.952  80.763  1.00  0.00     0.168 HD
HETATM    4  C7  UNL     1     100.786  95.726  81.799  1.00  0.00     0.183 A 
HETATM    5  N3  UNL     1      99.654  96.312  82.194  1.00  0.00    -0.337 N 
ATOM      6  H3  UNL     1      98.991  95.772  82.750  1.00  0.00     0.168 HD
HETATM    7  C8  UNL     1      99.355  97.575  81.888  1.00  0.00     0.138 A 
HETATM    8  N4  UNL     1      98.295  98.377  82.164  1.00  0.00    -0.337 N 
ATOM      9  H4  UNL     1      97.466  98.128  82.703  1.00  0.00     0.168 HD
HETATM   10  C9  UNL     1      98.552  99.568  81.585  1.00  0.00     0.182 A 
HETATM   11  N5  UNL     1      99.744  99.530  80.955  1.00  0.00    -0.346 N 
ATOM     12  H5  UNL     1     100.181 100.293  80.437  1.00  0.00     0.167 HD
HETATM   13  C10 UNL     1     100.253  98.289  81.140  1.00  0.00     0.122 A 
ENDROOT
BRANCH   1  14
HETATM   14  N1  UNL     1     102.364  98.413  79.952  1.00  0.00    -0.371 N 
ATOM     15  H1  UNL     1     102.322  98.375  78.933  1.00  0.00     0.161 HD
BRANCH  14  16
HETATM   16  C5  UNL     1     103.382  99.216  80.609  1.00  0.00     0.148 C 
BRANCH  16  17
HETATM   17  C4  UNL     1     103.159 100.673  80.365  1.00  0.00    -0.005 C 
BRANCH  17  18
HETATM   18  C2  UNL     1     103.714 101.272  79.330  1.00  0.00    -0.090 C 
HETATM   19  C1  UNL     1     105.071 101.857  79.493  1.00  0.00     0.042 C 
HETATM   20  C3  UNL     1     102.962 101.338  78.047  1.00  0.00     0.042 C 
ENDBRANCH  17  18
ENDBRANCH  16  17
ENDBRANCH  14  16
ENDBRANCH   1  14
TORSDOF 4
ENDMDL
