MODEL 2
REMARK VINA RESULT: -6.101511351      0.569      2.344
REMARK  4 active torsions:
REMARK  status: ('A' for Active; 'I' for Inactive)
REMARK    1  A    between atoms: C2_2  and  C4_4 
REMARK    2  A    between atoms: C4_4  and  C5_5 
REMARK    3  A    between atoms: C5_5  and  N1_6 
REMARK    4  A    between atoms: N1_6  and  C6_8 
ROOT
HETATM    1  C6  UNL     1     102.637 101.487  77.620  1.00  0.00     0.133 A 
HETATM    2  N2  UNL     1     103.591 102.060  78.381  1.00  0.00    -0.337 N 
ATOM      3  H2  UNL     1     104.064 102.907  78.068  1.00  0.00     0.168 HD
HETATM    4  C7  UNL     1     103.907 101.497  79.556  1.00  0.00     0.183 A 
HETATM    5  N3  UNL     1     103.288 100.388  79.967  1.00  0.00    -0.337 N 
ATOM      6  H3  UNL     1     103.552  99.983  80.865  1.00  0.00     0.168 HD
HETATM    7  C8  UNL     1     102.339  99.788  79.248  1.00  0.00     0.138 A 
HETATM    8  N4  UNL     1     101.579  98.679  79.442  1.00  0.00    -0.337 N 
ATOM      9  H4  UNL     1     101.607  98.055  80.248  1.00  0.00     0.168 HD
HETATM   10  C9  UNL     1     100.781  98.564  78.361  1.00  0.00     0.182 A 
HETATM   11  N5  UNL     1     101.023  99.571  77.497  1.00  0.00    -0.346 N 
ATOM     12  H5  UNL     1     100.561  99.725  76.600  1.00  0.00     0.167 HD
HETATM   13  C10 UNL     1     101.994 100.340  78.042  1.00  0.00     0.122 A 
ENDROOT
BRANCH   1  14
HETATM   14  N1  UNL     1     102.287 102.070  76.368  1.00  0.00    -0.371 N 
ATOM     15  H1  UNL     1     102.854 101.882  75.540  1.00  0.00     0.161 HD
BRANCH  14  16
HETATM   16  C5  UNL     1     101.121 102.932  76.269  1.00  0.00     0.148 C 
BRANCH  16  17
HETATM   17  C4  UNL     1     101.505 104.372  76.386  1.00  0.00    -0.005 C 
BRANCH  17  18
HETATM   18  C2  UNL     1     100.593 105.289  76.640  1.00  0.00    -0.090 C 
HETATM   19  C1  UNL     1      99.158 104.916  76.524  1.00  0.00     0.042 C 
HETATM   20  C3  UNL     1     101.036 106.656  77.032  1.00  0.00     0.042 C 
ENDBRANCH  17  18
ENDBRANCH  16  17
ENDBRANCH  14  16
ENDBRANCH   1  14
TORSDOF 4
ENDMDL
