MODEL 1
REMARK VINA RESULT: -6.277021847      0.000      0.000
REMARK  4 active torsions:
REMARK  status: ('A' for Active; 'I' for Inactive)
REMARK    1  A    between atoms: C2_2  and  C4_4 
REMARK    2  A    between atoms: C4_4  and  C5_5 
REMARK    3  A    between atoms: C5_5  and  N1_6 
REMARK    4  A    between atoms: N1_6  and  C6_8 
ROOT
HETATM    1  C6  UNL     1     102.111 101.099  77.311  1.00  0.00     0.133 A 
HETATM    2  N2  UNL     1     101.188 100.121  77.219  1.00  0.00    -0.337 N 
ATOM      3  H2  UNL     1     100.541 100.091  76.432  1.00  0.00     0.168 HD
HETATM    4  C7  UNL     1     101.135  99.189  78.181  1.00  0.00     0.183 A 
HETATM    5  N3  UNL     1     101.981  99.228  79.213  1.00  0.00    -0.337 N 
ATOM      6  H3  UNL     1     101.913  98.504  79.929  1.00  0.00     0.168 HD
HETATM    7  C8  UNL     1     102.910 100.175  79.344  1.00  0.00     0.138 A 
HETATM    8  N4  UNL     1     103.863 100.427  80.277  1.00  0.00    -0.337 N 
ATOM      9  H4  UNL     1     104.051  99.882  81.119  1.00  0.00     0.168 HD
HETATM   10  C9  UNL     1     104.514 101.537  79.874  1.00  0.00     0.182 A 
HETATM   11  N5  UNL     1     103.991 101.986  78.714  1.00  0.00    -0.346 N 
ATOM     12  H5  UNL     1     104.294 102.807  78.190  1.00  0.00     0.167 HD
HETATM   13  C10 UNL     1     102.989 101.142  78.376  1.00  0.00     0.122 A 
ENDROOT
BRANCH   1  14
HETATM   14  N1  UNL     1     102.184 102.099  76.298  1.00  0.00    -0.371 N 
ATOM     15  H1  UNL     1     103.015 102.173  75.711  1.00  0.00     0.161 HD
BRANCH  14  16
HETATM   16  C5  UNL     1     101.072 103.015  76.102  1.00  0.00     0.148 C 
BRANCH  16  17
HETATM   17  C4  UNL     1     101.483 104.426  76.373  1.00  0.00    -0.005 C 
BRANCH  17  18
HETATM   18  C2  UNL     1     100.581 105.343  76.661  1.00  0.00    -0.090 C 
HETATM   19  C1  UNL     1      99.143 104.976  76.577  1.00  0.00     0.042 C 
HETATM   20  C3  UNL     1     101.037 106.704  77.056  1.00  0.00     0.042 C 
ENDBRANCH  17  18
ENDBRANCH  16  17
ENDBRANCH  14  16
ENDBRANCH   1  14
TORSDOF 4
ENDMDL
