MODEL 3
REMARK VINA RESULT: -4.640839706      2.260      2.563
REMARK  4 active torsions:
REMARK  status: ('A' for Active; 'I' for Inactive)
REMARK    1  A    between atoms: N1_1  and  C1_5 
REMARK    2  A    between atoms: C1_5  and  C2_6 
REMARK    3  A    between atoms: C1_5  and  C6_14 
REMARK    4  A    between atoms: C2_6  and  C3_7 
ROOT
HETATM    1  C1  UNL     1      -3.760   2.881  12.124  1.00  0.00     0.289 C 
ENDROOT
BRANCH   1   2
HETATM    2  N1  UNL     1      -2.381   2.575  11.896  1.00  0.00    -0.065 N 
ATOM      3  H13 UNL     1      -2.196   1.588  12.078  1.00  0.00     0.275 HD
ATOM      4  H12 UNL     1      -2.165   2.608  10.899  1.00  0.00     0.275 HD
ATOM      5  H11 UNL     1      -1.736   3.164  12.423  1.00  0.00     0.275 HD
ENDBRANCH   1   2
BRANCH   1   6
HETATM    6  C2  UNL     1      -4.057   3.320  13.529  1.00  0.00     0.102 C 
BRANCH   6   7
HETATM    7  C3  UNL     1      -3.145   4.463  13.880  1.00  0.00     0.028 A 
HETATM    8  C4  UNL     1      -3.316   5.794  13.548  1.00  0.00     0.114 A 
HETATM    9  N2  UNL     1      -2.276   6.475  14.056  1.00  0.00    -0.360 N 
HETATM   10  C5  UNL     1      -1.451   5.640  14.693  1.00  0.00     0.180 A 
ATOM     11  H2  UNL     1      -2.136   7.482  13.968  1.00  0.00     0.166 HD
HETATM   12  N3  UNL     1      -1.999   4.418  14.575  1.00  0.00    -0.355 N 
ATOM     13  H3  UNL     1      -1.594   3.566  14.964  1.00  0.00     0.166 HD
ENDBRANCH   6   7
ENDBRANCH   1   6
BRANCH   1  14
HETATM   14  C6  UNL     1      -4.595   1.704  11.781  1.00  0.00     0.204 C 
HETATM   15  O1  UNL     1      -5.526   1.791  10.947  1.00  0.00    -0.646 OA
HETATM   16  O2  UNL     1      -4.311   0.489  12.415  1.00  0.00    -0.646 OA
ENDBRANCH   1  14
TORSDOF 4
ENDMDL
