MODEL 1
REMARK VINA RESULT: -4.816858829      0.000      0.000
REMARK  4 active torsions:
REMARK  status: ('A' for Active; 'I' for Inactive)
REMARK    1  A    between atoms: N1_1  and  C1_5 
REMARK    2  A    between atoms: C1_5  and  C2_6 
REMARK    3  A    between atoms: C1_5  and  C6_14 
REMARK    4  A    between atoms: C2_6  and  C3_7 
ROOT
HETATM    1  C1  UNL     1      -4.684   1.811  14.153  1.00  0.00     0.289 C 
ENDROOT
BRANCH   1   2
HETATM    2  N1  UNL     1      -3.758   1.649  13.074  1.00  0.00    -0.065 N 
ATOM      3  H13 UNL     1      -4.001   0.834  12.511  1.00  0.00     0.275 HD
ATOM      4  H12 UNL     1      -3.886   2.382  12.377  1.00  0.00     0.275 HD
ATOM      5  H11 UNL     1      -2.784   1.602  13.373  1.00  0.00     0.275 HD
ENDBRANCH   1   2
BRANCH   1   6
HETATM    6  C2  UNL     1      -4.870   3.239  14.581  1.00  0.00     0.102 C 
BRANCH   6   7
HETATM    7  C3  UNL     1      -3.692   4.043  14.103  1.00  0.00     0.028 A 
HETATM    8  C4  UNL     1      -3.658   4.899  13.018  1.00  0.00     0.114 A 
HETATM    9  N2  UNL     1      -2.417   5.410  12.946  1.00  0.00    -0.360 N 
HETATM   10  C5  UNL     1      -1.663   4.918  13.933  1.00  0.00     0.180 A 
ATOM     11  H2  UNL     1      -2.098   6.076  12.242  1.00  0.00     0.166 HD
HETATM   12  N3  UNL     1      -2.459   4.086  14.627  1.00  0.00    -0.355 N 
ATOM     13  H3  UNL     1      -2.162   3.557  15.447  1.00  0.00     0.166 HD
ENDBRANCH   6   7
ENDBRANCH   1   6
BRANCH   1  14
HETATM   14  C6  UNL     1      -4.246   0.995  15.312  1.00  0.00     0.204 C 
HETATM   15  O1  UNL     1      -3.451   1.454  16.165  1.00  0.00    -0.646 OA
HETATM   16  O2  UNL     1      -4.750  -0.306  15.426  1.00  0.00    -0.646 OA
ENDBRANCH   1  14
TORSDOF 4
ENDMDL
