MODEL 2
REMARK VINA RESULT: -4.685742738      1.694      2.148
REMARK  4 active torsions:
REMARK  status: ('A' for Active; 'I' for Inactive)
REMARK    1  A    between atoms: N1_1  and  C1_5 
REMARK    2  A    between atoms: C1_5  and  C2_6 
REMARK    3  A    between atoms: C1_5  and  C6_14 
REMARK    4  A    between atoms: C2_6  and  C3_7 
ROOT
HETATM    1  C1  UNL     1      -4.532   2.012  14.335  1.00  0.00     0.289 C 
ENDROOT
BRANCH   1   2
HETATM    2  N1  UNL     1      -4.154   1.525  13.044  1.00  0.00    -0.065 N 
ATOM      3  H13 UNL     1      -3.216   1.843  12.801  1.00  0.00     0.275 HD
ATOM      4  H12 UNL     1      -3.990   0.519  13.073  1.00  0.00     0.275 HD
ATOM      5  H11 UNL     1      -4.816   1.761  12.306  1.00  0.00     0.275 HD
ENDBRANCH   1   2
BRANCH   1   6
HETATM    6  C2  UNL     1      -3.876   3.311  14.708  1.00  0.00     0.102 C 
BRANCH   6   7
HETATM    7  C3  UNL     1      -4.716   4.443  14.183  1.00  0.00     0.028 A 
HETATM    8  C4  UNL     1      -6.010   4.758  14.554  1.00  0.00     0.114 A 
HETATM    9  N2  UNL     1      -6.382   5.837  13.845  1.00  0.00    -0.360 N 
HETATM   10  C5  UNL     1      -5.387   6.221  13.042  1.00  0.00     0.180 A 
ATOM     11  H2  UNL     1      -7.291   6.295  13.911  1.00  0.00     0.166 HD
HETATM   12  N3  UNL     1      -4.379   5.359  13.263  1.00  0.00    -0.355 N 
ATOM     13  H3  UNL     1      -3.476   5.396  12.791  1.00  0.00     0.166 HD
ENDBRANCH   6   7
ENDBRANCH   1   6
BRANCH   1  14
HETATM   14  C6  UNL     1      -4.230   0.986  15.363  1.00  0.00     0.204 C 
HETATM   15  O1  UNL     1      -3.489   1.245  16.340  1.00  0.00    -0.646 OA
HETATM   16  O2  UNL     1      -4.800  -0.283  15.211  1.00  0.00    -0.646 OA
ENDBRANCH   1  14
TORSDOF 4
ENDMDL
