MODEL 4
REMARK VINA RESULT: -8.096036356      0.890      1.386
REMARK  10 active torsions:
REMARK  status: ('A' for Active; 'I' for Inactive)
REMARK    1  A    between atoms: O1_2  and  C2_3 
REMARK    2  A    between atoms: C5_6  and  N1_7 
REMARK    3  A    between atoms: N1_7  and  C6_9 
REMARK    4  A    between atoms: C6_9  and  C7_10 
REMARK    5  A    between atoms: C7_10  and  N2_11 
REMARK       I    between atoms: N2_11  and  C8_13 
REMARK    6  A    between atoms: C8_13  and  C9_15 
REMARK    7  A    between atoms: C9_15  and  C10_16 
REMARK    8  A    between atoms: C9_15  and  N3_23 
REMARK    9  A    between atoms: C10_16  and  C11_17 
REMARK   10  A    between atoms: N3_23  and  C17_25 
ROOT
HETATM    1  C9  UNL     1      22.139  35.312  11.879  1.00  0.00     0.177 C 
ENDROOT
BRANCH   1   2
HETATM    2  C8  UNL     1      21.181  34.180  11.923  1.00  0.00     0.240 C 
HETATM    3  N2  UNL     1      21.619  32.857  11.929  1.00  0.00    -0.358 N 
ATOM      4  H2  UNL     1      22.620  32.667  11.893  1.00  0.00     0.162 HD
HETATM    5  O2  UNL     1      19.928  34.465  11.953  1.00  0.00    -0.271 OA
BRANCH   3   6
HETATM    6  C7  UNL     1      20.704  31.751  11.983  1.00  0.00     0.142 C 
BRANCH   6   7
HETATM    7  C6  UNL     1      21.165  30.770  13.041  1.00  0.00     0.139 C 
BRANCH   7   8
HETATM    8  N1  UNL     1      21.078  31.407  14.325  1.00  0.00    -0.388 N 
ATOM      9  H1  UNL     1      20.748  32.370  14.385  1.00  0.00     0.159 HD
BRANCH   8  10
HETATM   10  C5  UNL     1      21.440  30.729  15.496  1.00  0.00     0.028 A 
HETATM   11  C4  UNL     1      20.716  30.963  16.652  1.00  0.00     0.032 A 
HETATM   12  C3  UNL     1      21.056  30.313  17.821  1.00  0.00     0.039 A 
HETATM   13  C2  UNL     1      22.104  29.438  17.846  1.00  0.00     0.068 A 
HETATM   14  C25 UNL     1      22.835  29.194  16.714  1.00  0.00     0.039 A 
HETATM   15  C24 UNL     1      22.488  29.854  15.533  1.00  0.00     0.032 A 
BRANCH  13  16
HETATM   16  O1  UNL     1      22.436  28.789  19.027  1.00  0.00    -0.356 OA
HETATM   17  C1  UNL     1      22.921  27.474  19.052  1.00  0.00     0.210 C 
ENDBRANCH  13  16
ENDBRANCH   8  10
ENDBRANCH   7   8
ENDBRANCH   6   7
ENDBRANCH   3   6
ENDBRANCH   1   2
BRANCH   1  18
HETATM   18  C10 UNL     1      23.135  35.289  13.034  1.00  0.00     0.039 C 
BRANCH  18  19
HETATM   19  C11 UNL     1      24.547  35.093  12.661  1.00  0.00    -0.012 C 
HETATM   20  C12 UNL     1      25.467  35.153  13.876  1.00  0.00     0.005 C 
HETATM   21  C13 UNL     1      25.495  36.490  14.541  1.00  0.00     0.000 C 
HETATM   22  C14 UNL     1      25.956  37.577  13.582  1.00  0.00     0.000 C 
HETATM   23  C15 UNL     1      25.116  37.535  12.349  1.00  0.00     0.000 C 
HETATM   24  C16 UNL     1      25.067  36.160  11.712  1.00  0.00     0.005 C 
ENDBRANCH  18  19
ENDBRANCH   1  18
BRANCH   1  25
HETATM   25  N3  UNL     1      21.370  36.548  11.992  1.00  0.00    -0.343 N 
ATOM     26  H3  UNL     1      20.726  36.696  12.770  1.00  0.00     0.164 HD
BRANCH  25  27
HETATM   27  C17 UNL     1      21.544  37.553  10.973  1.00  0.00     0.226 A 
HETATM   28  N4  UNL     1      21.252  37.470   9.673  1.00  0.00    -0.320 N 
HETATM   29  C18 UNL     1      21.564  38.626   9.053  1.00  0.00     0.069 A 
ATOM     30  H4  UNL     1      20.851  36.651   9.216  1.00  0.00     0.169 HD
HETATM   31  C19 UNL     1      21.478  39.085   7.766  1.00  0.00     0.032 A 
HETATM   32  C23 UNL     1      22.070  39.436  10.054  1.00  0.00     0.106 A 
HETATM   33  C20 UNL     1      21.894  40.366   7.437  1.00  0.00     0.002 A 
HETATM   34  C21 UNL     1      22.409  41.207   8.414  1.00  0.00     0.003 A 
HETATM   35  C22 UNL     1      22.482  40.719   9.696  1.00  0.00     0.040 A 
HETATM   36  O3  UNL     1      22.037  38.759  11.159  1.00  0.00    -0.277 OA
ENDBRANCH  25  27
ENDBRANCH   1  25
TORSDOF 10
ENDMDL
