MODEL 1
REMARK VINA RESULT: -8.218526259      0.000      0.000
REMARK  10 active torsions:
REMARK  status: ('A' for Active; 'I' for Inactive)
REMARK    1  A    between atoms: O1_2  and  C2_3 
REMARK    2  A    between atoms: C5_6  and  N1_7 
REMARK    3  A    between atoms: N1_7  and  C6_9 
REMARK    4  A    between atoms: C6_9  and  C7_10 
REMARK    5  A    between atoms: C7_10  and  N2_11 
REMARK       I    between atoms: N2_11  and  C8_13 
REMARK    6  A    between atoms: C8_13  and  C9_15 
REMARK    7  A    between atoms: C9_15  and  C10_16 
REMARK    8  A    between atoms: C9_15  and  N3_23 
REMARK    9  A    between atoms: C10_16  and  C11_17 
REMARK   10  A    between atoms: N3_23  and  C17_25 
ROOT
HETATM    1  C9  UNL     1      22.107  35.364  11.598  1.00  0.00     0.177 C 
ENDROOT
BRANCH   1   2
HETATM    2  C8  UNL     1      21.213  34.215  11.887  1.00  0.00     0.240 C 
HETATM    3  N2  UNL     1      21.664  32.901  11.787  1.00  0.00    -0.358 N 
ATOM      4  H2  UNL     1      22.628  32.729  11.499  1.00  0.00     0.162 HD
HETATM    5  O2  UNL     1      20.003  34.478  12.232  1.00  0.00    -0.271 OA
BRANCH   3   6
HETATM    6  C7  UNL     1      20.815  31.778  12.074  1.00  0.00     0.142 C 
BRANCH   6   7
HETATM    7  C6  UNL     1      21.493  30.885  13.093  1.00  0.00     0.139 C 
BRANCH   7   8
HETATM    8  N1  UNL     1      20.671  30.827  14.269  1.00  0.00    -0.388 N 
ATOM      9  H1  UNL     1      19.692  31.106  14.211  1.00  0.00     0.159 HD
BRANCH   8  10
HETATM   10  C5  UNL     1      21.192  30.395  15.496  1.00  0.00     0.028 A 
HETATM   11  C4  UNL     1      22.321  29.597  15.496  1.00  0.00     0.032 A 
HETATM   12  C3  UNL     1      22.851  29.152  16.691  1.00  0.00     0.039 A 
HETATM   13  C2  UNL     1      22.266  29.495  17.876  1.00  0.00     0.068 A 
HETATM   14  C25 UNL     1      21.147  30.284  17.898  1.00  0.00     0.039 A 
HETATM   15  C24 UNL     1      20.614  30.732  16.687  1.00  0.00     0.032 A 
BRANCH  13  16
HETATM   16  O1  UNL     1      22.808  29.044  19.071  1.00  0.00    -0.356 OA
HETATM   17  C1  UNL     1      22.831  27.686  19.421  1.00  0.00     0.210 C 
ENDBRANCH  13  16
ENDBRANCH   8  10
ENDBRANCH   7   8
ENDBRANCH   6   7
ENDBRANCH   3   6
ENDBRANCH   1   2
BRANCH   1  18
HETATM   18  C10 UNL     1      22.988  35.741  12.785  1.00  0.00     0.039 C 
BRANCH  18  19
HETATM   19  C11 UNL     1      24.367  35.222  12.752  1.00  0.00    -0.012 C 
HETATM   20  C12 UNL     1      24.946  35.064  14.154  1.00  0.00     0.005 C 
HETATM   21  C13 UNL     1      25.108  36.356  14.884  1.00  0.00     0.000 C 
HETATM   22  C14 UNL     1      26.025  37.308  14.131  1.00  0.00     0.000 C 
HETATM   23  C15 UNL     1      25.531  37.465  12.732  1.00  0.00     0.000 C 
HETATM   24  C16 UNL     1      25.332  36.141  12.021  1.00  0.00     0.005 C 
ENDBRANCH  18  19
ENDBRANCH   1  18
BRANCH   1  25
HETATM   25  N3  UNL     1      21.262  36.517  11.299  1.00  0.00    -0.343 N 
ATOM     26  H3  UNL     1      20.262  36.501  11.500  1.00  0.00     0.164 HD
BRANCH  25  27
HETATM   27  C17 UNL     1      21.881  37.680  10.713  1.00  0.00     0.226 A 
HETATM   28  N4  UNL     1      21.366  38.903  10.565  1.00  0.00    -0.320 N 
HETATM   29  C18 UNL     1      22.264  39.713   9.968  1.00  0.00     0.069 A 
ATOM     30  H4  UNL     1      20.431  39.182  10.859  1.00  0.00     0.169 HD
HETATM   31  C19 UNL     1      22.271  41.028   9.584  1.00  0.00     0.032 A 
HETATM   32  C23 UNL     1      23.372  38.915   9.755  1.00  0.00     0.106 A 
HETATM   33  C20 UNL     1      23.385  41.586   8.976  1.00  0.00     0.002 A 
HETATM   34  C21 UNL     1      24.516  40.815   8.744  1.00  0.00     0.003 A 
HETATM   35  C22 UNL     1      24.479  39.500   9.141  1.00  0.00     0.040 A 
HETATM   36  O3  UNL     1      23.096  37.733  10.210  1.00  0.00    -0.277 OA
ENDBRANCH  25  27
ENDBRANCH   1  25
TORSDOF 10
ENDMDL
