MODEL 2
REMARK VINA RESULT: -8.181106713      2.340      2.968
REMARK  10 active torsions:
REMARK  status: ('A' for Active; 'I' for Inactive)
REMARK    1  A    between atoms: O1_2  and  C2_3 
REMARK    2  A    between atoms: C5_6  and  N1_7 
REMARK    3  A    between atoms: N1_7  and  C6_9 
REMARK    4  A    between atoms: C6_9  and  C7_10 
REMARK    5  A    between atoms: C7_10  and  N2_11 
REMARK       I    between atoms: N2_11  and  C8_13 
REMARK    6  A    between atoms: C8_13  and  C9_15 
REMARK    7  A    between atoms: C9_15  and  C10_16 
REMARK    8  A    between atoms: C9_15  and  N3_23 
REMARK    9  A    between atoms: C10_16  and  C11_17 
REMARK   10  A    between atoms: N3_23  and  C17_25 
ROOT
HETATM    1  C9  UNL     1      23.097  36.735  11.163  1.00  0.00     0.177 C 
ENDROOT
BRANCH   1   2
HETATM    2  C8  UNL     1      21.894  36.214  11.857  1.00  0.00     0.240 C 
HETATM    3  N2  UNL     1      21.390  34.944  11.584  1.00  0.00    -0.358 N 
ATOM      4  H2  UNL     1      21.857  34.366  10.886  1.00  0.00     0.162 HD
HETATM    5  O2  UNL     1      21.328  36.982  12.719  1.00  0.00    -0.271 OA
BRANCH   3   6
HETATM    6  C7  UNL     1      20.233  34.421  12.256  1.00  0.00     0.142 C 
BRANCH   6   7
HETATM    7  C6  UNL     1      20.519  33.009  12.724  1.00  0.00     0.139 C 
BRANCH   7   8
HETATM    8  N1  UNL     1      21.377  33.074  13.873  1.00  0.00    -0.388 N 
ATOM      9  H1  UNL     1      21.732  33.978  14.184  1.00  0.00     0.159 HD
BRANCH   8  10
HETATM   10  C5  UNL     1      21.736  31.916  14.576  1.00  0.00     0.028 A 
HETATM   11  C4  UNL     1      20.990  31.548  15.680  1.00  0.00     0.032 A 
HETATM   12  C3  UNL     1      21.326  30.415  16.393  1.00  0.00     0.039 A 
HETATM   13  C2  UNL     1      22.394  29.652  16.016  1.00  0.00     0.068 A 
HETATM   14  C25 UNL     1      23.147  30.000  14.926  1.00  0.00     0.039 A 
HETATM   15  C24 UNL     1      22.804  31.147  14.207  1.00  0.00     0.032 A 
BRANCH  13  16
HETATM   16  O1  UNL     1      22.722  28.514  16.740  1.00  0.00    -0.356 OA
HETATM   17  C1  UNL     1      21.986  28.096  17.857  1.00  0.00     0.210 C 
ENDBRANCH  13  16
ENDBRANCH   8  10
ENDBRANCH   7   8
ENDBRANCH   6   7
ENDBRANCH   3   6
ENDBRANCH   1   2
BRANCH   1  18
HETATM   18  C10 UNL     1      24.299  36.876  12.091  1.00  0.00     0.039 C 
BRANCH  18  19
HETATM   19  C11 UNL     1      24.916  35.615  12.540  1.00  0.00    -0.012 C 
HETATM   20  C12 UNL     1      24.623  35.334  14.010  1.00  0.00     0.005 C 
HETATM   21  C13 UNL     1      25.223  36.334  14.943  1.00  0.00     0.000 C 
HETATM   22  C14 UNL     1      26.736  36.392  14.797  1.00  0.00     0.000 C 
HETATM   23  C15 UNL     1      27.084  36.620  13.364  1.00  0.00     0.000 C 
HETATM   24  C16 UNL     1      26.432  35.621  12.428  1.00  0.00     0.005 C 
ENDBRANCH  18  19
ENDBRANCH   1  18
BRANCH   1  25
HETATM   25  N3  UNL     1      22.776  38.067  10.660  1.00  0.00    -0.343 N 
ATOM     26  H3  UNL     1      23.177  38.901  11.091  1.00  0.00     0.164 HD
BRANCH  25  27
HETATM   27  C17 UNL     1      21.877  38.172   9.537  1.00  0.00     0.226 A 
HETATM   28  N4  UNL     1      21.974  37.580   8.345  1.00  0.00    -0.320 N 
HETATM   29  C18 UNL     1      20.930  37.934   7.567  1.00  0.00     0.069 A 
ATOM     30  H4  UNL     1      22.727  36.953   8.063  1.00  0.00     0.169 HD
HETATM   31  C19 UNL     1      20.533  37.635   6.291  1.00  0.00     0.032 A 
HETATM   32  C23 UNL     1      20.177  38.784   8.354  1.00  0.00     0.106 A 
HETATM   33  C20 UNL     1      19.371  38.175   5.762  1.00  0.00     0.002 A 
HETATM   34  C21 UNL     1      18.589  39.034   6.521  1.00  0.00     0.003 A 
HETATM   35  C22 UNL     1      19.013  39.315   7.798  1.00  0.00     0.040 A 
HETATM   36  O3  UNL     1      20.775  38.891   9.499  1.00  0.00    -0.277 OA
ENDBRANCH  25  27
ENDBRANCH   1  25
TORSDOF 10
ENDMDL
