MODEL 5
REMARK VINA RESULT: -8.580128003      0.934      1.510
REMARK  12 active torsions:
REMARK  status: ('A' for Active; 'I' for Inactive)
REMARK    1  A    between atoms: N1_2  and  C1_4 
REMARK    2  A    between atoms: C4_7  and  O3_8 
REMARK    3  A    between atoms: O3_8  and  C5_9 
REMARK    4  A    between atoms: C6_11  and  C7_12 
REMARK    5  A    between atoms: C7_12  and  S1_13 
REMARK    6  A    between atoms: S1_13  and  C8_14 
REMARK    7  A    between atoms: C10_17  and  O6_18 
REMARK    8  A    between atoms: C11_20  and  O7_21 
REMARK    9  A    between atoms: C12_23  and  O8_24 
REMARK   10  A    between atoms: C13_26  and  O9_27 
REMARK   11  A    between atoms: C14_29  and  O10_30 
REMARK   12  A    between atoms: C15_32  and  O11_33 
ROOT
HETATM    1  C5  UNL     1     143.981  62.178 132.503  1.00  0.00     0.298 C 
HETATM    2  O4  UNL     1     145.284  61.926 132.147  1.00  0.00    -0.349 OA
HETATM    3  C6  UNL     1     146.257  62.250 133.038  1.00  0.00     0.165 C 
HETATM    4  C13 UNL     1     146.078  63.584 133.733  1.00  0.00     0.179 C 
HETATM    5  C14 UNL     1     145.057  64.336 132.868  1.00  0.00     0.183 C 
HETATM    6  C15 UNL     1     143.766  63.582 133.075  1.00  0.00     0.205 C 
ENDROOT
BRANCH   3   7
HETATM    7  C7  UNL     1     146.630  61.152 134.012  1.00  0.00     0.111 C 
BRANCH   7   8
HETATM    8  S1  UNL     1     146.059  61.568 135.695  1.00  0.00    -0.132 SA
BRANCH   8   9
HETATM    9  C8  UNL     1     146.706  60.353 136.857  1.00  0.00     0.214 C 
HETATM   10  O5  UNL     1     146.919  59.114 136.262  1.00  0.00    -0.370 OA
HETATM   11  C9  UNL     1     147.265  58.176 137.200  1.00  0.00     0.203 C 
HETATM   12  C10 UNL     1     148.430  58.529 138.065  1.00  0.00     0.173 C 
HETATM   13  C11 UNL     1     148.427  59.972 138.519  1.00  0.00     0.181 C 
HETATM   14  C12 UNL     1     148.071  60.854 137.329  1.00  0.00     0.188 C 
BRANCH  12  15
HETATM   15  O6  UNL     1     149.655  58.241 137.491  1.00  0.00    -0.391 OA
ATOM     16  H6  UNL     1     149.593  57.934 136.593  1.00  0.00     0.210 HD
ENDBRANCH  12  15
BRANCH  13  17
HETATM   17  O7  UNL     1     147.415  60.165 139.461  1.00  0.00    -0.390 OA
ATOM     18  H7  UNL     1     147.002  61.008 139.316  1.00  0.00     0.210 HD
ENDBRANCH  13  17
BRANCH  14  19
HETATM   19  O8  UNL     1     148.971  60.705 136.280  1.00  0.00    -0.389 OA
ATOM     20  H8  UNL     1     148.843  61.428 135.677  1.00  0.00     0.210 HD
ENDBRANCH  14  19
ENDBRANCH   8   9
ENDBRANCH   7   8
ENDBRANCH   3   7
BRANCH   4  21
HETATM   21  O9  UNL     1     147.264  64.308 133.812  1.00  0.00    -0.390 OA
ATOM     22  H9  UNL     1     147.119  65.222 134.030  1.00  0.00     0.210 HD
ENDBRANCH   4  21
BRANCH   1  23
HETATM   23  O3  UNL     1     143.420  61.198 133.300  1.00  0.00    -0.318 OA
BRANCH  23  24
HETATM   24  C4  UNL     1     143.165  59.883 133.038  1.00  0.00     0.072 A 
HETATM   25  C3  UNL     1     144.120  58.933 132.830  1.00  0.00     0.039 A 
HETATM   26  C2  UNL     1     143.817  57.591 132.563  1.00  0.00     0.039 A 
HETATM   27  C1  UNL     1     142.506  57.198 132.505  1.00  0.00     0.103 A 
HETATM   28  C17 UNL     1     141.510  58.152 132.714  1.00  0.00     0.039 A 
HETATM   29  C16 UNL     1     141.829  59.467 132.975  1.00  0.00     0.039 A 
BRANCH  27  30
HETATM   30  N1  UNL     1     142.195  55.850 132.235  1.00  0.00    -0.116 N 
HETATM   31  O1  UNL     1     142.550  54.969 133.034  1.00  0.00    -0.532 OA
HETATM   32  O2  UNL     1     141.504  55.478 131.104  1.00  0.00    -0.532 OA
ENDBRANCH  27  30
ENDBRANCH  23  24
ENDBRANCH   1  23
BRANCH   5  33
HETATM   33  O10 UNL     1     144.978  65.660 133.247  1.00  0.00    -0.390 OA
ATOM     34  H10 UNL     1     144.452  65.753 134.034  1.00  0.00     0.210 HD
ENDBRANCH   5  33
BRANCH   6  35
HETATM   35  O11 UNL     1     142.679  64.221 132.522  1.00  0.00    -0.388 OA
ATOM     36  H11 UNL     1     141.970  64.341 133.143  1.00  0.00     0.210 HD
ENDBRANCH   6  35
TORSDOF 12
ENDMDL
