MODEL 8
REMARK VINA RESULT: -8.470835571      0.792      1.461
REMARK  12 active torsions:
REMARK  status: ('A' for Active; 'I' for Inactive)
REMARK    1  A    between atoms: N1_2  and  C1_4 
REMARK    2  A    between atoms: C4_7  and  O3_8 
REMARK    3  A    between atoms: O3_8  and  C5_9 
REMARK    4  A    between atoms: C6_11  and  C7_12 
REMARK    5  A    between atoms: C7_12  and  S1_13 
REMARK    6  A    between atoms: S1_13  and  C8_14 
REMARK    7  A    between atoms: C10_17  and  O6_18 
REMARK    8  A    between atoms: C11_20  and  O7_21 
REMARK    9  A    between atoms: C12_23  and  O8_24 
REMARK   10  A    between atoms: C13_26  and  O9_27 
REMARK   11  A    between atoms: C14_29  and  O10_30 
REMARK   12  A    between atoms: C15_32  and  O11_33 
ROOT
HETATM    1  C5  UNL     1     143.656  61.838 132.308  1.00  0.00     0.298 C 
HETATM    2  O4  UNL     1     144.982  62.126 132.522  1.00  0.00    -0.349 OA
HETATM    3  C6  UNL     1     145.288  63.010 133.507  1.00  0.00     0.165 C 
HETATM    4  C13 UNL     1     144.396  64.233 133.575  1.00  0.00     0.179 C 
HETATM    5  C14 UNL     1     143.693  64.275 132.212  1.00  0.00     0.183 C 
HETATM    6  C15 UNL     1     142.768  63.083 132.233  1.00  0.00     0.205 C 
ENDROOT
BRANCH   3   7
HETATM    7  C7  UNL     1     145.514  62.399 134.874  1.00  0.00     0.111 C 
BRANCH   7   8
HETATM    8  S1  UNL     1     147.203  62.759 135.464  1.00  0.00    -0.132 SA
BRANCH   8   9
HETATM    9  C8  UNL     1     147.711  61.478 136.625  1.00  0.00     0.214 C 
HETATM   10  O5  UNL     1     146.806  61.322 137.669  1.00  0.00    -0.370 OA
HETATM   11  C9  UNL     1     147.293  60.452 138.610  1.00  0.00     0.203 C 
HETATM   12  C10 UNL     1     147.707  59.113 138.096  1.00  0.00     0.173 C 
HETATM   13  C11 UNL     1     148.454  59.177 136.781  1.00  0.00     0.181 C 
HETATM   14  C12 UNL     1     147.732  60.153 135.861  1.00  0.00     0.188 C 
BRANCH  12  15
HETATM   15  O6  UNL     1     146.660  58.217 137.974  1.00  0.00    -0.391 OA
ATOM     16  H6  UNL     1     146.141  58.342 137.188  1.00  0.00     0.210 HD
ENDBRANCH  12  15
BRANCH  13  17
HETATM   17  O7  UNL     1     149.726  59.712 136.991  1.00  0.00    -0.390 OA
ATOM     18  H7  UNL     1     150.265  59.562 136.223  1.00  0.00     0.210 HD
ENDBRANCH  13  17
BRANCH  14  19
HETATM   19  O8  UNL     1     146.417  59.772 135.623  1.00  0.00    -0.389 OA
ATOM     20  H8  UNL     1     146.242  59.884 134.695  1.00  0.00     0.210 HD
ENDBRANCH  14  19
ENDBRANCH   8   9
ENDBRANCH   7   8
ENDBRANCH   3   7
BRANCH   4  21
HETATM   21  O9  UNL     1     145.115  65.407 133.780  1.00  0.00    -0.390 OA
ATOM     22  H9  UNL     1     145.610  65.668 133.013  1.00  0.00     0.210 HD
ENDBRANCH   4  21
BRANCH   1  23
HETATM   23  O3  UNL     1     143.146  60.884 133.169  1.00  0.00    -0.318 OA
BRANCH  23  24
HETATM   24  C4  UNL     1     142.860  59.566 132.958  1.00  0.00     0.072 A 
HETATM   25  C3  UNL     1     141.657  58.980 133.218  1.00  0.00     0.039 A 
HETATM   26  C2  UNL     1     141.403  57.621 132.988  1.00  0.00     0.039 A 
HETATM   27  C1  UNL     1     142.400  56.830 132.479  1.00  0.00     0.103 A 
HETATM   28  C17 UNL     1     143.640  57.406 132.205  1.00  0.00     0.039 A 
HETATM   29  C16 UNL     1     143.870  58.744 132.438  1.00  0.00     0.039 A 
BRANCH  27  30
HETATM   30  N1  UNL     1     142.151  55.462 132.247  1.00  0.00    -0.116 N 
HETATM   31  O1  UNL     1     142.578  54.618 133.050  1.00  0.00    -0.532 OA
HETATM   32  O2  UNL     1     141.442  55.030 131.148  1.00  0.00    -0.532 OA
ENDBRANCH  27  30
ENDBRANCH  23  24
ENDBRANCH   1  23
BRANCH   5  33
HETATM   33  O10 UNL     1     143.030  65.473 132.043  1.00  0.00    -0.390 OA
ATOM     34  H10 UNL     1     143.639  66.163 131.808  1.00  0.00     0.210 HD
ENDBRANCH   5  33
BRANCH   6  35
HETATM   35  O11 UNL     1     141.905  63.056 131.160  1.00  0.00    -0.388 OA
ATOM     36  H11 UNL     1     141.045  62.725 131.390  1.00  0.00     0.210 HD
ENDBRANCH   6  35
TORSDOF 12
ENDMDL
