MODEL 3
REMARK VINA RESULT: -8.890848028      2.443      6.825
REMARK  12 active torsions:
REMARK  status: ('A' for Active; 'I' for Inactive)
REMARK    1  A    between atoms: N1_2  and  C1_4 
REMARK    2  A    between atoms: C4_7  and  O3_8 
REMARK    3  A    between atoms: O3_8  and  C5_9 
REMARK    4  A    between atoms: C6_11  and  C7_12 
REMARK    5  A    between atoms: C7_12  and  S1_13 
REMARK    6  A    between atoms: S1_13  and  C8_14 
REMARK    7  A    between atoms: C10_17  and  O6_18 
REMARK    8  A    between atoms: C11_20  and  O7_21 
REMARK    9  A    between atoms: C12_23  and  O8_24 
REMARK   10  A    between atoms: C13_26  and  O9_27 
REMARK   11  A    between atoms: C14_29  and  O10_30 
REMARK   12  A    between atoms: C15_32  and  O11_33 
ROOT
HETATM    1  C5  UNL     1     144.547  63.075 134.376  1.00  0.00     0.298 C 
HETATM    2  O4  UNL     1     143.279  62.709 133.993  1.00  0.00    -0.349 OA
HETATM    3  C6  UNL     1     142.975  62.773 132.670  1.00  0.00     0.165 C 
HETATM    4  C13 UNL     1     143.480  64.007 131.950  1.00  0.00     0.179 C 
HETATM    5  C14 UNL     1     143.809  65.000 133.072  1.00  0.00     0.183 C 
HETATM    6  C15 UNL     1     145.010  64.399 133.762  1.00  0.00     0.205 C 
ENDROOT
BRANCH   3   7
HETATM    7  C7  UNL     1     143.249  61.508 131.884  1.00  0.00     0.111 C 
BRANCH   7   8
HETATM    8  S1  UNL     1     142.715  60.040 132.828  1.00  0.00    -0.132 SA
BRANCH   8   9
HETATM    9  C8  UNL     1     142.901  58.573 131.797  1.00  0.00     0.214 C 
HETATM   10  O5  UNL     1     143.551  57.540 132.463  1.00  0.00    -0.370 OA
HETATM   11  C9  UNL     1     143.811  56.499 131.609  1.00  0.00     0.203 C 
HETATM   12  C10 UNL     1     142.630  55.961 130.870  1.00  0.00     0.173 C 
HETATM   13  C11 UNL     1     141.698  57.039 130.361  1.00  0.00     0.181 C 
HETATM   14  C12 UNL     1     141.497  58.068 131.465  1.00  0.00     0.188 C 
BRANCH  12  15
HETATM   15  O6  UNL     1     141.897  55.037 131.592  1.00  0.00    -0.391 OA
ATOM     16  H6  UNL     1     140.959  55.098 131.448  1.00  0.00     0.210 HD
ENDBRANCH  12  15
BRANCH  13  17
HETATM   17  O7  UNL     1     142.302  57.719 129.302  1.00  0.00    -0.390 OA
ATOM     18  H7  UNL     1     142.077  58.641 129.347  1.00  0.00     0.210 HD
ENDBRANCH  13  17
BRANCH  14  19
HETATM   19  O8  UNL     1     140.959  57.503 132.615  1.00  0.00    -0.389 OA
ATOM     20  H8  UNL     1     140.712  56.607 132.416  1.00  0.00     0.210 HD
ENDBRANCH  14  19
ENDBRANCH   8   9
ENDBRANCH   7   8
ENDBRANCH   3   7
BRANCH   4  21
HETATM   21  O9  UNL     1     142.529  64.551 131.092  1.00  0.00    -0.390 OA
ATOM     22  H9  UNL     1     142.918  64.936 130.315  1.00  0.00     0.210 HD
ENDBRANCH   4  21
BRANCH   1  23
HETATM   23  O3  UNL     1     145.487  62.073 134.225  1.00  0.00    -0.318 OA
BRANCH  23  24
HETATM   24  C4  UNL     1     146.153  61.337 135.163  1.00  0.00     0.072 A 
HETATM   25  C3  UNL     1     145.787  60.090 135.574  1.00  0.00     0.039 A 
HETATM   26  C2  UNL     1     146.497  59.366 136.541  1.00  0.00     0.039 A 
HETATM   27  C1  UNL     1     147.614  59.922 137.110  1.00  0.00     0.103 A 
HETATM   28  C17 UNL     1     148.008  61.197 136.705  1.00  0.00     0.039 A 
HETATM   29  C16 UNL     1     147.295  61.893 135.754  1.00  0.00     0.039 A 
BRANCH  27  30
HETATM   30  N1  UNL     1     148.332  59.198 138.084  1.00  0.00    -0.116 N 
HETATM   31  O1  UNL     1     148.046  59.338 139.283  1.00  0.00    -0.532 OA
HETATM   32  O2  UNL     1     149.348  58.335 137.743  1.00  0.00    -0.532 OA
ENDBRANCH  27  30
ENDBRANCH  23  24
ENDBRANCH   1  23
BRANCH   5  33
HETATM   33  O10 UNL     1     144.054  66.256 132.555  1.00  0.00    -0.390 OA
ATOM     34  H10 UNL     1     144.188  66.886 133.254  1.00  0.00     0.210 HD
ENDBRANCH   5  33
BRANCH   6  35
HETATM   35  O11 UNL     1     145.574  65.246 134.689  1.00  0.00    -0.388 OA
ATOM     36  H11 UNL     1     145.005  65.972 134.917  1.00  0.00     0.210 HD
ENDBRANCH   6  35
TORSDOF 12
ENDMDL
