MODEL 4
REMARK VINA RESULT: -8.715566570      2.961      7.325
REMARK  12 active torsions:
REMARK  status: ('A' for Active; 'I' for Inactive)
REMARK    1  A    between atoms: N1_2  and  C1_4 
REMARK    2  A    between atoms: C4_7  and  O3_8 
REMARK    3  A    between atoms: O3_8  and  C5_9 
REMARK    4  A    between atoms: C6_11  and  C7_12 
REMARK    5  A    between atoms: C7_12  and  S1_13 
REMARK    6  A    between atoms: S1_13  and  C8_14 
REMARK    7  A    between atoms: C10_17  and  O6_18 
REMARK    8  A    between atoms: C11_20  and  O7_21 
REMARK    9  A    between atoms: C12_23  and  O8_24 
REMARK   10  A    between atoms: C13_26  and  O9_27 
REMARK   11  A    between atoms: C14_29  and  O10_30 
REMARK   12  A    between atoms: C15_32  and  O11_33 
ROOT
HETATM    1  C5  UNL     1     144.493  62.108 134.203  1.00  0.00     0.298 C 
HETATM    2  O4  UNL     1     143.622  61.058 134.041  1.00  0.00    -0.349 OA
HETATM    3  C6  UNL     1     143.441  60.573 132.784  1.00  0.00     0.165 C 
HETATM    4  C13 UNL     1     143.313  61.623 131.700  1.00  0.00     0.179 C 
HETATM    5  C14 UNL     1     142.997  62.921 132.456  1.00  0.00     0.183 C 
HETATM    6  C15 UNL     1     144.273  63.241 133.196  1.00  0.00     0.205 C 
ENDROOT
BRANCH   3   7
HETATM    7  C7  UNL     1     144.384  59.458 132.382  1.00  0.00     0.111 C 
BRANCH   7   8
HETATM    8  S1  UNL     1     143.444  57.993 131.834  1.00  0.00    -0.132 SA
BRANCH   8   9
HETATM    9  C8  UNL     1     144.311  57.213 130.460  1.00  0.00     0.214 C 
HETATM   10  O5  UNL     1     145.296  56.331 130.890  1.00  0.00    -0.370 OA
HETATM   11  C9  UNL     1     146.035  55.873 129.830  1.00  0.00     0.203 C 
HETATM   12  C10 UNL     1     145.252  55.254 128.719  1.00  0.00     0.173 C 
HETATM   13  C11 UNL     1     143.983  56.007 128.385  1.00  0.00     0.181 C 
HETATM   14  C12 UNL     1     143.287  56.383 129.686  1.00  0.00     0.188 C 
BRANCH  12  15
HETATM   15  O6  UNL     1     144.942  53.923 128.932  1.00  0.00    -0.391 OA
ATOM     16  H6  UNL     1     144.799  53.432 128.131  1.00  0.00     0.210 HD
ENDBRANCH  12  15
BRANCH  13  17
HETATM   17  O7  UNL     1     144.305  57.211 127.755  1.00  0.00    -0.390 OA
ATOM     18  H7  UNL     1     145.054  57.082 127.186  1.00  0.00     0.210 HD
ENDBRANCH  13  17
BRANCH  14  19
HETATM   19  O8  UNL     1     142.969  55.267 130.451  1.00  0.00    -0.389 OA
ATOM     20  H8  UNL     1     142.556  55.567 131.252  1.00  0.00     0.210 HD
ENDBRANCH  14  19
ENDBRANCH   8   9
ENDBRANCH   7   8
ENDBRANCH   3   7
BRANCH   4  21
HETATM   21  O9  UNL     1     142.295  61.336 130.797  1.00  0.00    -0.390 OA
ATOM     22  H9  UNL     1     142.617  61.215 129.911  1.00  0.00     0.210 HD
ENDBRANCH   4  21
BRANCH   1  23
HETATM   23  O3  UNL     1     145.819  61.728 134.279  1.00  0.00    -0.318 OA
BRANCH  23  24
HETATM   24  C4  UNL     1     146.504  61.103 135.282  1.00  0.00     0.072 A 
HETATM   25  C3  UNL     1     147.607  61.609 135.902  1.00  0.00     0.039 A 
HETATM   26  C2  UNL     1     148.283  60.935 136.928  1.00  0.00     0.039 A 
HETATM   27  C1  UNL     1     147.827  59.711 137.340  1.00  0.00     0.103 A 
HETATM   28  C17 UNL     1     146.699  59.172 136.721  1.00  0.00     0.039 A 
HETATM   29  C16 UNL     1     146.049  59.850 135.713  1.00  0.00     0.039 A 
BRANCH  27  30
HETATM   30  N1  UNL     1     148.503  59.028 138.371  1.00  0.00    -0.116 N 
HETATM   31  O1  UNL     1     148.327  59.372 139.550  1.00  0.00    -0.532 OA
HETATM   32  O2  UNL     1     149.359  57.982 138.109  1.00  0.00    -0.532 OA
ENDBRANCH  27  30
ENDBRANCH  23  24
ENDBRANCH   1  23
BRANCH   5  33
HETATM   33  O10 UNL     1     142.616  63.916 131.578  1.00  0.00    -0.390 OA
ATOM     34  H10 UNL     1     143.243  63.994 130.868  1.00  0.00     0.210 HD
ENDBRANCH   5  33
BRANCH   6  35
HETATM   35  O11 UNL     1     144.250  64.483 133.791  1.00  0.00    -0.388 OA
ATOM     36  H11 UNL     1     143.571  64.560 134.452  1.00  0.00     0.210 HD
ENDBRANCH   6  35
TORSDOF 12
ENDMDL
