MODEL 1
REMARK VINA RESULT: -9.236957542      0.000      0.000
REMARK  12 active torsions:
REMARK  status: ('A' for Active; 'I' for Inactive)
REMARK    1  A    between atoms: N1_2  and  C1_4 
REMARK    2  A    between atoms: C4_7  and  O3_8 
REMARK    3  A    between atoms: O3_8  and  C5_9 
REMARK    4  A    between atoms: C6_11  and  C7_12 
REMARK    5  A    between atoms: C7_12  and  S1_13 
REMARK    6  A    between atoms: S1_13  and  C8_14 
REMARK    7  A    between atoms: C10_17  and  O6_18 
REMARK    8  A    between atoms: C11_20  and  O7_21 
REMARK    9  A    between atoms: C12_23  and  O8_24 
REMARK   10  A    between atoms: C13_26  and  O9_27 
REMARK   11  A    between atoms: C14_29  and  O10_30 
REMARK   12  A    between atoms: C15_32  and  O11_33 
ROOT
HETATM    1  C5  UNL     1     143.954  61.911 132.374  1.00  0.00     0.298 C 
HETATM    2  O4  UNL     1     145.237  62.324 132.638  1.00  0.00    -0.349 OA
HETATM    3  C6  UNL     1     145.420  63.227 133.637  1.00  0.00     0.165 C 
HETATM    4  C13 UNL     1     144.412  64.358 133.676  1.00  0.00     0.179 C 
HETATM    5  C14 UNL     1     143.759  64.341 132.287  1.00  0.00     0.183 C 
HETATM    6  C15 UNL     1     142.953  63.066 132.270  1.00  0.00     0.205 C 
ENDROOT
BRANCH   3   7
HETATM    7  C7  UNL     1     145.653  62.631 135.009  1.00  0.00     0.111 C 
BRANCH   7   8
HETATM    8  S1  UNL     1     146.740  61.169 134.895  1.00  0.00    -0.132 SA
BRANCH   8   9
HETATM    9  C8  UNL     1     146.849  60.384 136.513  1.00  0.00     0.214 C 
HETATM   10  O5  UNL     1     146.851  58.997 136.428  1.00  0.00    -0.370 OA
HETATM   11  C9  UNL     1     146.781  58.432 137.675  1.00  0.00     0.203 C 
HETATM   12  C10 UNL     1     147.825  58.881 138.645  1.00  0.00     0.173 C 
HETATM   13  C11 UNL     1     148.100  60.368 138.587  1.00  0.00     0.181 C 
HETATM   14  C12 UNL     1     148.190  60.788 137.127  1.00  0.00     0.188 C 
BRANCH  12  15
HETATM   15  O6  UNL     1     149.022  58.198 138.526  1.00  0.00    -0.391 OA
ATOM     16  H6  UNL     1     149.709  58.532 139.091  1.00  0.00     0.210 HD
ENDBRANCH  12  15
BRANCH  13  17
HETATM   17  O7  UNL     1     147.017  61.065 139.126  1.00  0.00    -0.390 OA
ATOM     18  H7  UNL     1     147.329  61.691 139.768  1.00  0.00     0.210 HD
ENDBRANCH  13  17
BRANCH  14  19
HETATM   19  O8  UNL     1     149.196  60.110 136.448  1.00  0.00    -0.389 OA
ATOM     20  H8  UNL     1     149.950  60.686 136.386  1.00  0.00     0.210 HD
ENDBRANCH  14  19
ENDBRANCH   8   9
ENDBRANCH   7   8
ENDBRANCH   3   7
BRANCH   4  21
HETATM   21  O9  UNL     1     145.006  65.594 133.911  1.00  0.00    -0.390 OA
ATOM     22  H9  UNL     1     145.774  65.737 133.370  1.00  0.00     0.210 HD
ENDBRANCH   4  21
BRANCH   1  23
HETATM   23  O3  UNL     1     143.506  60.907 133.212  1.00  0.00    -0.318 OA
BRANCH  23  24
HETATM   24  C4  UNL     1     143.123  59.627 132.932  1.00  0.00     0.072 A 
HETATM   25  C3  UNL     1     141.886  59.114 133.185  1.00  0.00     0.039 A 
HETATM   26  C2  UNL     1     141.531  57.792 132.882  1.00  0.00     0.039 A 
HETATM   27  C1  UNL     1     142.457  56.964 132.304  1.00  0.00     0.103 A 
HETATM   28  C17 UNL     1     143.730  57.467 132.035  1.00  0.00     0.039 A 
HETATM   29  C16 UNL     1     144.060  58.769 132.341  1.00  0.00     0.039 A 
BRANCH  27  30
HETATM   30  N1  UNL     1     142.106  55.634 131.999  1.00  0.00    -0.116 N 
HETATM   31  O1  UNL     1     141.588  55.375 130.901  1.00  0.00    -0.532 OA
HETATM   32  O2  UNL     1     142.323  54.605 132.886  1.00  0.00    -0.532 OA
ENDBRANCH  27  30
ENDBRANCH  23  24
ENDBRANCH   1  23
BRANCH   5  33
HETATM   33  O10 UNL     1     142.990  65.471 132.097  1.00  0.00    -0.390 OA
ATOM     34  H10 UNL     1     143.425  66.077 131.508  1.00  0.00     0.210 HD
ENDBRANCH   5  33
BRANCH   6  35
HETATM   35  O11 UNL     1     142.137  62.963 131.165  1.00  0.00    -0.388 OA
ATOM     36  H11 UNL     1     141.220  63.098 131.373  1.00  0.00     0.210 HD
ENDBRANCH   6  35
TORSDOF 12
ENDMDL
