MODEL 2
REMARK VINA RESULT: -9.075623412      0.843      1.730
REMARK  12 active torsions:
REMARK  status: ('A' for Active; 'I' for Inactive)
REMARK    1  A    between atoms: N1_2  and  C1_4 
REMARK    2  A    between atoms: C4_7  and  O3_8 
REMARK    3  A    between atoms: O3_8  and  C5_9 
REMARK    4  A    between atoms: C6_11  and  C7_12 
REMARK    5  A    between atoms: C7_12  and  S1_13 
REMARK    6  A    between atoms: S1_13  and  C8_14 
REMARK    7  A    between atoms: C10_17  and  O6_18 
REMARK    8  A    between atoms: C11_20  and  O7_21 
REMARK    9  A    between atoms: C12_23  and  O8_24 
REMARK   10  A    between atoms: C13_26  and  O9_27 
REMARK   11  A    between atoms: C14_29  and  O10_30 
REMARK   12  A    between atoms: C15_32  and  O11_33 
ROOT
HETATM    1  C5  UNL     1     143.730  62.036 132.259  1.00  0.00     0.298 C 
HETATM    2  O4  UNL     1     145.073  61.958 132.536  1.00  0.00    -0.349 OA
HETATM    3  C6  UNL     1     145.528  62.598 133.645  1.00  0.00     0.165 C 
HETATM    4  C13 UNL     1     144.953  63.980 133.875  1.00  0.00     0.179 C 
HETATM    5  C14 UNL     1     144.354  64.379 132.520  1.00  0.00     0.183 C 
HETATM    6  C15 UNL     1     143.170  63.458 132.350  1.00  0.00     0.205 C 
ENDROOT
BRANCH   3   7
HETATM    7  C7  UNL     1     145.529  61.768 134.912  1.00  0.00     0.111 C 
BRANCH   7   8
HETATM    8  S1  UNL     1     147.063  62.050 135.861  1.00  0.00    -0.132 SA
BRANCH   8   9
HETATM    9  C8  UNL     1     147.639  60.481 136.535  1.00  0.00     0.214 C 
HETATM   10  O5  UNL     1     148.982  60.522 136.893  1.00  0.00    -0.370 OA
HETATM   11  C9  UNL     1     149.427  59.278 137.257  1.00  0.00     0.203 C 
HETATM   12  C10 UNL     1     148.638  58.600 138.330  1.00  0.00     0.173 C 
HETATM   13  C11 UNL     1     147.142  58.767 138.172  1.00  0.00     0.181 C 
HETATM   14  C12 UNL     1     146.850  60.219 137.818  1.00  0.00     0.188 C 
BRANCH  12  15
HETATM   15  O6  UNL     1     149.000  58.980 139.609  1.00  0.00    -0.391 OA
ATOM     16  H6  UNL     1     149.685  58.442 139.987  1.00  0.00     0.210 HD
ENDBRANCH  12  15
BRANCH  13  17
HETATM   17  O7  UNL     1     146.698  58.007 137.088  1.00  0.00    -0.390 OA
ATOM     18  H7  UNL     1     146.203  58.559 136.494  1.00  0.00     0.210 HD
ENDBRANCH  13  17
BRANCH  14  19
HETATM   19  O8  UNL     1     147.309  61.097 138.793  1.00  0.00    -0.389 OA
ATOM     20  H8  UNL     1     146.938  60.832 139.627  1.00  0.00     0.210 HD
ENDBRANCH  14  19
ENDBRANCH   8   9
ENDBRANCH   7   8
ENDBRANCH   3   7
BRANCH   4  21
HETATM   21  O9  UNL     1     145.919  64.903 134.262  1.00  0.00    -0.390 OA
ATOM     22  H9  UNL     1     145.692  65.792 134.018  1.00  0.00     0.210 HD
ENDBRANCH   4  21
BRANCH   1  23
HETATM   23  O3  UNL     1     142.961  61.127 132.961  1.00  0.00    -0.318 OA
BRANCH  23  24
HETATM   24  C4  UNL     1     142.855  59.772 132.831  1.00  0.00     0.072 A 
HETATM   25  C3  UNL     1     143.880  58.941 132.491  1.00  0.00     0.039 A 
HETATM   26  C2  UNL     1     143.729  57.553 132.367  1.00  0.00     0.039 A 
HETATM   27  C1  UNL     1     142.502  56.988 132.595  1.00  0.00     0.103 A 
HETATM   28  C17 UNL     1     141.437  57.818 132.945  1.00  0.00     0.039 A 
HETATM   29  C16 UNL     1     141.605  59.181 133.061  1.00  0.00     0.039 A 
BRANCH  27  30
HETATM   30  N1  UNL     1     142.344  55.593 132.471  1.00  0.00    -0.116 N 
HETATM   31  O1  UNL     1     142.886  54.841 133.296  1.00  0.00    -0.532 OA
HETATM   32  O2  UNL     1     141.601  55.035 131.456  1.00  0.00    -0.532 OA
ENDBRANCH  27  30
ENDBRANCH  23  24
ENDBRANCH   1  23
BRANCH   5  33
HETATM   33  O10 UNL     1     144.006  65.714 132.516  1.00  0.00    -0.390 OA
ATOM     34  H10 UNL     1     144.731  66.251 132.815  1.00  0.00     0.210 HD
ENDBRANCH   5  33
BRANCH   6  35
HETATM   35  O11 UNL     1     142.385  63.790 131.269  1.00  0.00    -0.388 OA
ATOM     36  H11 UNL     1     141.487  63.495 131.365  1.00  0.00     0.210 HD
ENDBRANCH   6  35
TORSDOF 12
ENDMDL
