MODEL 7
REMARK VINA RESULT: -8.486820385      0.836      1.833
REMARK  12 active torsions:
REMARK  status: ('A' for Active; 'I' for Inactive)
REMARK    1  A    between atoms: N1_2  and  C1_4 
REMARK    2  A    between atoms: C4_7  and  O3_8 
REMARK    3  A    between atoms: O3_8  and  C5_9 
REMARK    4  A    between atoms: C6_11  and  C7_12 
REMARK    5  A    between atoms: C7_12  and  S1_13 
REMARK    6  A    between atoms: S1_13  and  C8_14 
REMARK    7  A    between atoms: C10_17  and  O6_18 
REMARK    8  A    between atoms: C11_20  and  O7_21 
REMARK    9  A    between atoms: C12_23  and  O8_24 
REMARK   10  A    between atoms: C13_26  and  O9_27 
REMARK   11  A    between atoms: C14_29  and  O10_30 
REMARK   12  A    between atoms: C15_32  and  O11_33 
ROOT
HETATM    1  C5  UNL     1     143.568  61.952 132.156  1.00  0.00     0.298 C 
HETATM    2  O4  UNL     1     144.904  62.183 132.375  1.00  0.00    -0.349 OA
HETATM    3  C6  UNL     1     145.245  63.010 133.398  1.00  0.00     0.165 C 
HETATM    4  C13 UNL     1     144.398  64.260 133.526  1.00  0.00     0.179 C 
HETATM    5  C14 UNL     1     143.692  64.388 132.170  1.00  0.00     0.183 C 
HETATM    6  C15 UNL     1     142.724  63.230 132.141  1.00  0.00     0.205 C 
ENDROOT
BRANCH   3   7
HETATM    7  C7  UNL     1     145.454  62.330 134.735  1.00  0.00     0.111 C 
BRANCH   7   8
HETATM    8  S1  UNL     1     146.100  60.639 134.498  1.00  0.00    -0.132 SA
BRANCH   8   9
HETATM    9  C8  UNL     1     147.413  60.334 135.693  1.00  0.00     0.214 C 
HETATM   10  O5  UNL     1     147.586  61.399 136.570  1.00  0.00    -0.370 OA
HETATM   11  C9  UNL     1     148.686  61.201 137.365  1.00  0.00     0.203 C 
HETATM   12  C10 UNL     1     148.710  59.914 138.122  1.00  0.00     0.173 C 
HETATM   13  C11 UNL     1     148.239  58.728 137.308  1.00  0.00     0.181 C 
HETATM   14  C12 UNL     1     146.988  59.133 136.540  1.00  0.00     0.188 C 
BRANCH  12  15
HETATM   15  O6  UNL     1     148.000  59.954 139.308  1.00  0.00    -0.391 OA
ATOM     16  H6  UNL     1     148.219  60.698 139.858  1.00  0.00     0.210 HD
ENDBRANCH  12  15
BRANCH  13  17
HETATM   17  O7  UNL     1     149.199  58.411 136.345  1.00  0.00    -0.390 OA
ATOM     18  H7  UNL     1     150.063  58.627 136.674  1.00  0.00     0.210 HD
ENDBRANCH  13  17
BRANCH  14  19
HETATM   19  O8  UNL     1     145.965  59.543 137.387  1.00  0.00    -0.389 OA
ATOM     20  H8  UNL     1     146.224  59.346 138.280  1.00  0.00     0.210 HD
ENDBRANCH  14  19
ENDBRANCH   8   9
ENDBRANCH   7   8
ENDBRANCH   3   7
BRANCH   4  21
HETATM   21  O9  UNL     1     145.158  65.397 133.780  1.00  0.00    -0.390 OA
ATOM     22  H9  UNL     1     145.579  65.735 132.998  1.00  0.00     0.210 HD
ENDBRANCH   4  21
BRANCH   1  23
HETATM   23  O3  UNL     1     143.027  60.979 132.975  1.00  0.00    -0.318 OA
BRANCH  23  24
HETATM   24  C4  UNL     1     142.861  59.640 132.766  1.00  0.00     0.072 A 
HETATM   25  C3  UNL     1     143.778  58.827 132.172  1.00  0.00     0.039 A 
HETATM   26  C2  UNL     1     143.570  57.455 131.975  1.00  0.00     0.039 A 
HETATM   27  C1  UNL     1     142.395  56.888 132.395  1.00  0.00     0.103 A 
HETATM   28  C17 UNL     1     141.440  57.700 133.007  1.00  0.00     0.039 A 
HETATM   29  C16 UNL     1     141.664  59.048 133.190  1.00  0.00     0.039 A 
BRANCH  27  30
HETATM   30  N1  UNL     1     142.179  55.509 132.200  1.00  0.00    -0.116 N 
HETATM   31  O1  UNL     1     142.606  54.699 133.036  1.00  0.00    -0.532 OA
HETATM   32  O2  UNL     1     141.502  55.030 131.101  1.00  0.00    -0.532 OA
ENDBRANCH  27  30
ENDBRANCH  23  24
ENDBRANCH   1  23
BRANCH   5  33
HETATM   33  O10 UNL     1     143.071  65.615 132.058  1.00  0.00    -0.390 OA
ATOM     34  H10 UNL     1     143.092  65.921 131.158  1.00  0.00     0.210 HD
ENDBRANCH   5  33
BRANCH   6  35
HETATM   35  O11 UNL     1     141.858  63.283 131.073  1.00  0.00    -0.388 OA
ATOM     36  H11 UNL     1     140.977  63.532 131.327  1.00  0.00     0.210 HD
ENDBRANCH   6  35
TORSDOF 12
ENDMDL
