MODEL 6
REMARK VINA RESULT: -8.548268445      2.621      6.834
REMARK  12 active torsions:
REMARK  status: ('A' for Active; 'I' for Inactive)
REMARK    1  A    between atoms: N1_2  and  C1_4 
REMARK    2  A    between atoms: C4_7  and  O3_8 
REMARK    3  A    between atoms: O3_8  and  C5_9 
REMARK    4  A    between atoms: C6_11  and  C7_12 
REMARK    5  A    between atoms: C7_12  and  S1_13 
REMARK    6  A    between atoms: S1_13  and  C8_14 
REMARK    7  A    between atoms: C10_17  and  O6_18 
REMARK    8  A    between atoms: C11_20  and  O7_21 
REMARK    9  A    between atoms: C12_23  and  O8_24 
REMARK   10  A    between atoms: C13_26  and  O9_27 
REMARK   11  A    between atoms: C14_29  and  O10_30 
REMARK   12  A    between atoms: C15_32  and  O11_33 
ROOT
HETATM    1  C5  UNL     1     144.642  62.948 134.345  1.00  0.00     0.298 C 
HETATM    2  O4  UNL     1     143.400  62.431 134.065  1.00  0.00    -0.349 OA
HETATM    3  C6  UNL     1     143.032  62.340 132.760  1.00  0.00     0.165 C 
HETATM    4  C13 UNL     1     143.382  63.540 131.905  1.00  0.00     0.179 C 
HETATM    5  C14 UNL     1     143.663  64.663 132.913  1.00  0.00     0.183 C 
HETATM    6  C15 UNL     1     144.946  64.245 133.589  1.00  0.00     0.205 C 
ENDROOT
BRANCH   3   7
HETATM    7  C7  UNL     1     143.394  61.036 132.079  1.00  0.00     0.111 C 
BRANCH   7   8
HETATM    8  S1  UNL     1     141.933  59.948 131.965  1.00  0.00    -0.132 SA
BRANCH   8   9
HETATM    9  C8  UNL     1     142.338  58.518 130.945  1.00  0.00     0.214 C 
HETATM   10  O5  UNL     1     143.506  58.706 130.214  1.00  0.00    -0.370 OA
HETATM   11  C9  UNL     1     143.704  57.669 129.339  1.00  0.00     0.203 C 
HETATM   12  C10 UNL     1     143.700  56.304 129.945  1.00  0.00     0.173 C 
HETATM   13  C11 UNL     1     142.622  56.113 130.990  1.00  0.00     0.181 C 
HETATM   14  C12 UNL     1     142.594  57.342 131.888  1.00  0.00     0.188 C 
BRANCH  12  15
HETATM   15  O6  UNL     1     144.918  55.932 130.484  1.00  0.00    -0.391 OA
ATOM     16  H6  UNL     1     145.012  56.154 131.403  1.00  0.00     0.210 HD
ENDBRANCH  12  15
BRANCH  13  17
HETATM   17  O7  UNL     1     141.373  56.058 130.369  1.00  0.00    -0.390 OA
ATOM     18  H7  UNL     1     140.726  56.487 130.917  1.00  0.00     0.210 HD
ENDBRANCH  13  17
BRANCH  14  19
HETATM   19  O8  UNL     1     143.813  57.555 132.521  1.00  0.00    -0.389 OA
ATOM     20  H8  UNL     1     144.410  56.866 132.251  1.00  0.00     0.210 HD
ENDBRANCH  14  19
ENDBRANCH   8   9
ENDBRANCH   7   8
ENDBRANCH   3   7
BRANCH   4  21
HETATM   21  O9  UNL     1     142.346  63.909 131.053  1.00  0.00    -0.390 OA
ATOM     22  H9  UNL     1     142.656  64.162 130.191  1.00  0.00     0.210 HD
ENDBRANCH   4  21
BRANCH   1  23
HETATM   23  O3  UNL     1     145.668  62.029 134.236  1.00  0.00    -0.318 OA
BRANCH  23  24
HETATM   24  C4  UNL     1     146.297  61.288 135.196  1.00  0.00     0.072 A 
HETATM   25  C3  UNL     1     145.936  60.028 135.566  1.00  0.00     0.039 A 
HETATM   26  C2  UNL     1     146.608  59.300 136.557  1.00  0.00     0.039 A 
HETATM   27  C1  UNL     1     147.681  59.867 137.194  1.00  0.00     0.103 A 
HETATM   28  C17 UNL     1     148.071  61.157 136.832  1.00  0.00     0.039 A 
HETATM   29  C16 UNL     1     147.396  61.856 135.855  1.00  0.00     0.039 A 
BRANCH  27  30
HETATM   30  N1  UNL     1     148.361  59.141 138.192  1.00  0.00    -0.116 N 
HETATM   31  O1  UNL     1     148.060  59.311 139.384  1.00  0.00    -0.532 OA
HETATM   32  O2  UNL     1     149.355  58.240 137.884  1.00  0.00    -0.532 OA
ENDBRANCH  27  30
ENDBRANCH  23  24
ENDBRANCH   1  23
BRANCH   5  33
HETATM   33  O10 UNL     1     143.761  65.880 132.271  1.00  0.00    -0.390 OA
ATOM     34  H10 UNL     1     144.408  65.842 131.575  1.00  0.00     0.210 HD
ENDBRANCH   5  33
BRANCH   6  35
HETATM   35  O11 UNL     1     145.465  65.226 134.404  1.00  0.00    -0.388 OA
ATOM     36  H11 UNL     1     146.233  65.644 134.031  1.00  0.00     0.210 HD
ENDBRANCH   6  35
TORSDOF 12
ENDMDL
