MODEL 3
REMARK VINA RESULT: -7.451000553      1.072      1.154
REMARK  7 active torsions:
REMARK  status: ('A' for Active; 'I' for Inactive)
REMARK    1  A    between atoms: N1_4  and  C4_5 
REMARK    2  A    between atoms: C4_5  and  C5_6 
REMARK    3  A    between atoms: C5_6  and  N2_7 
REMARK    4  A    between atoms: C5_6  and  C6_11 
REMARK    5  A    between atoms: N3_16  and  C8_17 
REMARK    6  A    between atoms: C8_17  and  C9_18 
REMARK    7  A    between atoms: C12_22  and  C13_23 
ROOT
HETATM    1  C1  UNL     1      -4.832  -0.115  15.867  1.00  0.00     0.056 C 
HETATM    2  C2  UNL     1      -4.501  -1.444  15.265  1.00  0.00     0.022 A 
HETATM    3  C3  UNL     1      -5.432  -2.115  14.503  1.00  0.00     0.108 A 
HETATM    4  N1  UNL     1      -5.147  -3.308  13.959  1.00  0.00    -0.306 N 
HETATM    5  C7  UNL     1      -3.892  -3.805  14.210  1.00  0.00     0.331 A 
HETATM    6  O3  UNL     1      -3.682  -4.917  13.678  1.00  0.00    -0.246 OA
HETATM    7  N3  UNL     1      -2.968  -3.192  14.939  1.00  0.00    -0.261 N 
HETATM    8  C14 UNL     1      -3.253  -1.971  15.497  1.00  0.00     0.259 A 
HETATM    9  O6  UNL     1      -2.395  -1.356  16.192  1.00  0.00    -0.267 OA
ENDROOT
BRANCH   4  10
HETATM   10  C4  UNL     1      -6.088  -4.048  13.147  1.00  0.00     0.177 C 
BRANCH  10  11
HETATM   11  C5  UNL     1      -6.942  -5.018  13.929  1.00  0.00     0.301 C 
BRANCH  11  12
HETATM   12  N2  UNL     1      -7.327  -6.075  12.980  1.00  0.00    -0.064 N 
ATOM     13  H23 UNL     1      -7.356  -5.761  12.011  1.00  0.00     0.275 HD
ATOM     14  H22 UNL     1      -6.611  -6.792  12.856  1.00  0.00     0.275 HD
ATOM     15  H21 UNL     1      -8.217  -6.443  13.316  1.00  0.00     0.275 HD
ENDBRANCH  11  12
BRANCH  11  16
HETATM   16  C6  UNL     1      -8.172  -4.322  14.350  1.00  0.00     0.206 C 
HETATM   17  O1  UNL     1      -8.266  -3.911  15.546  1.00  0.00    -0.646 OA
HETATM   18  O2  UNL     1      -9.247  -4.084  13.513  1.00  0.00    -0.646 OA
ENDBRANCH  11  16
ENDBRANCH  10  11
ENDBRANCH   4  10
BRANCH   7  19
HETATM   19  C8  UNL     1      -1.626  -3.660  15.204  1.00  0.00     0.177 C 
BRANCH  19  20
HETATM   20  C9  UNL     1      -1.585  -4.675  16.351  1.00  0.00    -0.015 A 
HETATM   21  C10 UNL     1      -1.811  -4.272  17.616  1.00  0.00     0.017 A 
HETATM   22  C11 UNL     1      -1.900  -5.233  18.581  1.00  0.00     0.051 A 
HETATM   23  S1  UNL     1      -1.668  -6.673  17.727  1.00  0.00    -0.095 SA
HETATM   24  C12 UNL     1      -1.455  -6.008  16.129  1.00  0.00     0.089 A 
BRANCH  24  25
HETATM   25  C13 UNL     1      -1.084  -6.795  14.940  1.00  0.00     0.217 C 
HETATM   26  O4  UNL     1      -1.650  -7.899  14.705  1.00  0.00    -0.643 OA
HETATM   27  O5  UNL     1      -0.123  -6.353  14.087  1.00  0.00    -0.643 OA
ENDBRANCH  24  25
ENDBRANCH  19  20
ENDBRANCH   7  19
TORSDOF 7
ENDMDL
