MODEL 6
REMARK VINA RESULT: -7.239017115      2.516      6.398
REMARK  7 active torsions:
REMARK  status: ('A' for Active; 'I' for Inactive)
REMARK    1  A    between atoms: N1_4  and  C4_5 
REMARK    2  A    between atoms: C4_5  and  C5_6 
REMARK    3  A    between atoms: C5_6  and  N2_7 
REMARK    4  A    between atoms: C5_6  and  C6_11 
REMARK    5  A    between atoms: N3_16  and  C8_17 
REMARK    6  A    between atoms: C8_17  and  C9_18 
REMARK    7  A    between atoms: C12_22  and  C13_23 
ROOT
HETATM    1  C1  UNL     1      -5.375  -4.132  11.371  1.00  0.00     0.056 C 
HETATM    2  C2  UNL     1      -5.178  -4.125  12.854  1.00  0.00     0.022 A 
HETATM    3  C3  UNL     1      -3.922  -4.304  13.390  1.00  0.00     0.108 A 
HETATM    4  N1  UNL     1      -3.733  -4.302  14.719  1.00  0.00    -0.306 N 
HETATM    5  C7  UNL     1      -4.854  -4.113  15.490  1.00  0.00     0.331 A 
HETATM    6  O3  UNL     1      -4.618  -4.118  16.719  1.00  0.00    -0.246 OA
HETATM    7  N3  UNL     1      -6.079  -3.937  15.013  1.00  0.00    -0.261 N 
HETATM    8  C14 UNL     1      -6.278  -3.938  13.656  1.00  0.00     0.259 A 
HETATM    9  O6  UNL     1      -7.431  -3.768  13.166  1.00  0.00    -0.267 OA
ENDROOT
BRANCH   4  10
HETATM   10  C4  UNL     1      -2.435  -4.481  15.330  1.00  0.00     0.177 C 
BRANCH  10  11
HETATM   11  C5  UNL     1      -2.197  -5.873  15.866  1.00  0.00     0.301 C 
BRANCH  11  12
HETATM   12  N2  UNL     1      -1.345  -5.710  17.055  1.00  0.00    -0.064 N 
ATOM     13  H23 UNL     1      -0.822  -4.834  17.064  1.00  0.00     0.275 HD
ATOM     14  H22 UNL     1      -1.872  -5.548  17.914  1.00  0.00     0.275 HD
ATOM     15  H21 UNL     1      -0.752  -6.539  17.091  1.00  0.00     0.275 HD
ENDBRANCH  11  12
BRANCH  11  16
HETATM   16  C6  UNL     1      -1.428  -6.633  14.863  1.00  0.00     0.206 C 
HETATM   17  O1  UNL     1      -1.611  -7.884  14.768  1.00  0.00    -0.646 OA
HETATM   18  O2  UNL     1      -0.505  -6.062  14.005  1.00  0.00    -0.646 OA
ENDBRANCH  11  16
ENDBRANCH  10  11
ENDBRANCH   4  10
BRANCH   7  19
HETATM   19  C8  UNL     1      -7.281  -3.704  15.783  1.00  0.00     0.177 C 
BRANCH  19  20
HETATM   20  C9  UNL     1      -7.897  -5.008  16.300  1.00  0.00    -0.015 A 
HETATM   21  C10 UNL     1      -7.418  -5.581  17.420  1.00  0.00     0.017 A 
HETATM   22  C11 UNL     1      -8.087  -6.663  17.916  1.00  0.00     0.051 A 
HETATM   23  S1  UNL     1      -9.363  -6.870  16.825  1.00  0.00    -0.095 SA
HETATM   24  C12 UNL     1      -9.007  -5.553  15.740  1.00  0.00     0.089 A 
BRANCH  24  25
HETATM   25  C13 UNL     1      -9.725  -5.292  14.480  1.00  0.00     0.217 C 
HETATM   26  O4  UNL     1      -9.699  -6.140  13.544  1.00  0.00    -0.643 OA
HETATM   27  O5  UNL     1     -10.417  -4.137  14.301  1.00  0.00    -0.643 OA
ENDBRANCH  24  25
ENDBRANCH  19  20
ENDBRANCH   7  19
TORSDOF 7
ENDMDL
