MODEL 2
REMARK VINA RESULT: -7.619044001      2.330      5.964
REMARK  7 active torsions:
REMARK  status: ('A' for Active; 'I' for Inactive)
REMARK    1  A    between atoms: N1_4  and  C4_5 
REMARK    2  A    between atoms: C4_5  and  C5_6 
REMARK    3  A    between atoms: C5_6  and  N2_7 
REMARK    4  A    between atoms: C5_6  and  C6_11 
REMARK    5  A    between atoms: N3_16  and  C8_17 
REMARK    6  A    between atoms: C8_17  and  C9_18 
REMARK    7  A    between atoms: C12_22  and  C13_23 
ROOT
HETATM    1  C1  UNL     1      -3.054  -1.225  17.088  1.00  0.00     0.056 C 
HETATM    2  C2  UNL     1      -3.616  -2.311  16.225  1.00  0.00     0.022 A 
HETATM    3  C3  UNL     1      -2.779  -3.222  15.619  1.00  0.00     0.108 A 
HETATM    4  N1  UNL     1      -3.272  -4.199  14.842  1.00  0.00    -0.306 N 
HETATM    5  C7  UNL     1      -4.637  -4.227  14.695  1.00  0.00     0.331 A 
HETATM    6  O3  UNL     1      -5.039  -5.159  13.962  1.00  0.00    -0.246 OA
HETATM    7  N3  UNL     1      -5.476  -3.369  15.260  1.00  0.00    -0.261 N 
HETATM    8  C14 UNL     1      -4.979  -2.369  16.056  1.00  0.00     0.259 A 
HETATM    9  O6  UNL     1      -5.749  -1.537  16.615  1.00  0.00    -0.267 OA
ENDROOT
BRANCH   4  10
HETATM   10  C4  UNL     1      -2.436  -5.182  14.188  1.00  0.00     0.177 C 
BRANCH  10  11
HETATM   11  C5  UNL     1      -1.486  -5.896  15.121  1.00  0.00     0.301 C 
BRANCH  11  12
HETATM   12  N2  UNL     1      -0.263  -6.145  14.341  1.00  0.00    -0.064 N 
ATOM     13  H23 UNL     1      -0.174  -5.545  13.521  1.00  0.00     0.275 HD
ATOM     14  H22 UNL     1       0.589  -5.838  14.811  1.00  0.00     0.275 HD
ATOM     15  H21 UNL     1      -0.270  -7.140  14.118  1.00  0.00     0.275 HD
ENDBRANCH  11  12
BRANCH  11  16
HETATM   16  C6  UNL     1      -2.071  -7.204  15.470  1.00  0.00     0.206 C 
HETATM   17  O1  UNL     1      -1.491  -8.261  15.078  1.00  0.00    -0.646 OA
HETATM   18  O2  UNL     1      -3.228  -7.357  16.212  1.00  0.00    -0.646 OA
ENDBRANCH  11  16
ENDBRANCH  10  11
ENDBRANCH   4  10
BRANCH   7  19
HETATM   19  C8  UNL     1      -6.919  -3.377  15.160  1.00  0.00     0.177 C 
BRANCH  19  20
HETATM   20  C9  UNL     1      -7.538  -4.596  15.850  1.00  0.00    -0.015 A 
HETATM   21  C10 UNL     1      -7.016  -5.055  17.004  1.00  0.00     0.017 A 
HETATM   22  C11 UNL     1      -7.685  -6.055  17.649  1.00  0.00     0.051 A 
HETATM   23  S1  UNL     1      -9.019  -6.344  16.653  1.00  0.00    -0.095 SA
HETATM   24  C12 UNL     1      -8.688  -5.167  15.409  1.00  0.00     0.089 A 
BRANCH  24  25
HETATM   25  C13 UNL     1      -9.464  -5.028  14.165  1.00  0.00     0.217 C 
HETATM   26  O4  UNL     1      -9.413  -5.925  13.277  1.00  0.00    -0.643 OA
HETATM   27  O5  UNL     1     -10.237  -3.931  13.948  1.00  0.00    -0.643 OA
ENDBRANCH  24  25
ENDBRANCH  19  20
ENDBRANCH   7  19
TORSDOF 7
ENDMDL
