MODEL 1
REMARK VINA RESULT: -7.869774077      0.000      0.000
REMARK  7 active torsions:
REMARK  status: ('A' for Active; 'I' for Inactive)
REMARK    1  A    between atoms: N1_4  and  C4_5 
REMARK    2  A    between atoms: C4_5  and  C5_6 
REMARK    3  A    between atoms: C5_6  and  N2_7 
REMARK    4  A    between atoms: C5_6  and  C6_11 
REMARK    5  A    between atoms: N3_16  and  C8_17 
REMARK    6  A    between atoms: C8_17  and  C9_18 
REMARK    7  A    between atoms: C12_22  and  C13_23 
ROOT
HETATM    1  C1  UNL     1      -4.864   0.097  15.736  1.00  0.00     0.056 C 
HETATM    2  C2  UNL     1      -4.746  -1.349  15.371  1.00  0.00     0.022 A 
HETATM    3  C3  UNL     1      -5.867  -2.078  15.044  1.00  0.00     0.108 A 
HETATM    4  N1  UNL     1      -5.774  -3.376  14.717  1.00  0.00    -0.306 N 
HETATM    5  C7  UNL     1      -4.512  -3.916  14.732  1.00  0.00     0.331 A 
HETATM    6  O3  UNL     1      -4.485  -5.127  14.418  1.00  0.00    -0.246 OA
HETATM    7  N3  UNL     1      -3.408  -3.249  15.042  1.00  0.00    -0.261 N 
HETATM    8  C14 UNL     1      -3.496  -1.922  15.377  1.00  0.00     0.259 A 
HETATM    9  O6  UNL     1      -2.465  -1.254  15.672  1.00  0.00    -0.267 OA
ENDROOT
BRANCH   4  10
HETATM   10  C4  UNL     1      -6.920  -4.183  14.360  1.00  0.00     0.177 C 
BRANCH  10  11
HETATM   11  C5  UNL     1      -8.074  -4.071  15.330  1.00  0.00     0.301 C 
BRANCH  11  12
HETATM   12  N2  UNL     1      -7.722  -4.921  16.478  1.00  0.00    -0.064 N 
ATOM     13  H23 UNL     1      -7.088  -5.684  16.241  1.00  0.00     0.275 HD
ATOM     14  H22 UNL     1      -7.114  -4.461  17.155  1.00  0.00     0.275 HD
ATOM     15  H21 UNL     1      -8.608  -5.238  16.874  1.00  0.00     0.275 HD
ENDBRANCH  11  12
BRANCH  11  16
HETATM   16  C6  UNL     1      -9.274  -4.645  14.695  1.00  0.00     0.206 C 
HETATM   17  O1  UNL     1      -9.813  -5.669  15.213  1.00  0.00    -0.646 OA
HETATM   18  O2  UNL     1      -9.862  -4.131  13.553  1.00  0.00    -0.646 OA
ENDBRANCH  11  16
ENDBRANCH  10  11
ENDBRANCH   4  10
BRANCH   7  19
HETATM   19  C8  UNL     1      -2.057  -3.766  15.042  1.00  0.00     0.177 C 
BRANCH  19  20
HETATM   20  C9  UNL     1      -1.780  -4.659  16.255  1.00  0.00    -0.015 A 
HETATM   21  C10 UNL     1      -1.963  -4.181  17.500  1.00  0.00     0.017 A 
HETATM   22  C11 UNL     1      -1.837  -5.055  18.541  1.00  0.00     0.051 A 
HETATM   23  S1  UNL     1      -1.467  -6.519  17.783  1.00  0.00    -0.095 SA
HETATM   24  C12 UNL     1      -1.477  -5.976  16.126  1.00  0.00     0.089 A 
BRANCH  24  25
HETATM   25  C13 UNL     1      -1.090  -6.807  14.973  1.00  0.00     0.217 C 
HETATM   26  O4  UNL     1      -1.666  -7.911  14.760  1.00  0.00    -0.643 OA
HETATM   27  O5  UNL     1      -0.103  -6.407  14.128  1.00  0.00    -0.643 OA
ENDBRANCH  24  25
ENDBRANCH  19  20
ENDBRANCH   7  19
TORSDOF 7
ENDMDL
