MODEL 4
REMARK VINA RESULT: -7.332623098      2.971      5.940
REMARK  7 active torsions:
REMARK  status: ('A' for Active; 'I' for Inactive)
REMARK    1  A    between atoms: N1_4  and  C4_5 
REMARK    2  A    between atoms: C4_5  and  C5_6 
REMARK    3  A    between atoms: C5_6  and  N2_7 
REMARK    4  A    between atoms: C5_6  and  C6_11 
REMARK    5  A    between atoms: N3_16  and  C8_17 
REMARK    6  A    between atoms: C8_17  and  C9_18 
REMARK    7  A    between atoms: C12_22  and  C13_23 
ROOT
HETATM    1  C1  UNL     1      -1.267  -2.204  17.545  1.00  0.00     0.056 C 
HETATM    2  C2  UNL     1      -1.611  -3.123  16.415  1.00  0.00     0.022 A 
HETATM    3  C3  UNL     1      -0.774  -4.165  16.086  1.00  0.00     0.108 A 
HETATM    4  N1  UNL     1      -1.071  -4.995  15.073  1.00  0.00    -0.306 N 
HETATM    5  C7  UNL     1      -2.242  -4.737  14.403  1.00  0.00     0.331 A 
HETATM    6  O3  UNL     1      -2.468  -5.542  13.472  1.00  0.00    -0.246 OA
HETATM    7  N3  UNL     1      -3.074  -3.745  14.688  1.00  0.00    -0.261 N 
HETATM    8  C14 UNL     1      -2.776  -2.894  15.722  1.00  0.00     0.259 A 
HETATM    9  O6  UNL     1      -3.549  -1.941  16.026  1.00  0.00    -0.267 OA
ENDROOT
BRANCH   4  10
HETATM   10  C4  UNL     1      -0.228  -6.106  14.692  1.00  0.00     0.177 C 
BRANCH  10  11
HETATM   11  C5  UNL     1       0.107  -7.040  15.831  1.00  0.00     0.301 C 
BRANCH  11  12
HETATM   12  N2  UNL     1       1.420  -7.620  15.507  1.00  0.00    -0.064 N 
ATOM     13  H23 UNL     1       1.361  -8.522  15.036  1.00  0.00     0.275 HD
ATOM     14  H22 UNL     1       1.912  -7.124  14.764  1.00  0.00     0.275 HD
ATOM     15  H21 UNL     1       1.937  -7.654  16.386  1.00  0.00     0.275 HD
ENDBRANCH  11  12
BRANCH  11  16
HETATM   16  C6  UNL     1      -0.879  -8.136  15.840  1.00  0.00     0.206 C 
HETATM   17  O1  UNL     1      -0.465  -9.334  15.862  1.00  0.00    -0.646 OA
HETATM   18  O2  UNL     1      -2.249  -7.940  15.828  1.00  0.00    -0.646 OA
ENDBRANCH  11  16
ENDBRANCH  10  11
ENDBRANCH   4  10
BRANCH   7  19
HETATM   19  C8  UNL     1      -4.330  -3.454  14.032  1.00  0.00     0.177 C 
BRANCH  19  20
HETATM   20  C9  UNL     1      -5.388  -4.527  14.308  1.00  0.00    -0.015 A 
HETATM   21  C10 UNL     1      -5.797  -4.760  15.569  1.00  0.00     0.017 A 
HETATM   22  C11 UNL     1      -6.837  -5.626  15.749  1.00  0.00     0.051 A 
HETATM   23  S1  UNL     1      -7.228  -6.104  14.175  1.00  0.00    -0.095 SA
HETATM   24  C12 UNL     1      -6.034  -5.176  13.307  1.00  0.00     0.089 A 
BRANCH  24  25
HETATM   25  C13 UNL     1      -5.794  -5.276  11.857  1.00  0.00     0.217 C 
HETATM   26  O4  UNL     1      -5.588  -6.400  11.320  1.00  0.00    -0.643 OA
HETATM   27  O5  UNL     1      -5.779  -4.162  11.077  1.00  0.00    -0.643 OA
ENDBRANCH  24  25
ENDBRANCH  19  20
ENDBRANCH   7  19
TORSDOF 7
ENDMDL
