MODEL 10
REMARK VINA RESULT: -7.582117654      2.837      6.806
REMARK  7 active torsions:
REMARK  status: ('A' for Active; 'I' for Inactive)
REMARK    1  A    between atoms: N1_1  and  C1_5 
REMARK    2  A    between atoms: C1_5  and  C2_6 
REMARK    3  A    between atoms: C1_5  and  C15_25 
REMARK    4  A    between atoms: C2_6  and  N2_7 
REMARK    5  A    between atoms: N3_12  and  C6_13 
REMARK    6  A    between atoms: C6_13  and  C7_14 
REMARK    7  A    between atoms: C12_19  and  C13_20 
ROOT
HETATM    1  N2  UNL     1      -6.302  -3.828  14.667  1.00  0.00    -0.307 N 
HETATM    2  C3  UNL     1      -6.679  -2.578  15.036  1.00  0.00     0.101 A 
HETATM    3  C4  UNL     1      -5.749  -1.651  15.401  1.00  0.00     0.092 A 
HETATM    4  C5  UNL     1      -4.387  -2.026  15.385  1.00  0.00     0.253 A 
HETATM    5  O1  UNL     1      -3.627  -1.099  15.741  1.00  0.00    -0.268 OA
HETATM    6  N3  UNL     1      -4.008  -3.240  15.026  1.00  0.00    -0.262 N 
HETATM    7  C14 UNL     1      -5.004  -4.109  14.676  1.00  0.00     0.331 A 
HETATM    8  O4  UNL     1      -4.686  -5.276  14.332  1.00  0.00    -0.246 OA
ENDROOT
BRANCH   6   9
HETATM    9  C6  UNL     1      -2.666  -3.703  14.998  1.00  0.00     0.176 C 
BRANCH   9  10
HETATM   10  C7  UNL     1      -2.154  -4.442  16.148  1.00  0.00    -0.023 A 
HETATM   11  C8  UNL     1      -2.315  -3.825  17.405  1.00  0.00     0.010 A 
HETATM   12  C9  UNL     1      -1.980  -4.486  18.560  1.00  0.00     0.001 A 
HETATM   13  C10 UNL     1      -1.476  -5.762  18.558  1.00  0.00     0.001 A 
HETATM   14  C11 UNL     1      -1.309  -6.374  17.349  1.00  0.00     0.019 A 
HETATM   15  C12 UNL     1      -1.650  -5.703  16.138  1.00  0.00     0.048 A 
BRANCH  15  16
HETATM   16  C13 UNL     1      -1.278  -6.376  14.912  1.00  0.00     0.210 C 
HETATM   17  O2  UNL     1      -1.970  -7.359  14.538  1.00  0.00    -0.644 OA
HETATM   18  O3  UNL     1      -0.220  -6.025  14.134  1.00  0.00    -0.644 OA
ENDBRANCH  15  16
ENDBRANCH   9  10
ENDBRANCH   6   9
BRANCH   1  19
HETATM   19  C2  UNL     1      -7.304  -4.808  14.279  1.00  0.00     0.177 C 
BRANCH  19  20
HETATM   20  C1  UNL     1      -8.597  -4.711  15.008  1.00  0.00     0.301 C 
BRANCH  20  21
HETATM   21  N1  UNL     1      -8.542  -5.489  16.246  1.00  0.00    -0.064 N 
ATOM     22  H13 UNL     1      -8.814  -6.460  16.097  1.00  0.00     0.275 HD
ATOM     23  H12 UNL     1      -7.583  -5.646  16.555  1.00  0.00     0.275 HD
ATOM     24  H11 UNL     1      -9.107  -5.043  16.970  1.00  0.00     0.275 HD
ENDBRANCH  20  21
BRANCH  20  25
HETATM   25  C15 UNL     1      -9.808  -4.927  14.230  1.00  0.00     0.206 C 
HETATM   26  O5  UNL     1     -10.566  -3.956  13.974  1.00  0.00    -0.646 OA
HETATM   27  O6  UNL     1     -10.098  -6.210  13.782  1.00  0.00    -0.646 OA
ENDBRANCH  20  25
ENDBRANCH  19  20
ENDBRANCH   1  19
TORSDOF 7
ENDMDL
