MODEL 2
REMARK VINA RESULT: -8.027357918      3.734      5.948
REMARK  7 active torsions:
REMARK  status: ('A' for Active; 'I' for Inactive)
REMARK    1  A    between atoms: N1_1  and  C1_5 
REMARK    2  A    between atoms: C1_5  and  C2_6 
REMARK    3  A    between atoms: C1_5  and  C15_25 
REMARK    4  A    between atoms: C2_6  and  N2_7 
REMARK    5  A    between atoms: N3_12  and  C6_13 
REMARK    6  A    between atoms: C6_13  and  C7_14 
REMARK    7  A    between atoms: C12_19  and  C13_20 
ROOT
HETATM    1  N2  UNL     1      -3.791  -1.933  15.706  1.00  0.00    -0.307 N 
HETATM    2  C3  UNL     1      -4.353  -2.452  14.586  1.00  0.00     0.101 A 
HETATM    3  C4  UNL     1      -4.238  -3.781  14.303  1.00  0.00     0.092 A 
HETATM    4  C5  UNL     1      -3.522  -4.599  15.206  1.00  0.00     0.253 A 
HETATM    5  O1  UNL     1      -3.481  -5.795  14.843  1.00  0.00    -0.268 OA
HETATM    6  N3  UNL     1      -2.972  -4.104  16.301  1.00  0.00    -0.262 N 
HETATM    7  C14 UNL     1      -3.133  -2.762  16.508  1.00  0.00     0.331 A 
HETATM    8  O4  UNL     1      -2.620  -2.251  17.536  1.00  0.00    -0.246 OA
ENDROOT
BRANCH   6   9
HETATM    9  C6  UNL     1      -2.224  -4.850  17.248  1.00  0.00     0.176 C 
BRANCH   9  10
HETATM   10  C7  UNL     1      -1.170  -5.740  16.769  1.00  0.00    -0.023 A 
HETATM   11  C8  UNL     1      -1.325  -7.107  17.074  1.00  0.00     0.010 A 
HETATM   12  C9  UNL     1      -0.457  -8.042  16.567  1.00  0.00     0.001 A 
HETATM   13  C10 UNL     1       0.592  -7.706  15.749  1.00  0.00     0.001 A 
HETATM   14  C11 UNL     1       0.759  -6.386  15.445  1.00  0.00     0.019 A 
HETATM   15  C12 UNL     1      -0.130  -5.399  15.964  1.00  0.00     0.048 A 
BRANCH  15  16
HETATM   16  C13 UNL     1       0.236  -4.020  15.717  1.00  0.00     0.210 C 
HETATM   17  O2  UNL     1       0.285  -3.623  14.524  1.00  0.00    -0.644 OA
HETATM   18  O3  UNL     1       0.540  -3.121  16.690  1.00  0.00    -0.644 OA
ENDBRANCH  15  16
ENDBRANCH   9  10
ENDBRANCH   6   9
BRANCH   1  19
HETATM   19  C2  UNL     1      -3.920  -0.514  15.997  1.00  0.00     0.177 C 
BRANCH  19  20
HETATM   20  C1  UNL     1      -2.697   0.294  15.746  1.00  0.00     0.301 C 
BRANCH  20  21
HETATM   21  N1  UNL     1      -2.541   1.316  16.782  1.00  0.00    -0.064 N 
ATOM     22  H13 UNL     1      -3.399   1.851  16.921  1.00  0.00     0.275 HD
ATOM     23  H12 UNL     1      -2.466   0.906  17.712  1.00  0.00     0.275 HD
ATOM     24  H11 UNL     1      -1.747   1.921  16.567  1.00  0.00     0.275 HD
ENDBRANCH  20  21
BRANCH  20  25
HETATM   25  C15 UNL     1      -2.506   0.795  14.392  1.00  0.00     0.206 C 
HETATM   26  O5  UNL     1      -3.398   0.605  13.526  1.00  0.00    -0.646 OA
HETATM   27  O6  UNL     1      -1.335   1.479  14.089  1.00  0.00    -0.646 OA
ENDBRANCH  20  25
ENDBRANCH  19  20
ENDBRANCH   1  19
TORSDOF 7
ENDMDL
