MODEL 3
REMARK VINA RESULT: -7.787140226      1.762      2.001
REMARK  7 active torsions:
REMARK  status: ('A' for Active; 'I' for Inactive)
REMARK    1  A    between atoms: N1_1  and  C1_5 
REMARK    2  A    between atoms: C1_5  and  C2_6 
REMARK    3  A    between atoms: C1_5  and  C15_25 
REMARK    4  A    between atoms: C2_6  and  N2_7 
REMARK    5  A    between atoms: N3_12  and  C6_13 
REMARK    6  A    between atoms: C6_13  and  C7_14 
REMARK    7  A    between atoms: C12_19  and  C13_20 
ROOT
HETATM    1  N2  UNL     1      -4.167  -2.069  15.357  1.00  0.00    -0.307 N 
HETATM    2  C3  UNL     1      -3.612  -2.674  14.277  1.00  0.00     0.101 A 
HETATM    3  C4  UNL     1      -4.356  -3.493  13.481  1.00  0.00     0.092 A 
HETATM    4  C5  UNL     1      -5.716  -3.693  13.810  1.00  0.00     0.253 A 
HETATM    5  O1  UNL     1      -6.296  -4.463  13.013  1.00  0.00    -0.268 OA
HETATM    6  N3  UNL     1      -6.267  -3.107  14.858  1.00  0.00    -0.262 N 
HETATM    7  C14 UNL     1      -5.451  -2.303  15.604  1.00  0.00     0.331 A 
HETATM    8  O4  UNL     1      -5.936  -1.731  16.613  1.00  0.00    -0.246 OA
ENDROOT
BRANCH   6   9
HETATM    9  C6  UNL     1      -7.617  -3.267  15.267  1.00  0.00     0.176 C 
BRANCH   9  10
HETATM   10  C7  UNL     1      -8.028  -4.540  15.853  1.00  0.00    -0.023 A 
HETATM   11  C8  UNL     1      -7.297  -4.970  16.979  1.00  0.00     0.010 A 
HETATM   12  C9  UNL     1      -7.678  -6.088  17.677  1.00  0.00     0.001 A 
HETATM   13  C10 UNL     1      -8.771  -6.839  17.326  1.00  0.00     0.001 A 
HETATM   14  C11 UNL     1      -9.489  -6.440  16.236  1.00  0.00     0.019 A 
HETATM   15  C12 UNL     1      -9.108  -5.282  15.496  1.00  0.00     0.048 A 
BRANCH  15  16
HETATM   16  C13 UNL     1      -9.835  -5.045  14.267  1.00  0.00     0.210 C 
HETATM   17  O2  UNL     1      -9.507  -5.704  13.246  1.00  0.00    -0.644 OA
HETATM   18  O3  UNL     1     -10.847  -4.148  14.134  1.00  0.00    -0.644 OA
ENDBRANCH  15  16
ENDBRANCH   9  10
ENDBRANCH   6   9
BRANCH   1  19
HETATM   19  C2  UNL     1      -3.363  -1.197  16.199  1.00  0.00     0.177 C 
BRANCH  19  20
HETATM   20  C1  UNL     1      -2.505  -1.896  17.192  1.00  0.00     0.301 C 
BRANCH  20  21
HETATM   21  N1  UNL     1      -3.302  -2.321  18.343  1.00  0.00    -0.064 N 
ATOM     22  H13 UNL     1      -4.056  -1.665  18.547  1.00  0.00     0.275 HD
ATOM     23  H12 UNL     1      -3.870  -3.141  18.130  1.00  0.00     0.275 HD
ATOM     24  H11 UNL     1      -2.701  -2.475  19.154  1.00  0.00     0.275 HD
ENDBRANCH  20  21
BRANCH  20  25
HETATM   25  C15 UNL     1      -1.253  -1.246  17.552  1.00  0.00     0.206 C 
HETATM   26  O5  UNL     1      -1.045  -0.057  17.200  1.00  0.00    -0.646 OA
HETATM   27  O6  UNL     1      -0.312  -1.960  18.283  1.00  0.00    -0.646 OA
ENDBRANCH  20  25
ENDBRANCH  19  20
ENDBRANCH   1  19
TORSDOF 7
ENDMDL
