MODEL 1
REMARK VINA RESULT: -8.362996800      0.000      0.000
REMARK  7 active torsions:
REMARK  status: ('A' for Active; 'I' for Inactive)
REMARK    1  A    between atoms: N1_1  and  C1_5 
REMARK    2  A    between atoms: C1_5  and  C2_6 
REMARK    3  A    between atoms: C1_5  and  C15_25 
REMARK    4  A    between atoms: C2_6  and  N2_7 
REMARK    5  A    between atoms: N3_12  and  C6_13 
REMARK    6  A    between atoms: C6_13  and  C7_14 
REMARK    7  A    between atoms: C12_19  and  C13_20 
ROOT
HETATM    1  N2  UNL     1      -4.289  -1.653  15.408  1.00  0.00    -0.307 N 
HETATM    2  C3  UNL     1      -3.415  -2.526  14.849  1.00  0.00     0.101 A 
HETATM    3  C4  UNL     1      -3.850  -3.710  14.332  1.00  0.00     0.092 A 
HETATM    4  C5  UNL     1      -5.231  -4.002  14.395  1.00  0.00     0.253 A 
HETATM    5  O1  UNL     1      -5.512  -5.113  13.894  1.00  0.00    -0.268 OA
HETATM    6  N3  UNL     1      -6.092  -3.158  14.936  1.00  0.00    -0.262 N 
HETATM    7  C14 UNL     1      -5.573  -1.994  15.431  1.00  0.00     0.331 A 
HETATM    8  O4  UNL     1      -6.359  -1.167  15.959  1.00  0.00    -0.246 OA
ENDROOT
BRANCH   6   9
HETATM    9  C6  UNL     1      -7.489  -3.380  15.054  1.00  0.00     0.176 C 
BRANCH   9  10
HETATM   10  C7  UNL     1      -7.954  -4.576  15.749  1.00  0.00    -0.023 A 
HETATM   11  C8  UNL     1      -7.268  -4.913  16.933  1.00  0.00     0.010 A 
HETATM   12  C9  UNL     1      -7.702  -5.945  17.726  1.00  0.00     0.001 A 
HETATM   13  C10 UNL     1      -8.807  -6.696  17.418  1.00  0.00     0.001 A 
HETATM   14  C11 UNL     1      -9.483  -6.387  16.273  1.00  0.00     0.019 A 
HETATM   15  C12 UNL     1      -9.047  -5.320  15.434  1.00  0.00     0.048 A 
BRANCH  15  16
HETATM   16  C13 UNL     1      -9.732  -5.186  14.166  1.00  0.00     0.210 C 
HETATM   17  O2  UNL     1      -9.468  -6.015  13.257  1.00  0.00    -0.644 OA
HETATM   18  O3  UNL     1     -10.641  -4.216  13.883  1.00  0.00    -0.644 OA
ENDBRANCH  15  16
ENDBRANCH   9  10
ENDBRANCH   6   9
BRANCH   1  19
HETATM   19  C2  UNL     1      -3.813  -0.393  15.956  1.00  0.00     0.177 C 
BRANCH  19  20
HETATM   20  C1  UNL     1      -2.465   0.028  15.490  1.00  0.00     0.301 C 
BRANCH  20  21
HETATM   21  N1  UNL     1      -1.714   0.635  16.589  1.00  0.00    -0.064 N 
ATOM     22  H13 UNL     1      -1.981   1.608  16.740  1.00  0.00     0.275 HD
ATOM     23  H12 UNL     1      -1.994   0.259  17.494  1.00  0.00     0.275 HD
ATOM     24  H11 UNL     1      -0.710   0.537  16.429  1.00  0.00     0.275 HD
ENDBRANCH  20  21
BRANCH  20  25
HETATM   25  C15 UNL     1      -2.406   0.785  14.247  1.00  0.00     0.206 C 
HETATM   26  O5  UNL     1      -3.313   0.644  13.388  1.00  0.00    -0.646 OA
HETATM   27  O6  UNL     1      -1.342   1.654  14.041  1.00  0.00    -0.646 OA
ENDBRANCH  20  25
ENDBRANCH  19  20
ENDBRANCH   1  19
TORSDOF 7
ENDMDL
