MODEL 1
REMARK VINA RESULT: -8.129281245      0.000      0.000
REMARK  5 active torsions:
REMARK  status: ('A' for Active; 'I' for Inactive)
REMARK       I    between atoms: N1_2  and  C2_4 
REMARK    1  A    between atoms: C2_4  and  C3_6 
REMARK    2  A    between atoms: C8_11  and  N2_12 
REMARK    3  A    between atoms: N2_12  and  S1_14 
REMARK       I    between atoms: N3_21  and  C12_22 
REMARK    4  A    between atoms: C12_22  and  O6_24 
REMARK    5  A    between atoms: O6_24  and  C13_25 
ROOT
HETATM    1  C3  UNL     1     -12.484  44.972  53.168  1.00  0.00     0.186 C 
HETATM    2  C4  UNL     1     -12.808  44.536  51.715  1.00  0.00     0.074 C 
HETATM    3  C5  UNL     1     -12.157  45.496  50.821  1.00  0.00    -0.048 A 
HETATM    4  C6  UNL     1     -12.772  46.018  49.728  1.00  0.00     0.010 A 
HETATM    5  C7  UNL     1     -12.095  46.898  48.911  1.00  0.00     0.031 A 
HETATM    6  C8  UNL     1     -10.781  47.252  49.202  1.00  0.00     0.045 A 
HETATM    7  C9  UNL     1     -10.174  46.711  50.316  1.00  0.00     0.039 A 
HETATM    8  C10 UNL     1     -10.852  45.832  51.135  1.00  0.00    -0.032 A 
HETATM    9  C11 UNL     1     -10.177  45.270  52.307  1.00  0.00     0.168 C 
HETATM   10  N3  UNL     1     -11.091  44.893  53.398  1.00  0.00    -0.310 N 
HETATM   11  C12 UNL     1     -10.427  44.504  54.590  1.00  0.00     0.364 C 
HETATM   12  O5  UNL     1     -10.970  44.140  55.643  1.00  0.00    -0.238 OA
ENDROOT
BRANCH   1  13
HETATM   13  C2  UNL     1     -13.389  44.258  54.054  1.00  0.00     0.240 C 
HETATM   14  N1  UNL     1     -13.406  42.822  53.999  1.00  0.00    -0.364 N 
HETATM   15  C1  UNL     1     -14.305  42.093  54.878  1.00  0.00     0.149 C 
ATOM     16  H1  UNL     1     -12.796  42.322  53.353  1.00  0.00     0.161 HD
HETATM   17  O1  UNL     1     -14.159  44.782  54.867  1.00  0.00    -0.271 OA
ENDBRANCH   1  13
BRANCH  11  18
HETATM   18  O6  UNL     1      -9.026  44.519  54.622  1.00  0.00    -0.294 OA
BRANCH  18  19
HETATM   19  C13 UNL     1      -8.368  45.536  55.345  1.00  0.00     0.061 C 
HETATM   20  C14 UNL     1      -7.080  45.816  54.582  1.00  0.00     0.046 C 
HETATM   21  C15 UNL     1      -7.965  45.068  56.732  1.00  0.00     0.046 C 
HETATM   22  C16 UNL     1      -9.129  46.810  55.481  1.00  0.00     0.046 C 
ENDBRANCH  18  19
ENDBRANCH  11  18
BRANCH   6  23
HETATM   23  N2  UNL     1     -10.132  48.144  48.334  1.00  0.00    -0.266 N 
ATOM     24  H2  UNL     1     -10.281  49.150  48.406  1.00  0.00     0.181 HD
BRANCH  23  25
HETATM   25  S1  UNL     1      -9.033  47.458  47.094  1.00  0.00     0.209 S 
HETATM   26  O2  UNL     1      -8.045  46.648  47.599  1.00  0.00    -0.578 OA
HETATM   27  O3  UNL     1     -10.162  46.692  46.071  1.00  0.00    -0.578 OA
HETATM   28  O4  UNL     1      -8.638  48.906  46.264  1.00  0.00    -0.578 OA
ENDBRANCH  23  25
ENDBRANCH   6  23
TORSDOF 5
ENDMDL
