MODEL 6
REMARK VINA RESULT: -6.697671155      1.499      1.893
REMARK  5 active torsions:
REMARK  status: ('A' for Active; 'I' for Inactive)
REMARK       I    between atoms: N1_2  and  C2_4 
REMARK    1  A    between atoms: C2_4  and  C3_6 
REMARK    2  A    between atoms: C8_11  and  N2_12 
REMARK    3  A    between atoms: N2_12  and  S1_14 
REMARK       I    between atoms: N3_21  and  C12_22 
REMARK    4  A    between atoms: C12_22  and  O6_24 
REMARK    5  A    between atoms: O6_24  and  C13_25 
ROOT
HETATM    1  C3  UNL     1     -11.806  45.579  53.998  1.00  0.00     0.186 C 
HETATM    2  C4  UNL     1     -12.248  44.894  52.680  1.00  0.00     0.074 C 
HETATM    3  C5  UNL     1     -11.454  45.483  51.599  1.00  0.00    -0.048 A 
HETATM    4  C6  UNL     1     -11.991  45.849  50.406  1.00  0.00     0.010 A 
HETATM    5  C7  UNL     1     -11.185  46.374  49.419  1.00  0.00     0.031 A 
HETATM    6  C8  UNL     1      -9.820  46.529  49.642  1.00  0.00     0.045 A 
HETATM    7  C9  UNL     1      -9.294  46.152  50.859  1.00  0.00     0.039 A 
HETATM    8  C10 UNL     1     -10.101  45.628  51.848  1.00  0.00    -0.032 A 
HETATM    9  C11 UNL     1      -9.510  45.230  53.127  1.00  0.00     0.168 C 
HETATM   10  N3  UNL     1     -10.446  45.292  54.262  1.00  0.00    -0.310 N 
HETATM   11  C12 UNL     1      -9.833  45.067  55.521  1.00  0.00     0.364 C 
HETATM   12  O5  UNL     1     -10.405  45.062  56.621  1.00  0.00    -0.238 OA
ENDROOT
BRANCH   1  13
HETATM   13  C2  UNL     1     -12.803  45.271  55.010  1.00  0.00     0.240 C 
HETATM   14  N1  UNL     1     -13.177  46.305  55.937  1.00  0.00    -0.364 N 
HETATM   15  C1  UNL     1     -14.173  46.014  56.955  1.00  0.00     0.149 C 
ATOM     16  H1  UNL     1     -12.750  47.229  55.881  1.00  0.00     0.161 HD
HETATM   17  O1  UNL     1     -13.372  44.182  55.150  1.00  0.00    -0.271 OA
ENDBRANCH   1  13
BRANCH  11  18
HETATM   18  O6  UNL     1      -8.454  44.823  55.571  1.00  0.00    -0.294 OA
BRANCH  18  19
HETATM   19  C13 UNL     1      -7.601  45.816  56.095  1.00  0.00     0.061 C 
HETATM   20  C14 UNL     1      -6.389  45.845  55.174  1.00  0.00     0.046 C 
HETATM   21  C15 UNL     1      -7.095  45.448  57.477  1.00  0.00     0.046 C 
HETATM   22  C16 UNL     1      -8.187  47.185  56.158  1.00  0.00     0.046 C 
ENDBRANCH  18  19
ENDBRANCH  11  18
BRANCH   6  23
HETATM   23  N2  UNL     1      -9.040  47.061  48.602  1.00  0.00    -0.266 N 
ATOM     24  H2  UNL     1      -8.049  46.835  48.519  1.00  0.00     0.181 HD
BRANCH  23  25
HETATM   25  S1  UNL     1      -9.843  48.150  47.426  1.00  0.00     0.209 S 
HETATM   26  O2  UNL     1     -10.653  49.102  47.997  1.00  0.00    -0.578 OA
HETATM   27  O3  UNL     1      -8.486  48.747  46.582  1.00  0.00    -0.578 OA
HETATM   28  O4  UNL     1     -10.496  46.964  46.374  1.00  0.00    -0.578 OA
ENDBRANCH  23  25
ENDBRANCH   6  23
TORSDOF 5
ENDMDL
