MODEL 4
REMARK VINA RESULT: -7.300680319      1.632      2.124
REMARK  5 active torsions:
REMARK  status: ('A' for Active; 'I' for Inactive)
REMARK       I    between atoms: N1_2  and  C2_4 
REMARK    1  A    between atoms: C2_4  and  C3_6 
REMARK    2  A    between atoms: C8_11  and  N2_12 
REMARK    3  A    between atoms: N2_12  and  S1_14 
REMARK       I    between atoms: N3_21  and  C12_22 
REMARK    4  A    between atoms: C12_22  and  O6_24 
REMARK    5  A    between atoms: O6_24  and  C13_25 
ROOT
HETATM    1  C3  UNL     1     -13.880  45.299  52.585  1.00  0.00     0.186 C 
HETATM    2  C4  UNL     1     -13.969  45.069  51.054  1.00  0.00     0.074 C 
HETATM    3  C5  UNL     1     -12.848  45.789  50.444  1.00  0.00    -0.048 A 
HETATM    4  C6  UNL     1     -12.980  46.541  49.321  1.00  0.00     0.010 A 
HETATM    5  C7  UNL     1     -11.881  47.173  48.781  1.00  0.00     0.031 A 
HETATM    6  C8  UNL     1     -10.633  47.041  49.385  1.00  0.00     0.045 A 
HETATM    7  C9  UNL     1     -10.520  46.274  50.524  1.00  0.00     0.039 A 
HETATM    8  C10 UNL     1     -11.621  45.642  51.066  1.00  0.00    -0.032 A 
HETATM    9  C11 UNL     1     -11.466  44.829  52.273  1.00  0.00     0.168 C 
HETATM   10  N3  UNL     1     -12.686  44.736  53.091  1.00  0.00    -0.310 N 
HETATM   11  C12 UNL     1     -12.490  44.088  54.338  1.00  0.00     0.364 C 
HETATM   12  O5  UNL     1     -13.358  43.882  55.199  1.00  0.00    -0.238 OA
ENDROOT
BRANCH   1  13
HETATM   13  C2  UNL     1     -15.153  44.897  53.164  1.00  0.00     0.240 C 
HETATM   14  N1  UNL     1     -15.686  45.677  54.248  1.00  0.00    -0.364 N 
HETATM   15  C1  UNL     1     -16.956  45.289  54.838  1.00  0.00     0.149 C 
ATOM     16  H1  UNL     1     -15.179  46.490  54.598  1.00  0.00     0.161 HD
HETATM   17  O1  UNL     1     -15.833  43.930  52.802  1.00  0.00    -0.271 OA
ENDBRANCH   1  13
BRANCH  11  18
HETATM   18  O6  UNL     1     -11.210  43.620  54.666  1.00  0.00    -0.294 OA
BRANCH  18  19
HETATM   19  C13 UNL     1     -10.459  44.308  55.641  1.00  0.00     0.061 C 
HETATM   20  C14 UNL     1      -9.047  44.408  55.079  1.00  0.00     0.046 C 
HETATM   21  C15 UNL     1     -10.363  43.520  56.935  1.00  0.00     0.046 C 
HETATM   22  C16 UNL     1     -10.943  45.680  55.963  1.00  0.00     0.046 C 
ENDBRANCH  18  19
ENDBRANCH  11  18
BRANCH   6  23
HETATM   23  N2  UNL     1      -9.543  47.697  48.792  1.00  0.00    -0.266 N 
ATOM     24  H2  UNL     1      -8.903  48.263  49.348  1.00  0.00     0.181 HD
BRANCH  23  25
HETATM   25  S1  UNL     1      -9.311  47.507  47.024  1.00  0.00     0.209 S 
HETATM   26  O2  UNL     1     -10.397  46.985  46.363  1.00  0.00    -0.578 OA
HETATM   27  O3  UNL     1      -8.885  49.102  46.595  1.00  0.00    -0.578 OA
HETATM   28  O4  UNL     1      -7.814  46.670  47.044  1.00  0.00    -0.578 OA
ENDBRANCH  23  25
ENDBRANCH   6  23
TORSDOF 5
ENDMDL
