MODEL 11
REMARK VINA RESULT: -5.854768965      1.815      2.920
REMARK  2 active torsions:
REMARK  status: ('A' for Active; 'I' for Inactive)
REMARK    1  A    between atoms: C1_2  and  C2_4 
REMARK    2  A    between atoms: C5_7  and  C6_8 
ROOT
HETATM    1  C2  UNL     1      21.636  85.104  27.232  1.00  0.00     0.040 A 
HETATM    2  C3  UNL     1      22.328  84.145  26.550  1.00  0.00     0.019 A 
HETATM    3  C4  UNL     1      22.331  84.138  25.172  1.00  0.00     0.013 A 
HETATM    4  C5  UNL     1      21.647  85.084  24.447  1.00  0.00    -0.020 A 
HETATM    5  C12 UNL     1      20.940  86.064  25.149  1.00  0.00     0.013 A 
HETATM    6  C13 UNL     1      20.946  86.059  26.523  1.00  0.00     0.019 A 
ENDROOT
BRANCH   4   7
HETATM    7  C6  UNL     1      21.634  85.061  22.982  1.00  0.00     0.051 A 
HETATM    8  C7  UNL     1      22.003  86.192  22.278  1.00  0.00     0.130 A 
HETATM    9  F1  UNL     1      22.389  87.289  22.975  1.00  0.00    -0.205 F 
HETATM   10  C8  UNL     1      21.989  86.227  20.894  1.00  0.00     0.043 A 
HETATM   11  C9  UNL     1      21.601  85.117  20.195  1.00  0.00     0.006 A 
HETATM   12  C10 UNL     1      21.218  83.954  20.858  1.00  0.00     0.043 A 
HETATM   13  C11 UNL     1      21.245  83.955  22.252  1.00  0.00     0.130 A 
HETATM   14  F2  UNL     1      20.876  82.835  22.881  1.00  0.00    -0.205 F 
ENDBRANCH   4   7
BRANCH   1  15
HETATM   15  C1  UNL     1      21.655  85.078  28.689  1.00  0.00     0.209 C 
HETATM   16  O1  UNL     1      21.929  84.044  29.347  1.00  0.00    -0.644 OA
HETATM   17  O2  UNL     1      21.363  86.213  29.435  1.00  0.00    -0.644 OA
ENDBRANCH   1  15
TORSDOF 2
ENDMDL
