MODEL 10
REMARK VINA RESULT: -5.871217297      1.862      2.246
REMARK  2 active torsions:
REMARK  status: ('A' for Active; 'I' for Inactive)
REMARK    1  A    between atoms: C1_2  and  C2_4 
REMARK    2  A    between atoms: C5_7  and  C6_8 
ROOT
HETATM    1  C2  UNL     1      21.638  85.102  27.227  1.00  0.00     0.040 A 
HETATM    2  C3  UNL     1      20.944  86.071  26.560  1.00  0.00     0.019 A 
HETATM    3  C4  UNL     1      20.931  86.090  25.182  1.00  0.00     0.013 A 
HETATM    4  C5  UNL     1      21.604  85.148  24.443  1.00  0.00    -0.020 A 
HETATM    5  C12 UNL     1      22.312  84.158  25.129  1.00  0.00     0.013 A 
HETATM    6  C13 UNL     1      22.317  84.150  26.503  1.00  0.00     0.019 A 
ENDROOT
BRANCH   4   7
HETATM    7  C6  UNL     1      21.606  85.185  22.978  1.00  0.00     0.051 A 
HETATM    8  C7  UNL     1      21.273  84.047  22.266  1.00  0.00     0.130 A 
HETATM    9  F1  UNL     1      20.933  82.930  22.956  1.00  0.00    -0.205 F 
HETATM   10  C8  UNL     1      21.278  84.025  20.881  1.00  0.00     0.043 A 
HETATM   11  C9  UNL     1      21.620  85.155  20.190  1.00  0.00     0.006 A 
HETATM   12  C10 UNL     1      21.964  86.326  20.862  1.00  0.00     0.043 A 
HETATM   13  C11 UNL     1      21.948  86.310  22.255  1.00  0.00     0.130 A 
HETATM   14  F2  UNL     1      22.280  87.437  22.892  1.00  0.00    -0.205 F 
ENDBRANCH   4   7
BRANCH   1  15
HETATM   15  C1  UNL     1      21.631  85.115  28.684  1.00  0.00     0.209 C 
HETATM   16  O1  UNL     1      21.366  86.144  29.355  1.00  0.00    -0.644 OA
HETATM   17  O2  UNL     1      21.925  83.972  29.418  1.00  0.00    -0.644 OA
ENDBRANCH   1  15
TORSDOF 2
ENDMDL
