MODEL 13
REMARK VINA RESULT: -5.844109550      1.826      2.421
REMARK  2 active torsions:
REMARK  status: ('A' for Active; 'I' for Inactive)
REMARK    1  A    between atoms: C1_2  and  C2_4 
REMARK    2  A    between atoms: C5_7  and  C6_8 
ROOT
HETATM    1  C2  UNL     1      21.589  85.207  27.226  1.00  0.00     0.040 A 
HETATM    2  C3  UNL     1      22.278  84.246  26.542  1.00  0.00     0.019 A 
HETATM    3  C4  UNL     1      22.284  84.244  25.164  1.00  0.00     0.013 A 
HETATM    4  C5  UNL     1      21.608  85.196  24.441  1.00  0.00    -0.020 A 
HETATM    5  C12 UNL     1      20.905  86.178  25.143  1.00  0.00     0.013 A 
HETATM    6  C13 UNL     1      20.907  86.169  26.517  1.00  0.00     0.019 A 
ENDROOT
BRANCH   4   7
HETATM    7  C6  UNL     1      21.599  85.178  22.975  1.00  0.00     0.051 A 
HETATM    8  C7  UNL     1      21.213  84.030  22.309  1.00  0.00     0.130 A 
HETATM    9  F1  UNL     1      20.832  82.954  23.041  1.00  0.00    -0.205 F 
HETATM   10  C8  UNL     1      21.206  83.957  20.925  1.00  0.00     0.043 A 
HETATM   11  C9  UNL     1      21.590  85.045  20.191  1.00  0.00     0.006 A 
HETATM   12  C10 UNL     1      21.988  86.224  20.816  1.00  0.00     0.043 A 
HETATM   13  C11 UNL     1      21.982  86.261  22.209  1.00  0.00     0.130 A 
HETATM   14  F2  UNL     1      22.367  87.396  22.801  1.00  0.00    -0.205 F 
ENDBRANCH   4   7
BRANCH   1  15
HETATM   15  C1  UNL     1      21.604  85.176  28.682  1.00  0.00     0.209 C 
HETATM   16  O1  UNL     1      21.335  86.180  29.387  1.00  0.00    -0.644 OA
HETATM   17  O2  UNL     1      21.924  84.016  29.376  1.00  0.00    -0.644 OA
ENDBRANCH   1  15
TORSDOF 2
ENDMDL
