MODEL 9
REMARK VINA RESULT: -6.325066737      3.995      6.207
REMARK  2 active torsions:
REMARK  status: ('A' for Active; 'I' for Inactive)
REMARK    1  A    between atoms: C1_2  and  C2_4 
REMARK    2  A    between atoms: C5_7  and  C6_8 
ROOT
HETATM    1  C2  UNL     1      21.628  85.106  21.003  1.00  0.00     0.040 A 
HETATM    2  C3  UNL     1      21.301  86.245  21.682  1.00  0.00     0.019 A 
HETATM    3  C4  UNL     1      21.304  86.258  23.060  1.00  0.00     0.013 A 
HETATM    4  C5  UNL     1      21.633  85.140  23.788  1.00  0.00    -0.020 A 
HETATM    5  C12 UNL     1      21.968  83.977  23.090  1.00  0.00     0.013 A 
HETATM    6  C13 UNL     1      21.960  83.978  21.716  1.00  0.00     0.019 A 
ENDROOT
BRANCH   4   7
HETATM    7  C6  UNL     1      21.615  85.150  25.253  1.00  0.00     0.051 A 
HETATM    8  C7  UNL     1      22.366  86.086  25.939  1.00  0.00     0.130 A 
HETATM    9  F1  UNL     1      23.086  86.986  25.225  1.00  0.00    -0.205 F 
HETATM   10  C8  UNL     1      22.398  86.125  27.323  1.00  0.00     0.043 A 
HETATM   11  C9  UNL     1      21.669  85.216  28.040  1.00  0.00     0.006 A 
HETATM   12  C10 UNL     1      20.897  84.253  27.395  1.00  0.00     0.043 A 
HETATM   13  C11 UNL     1      20.889  84.244  26.001  1.00  0.00     0.130 A 
HETATM   14  F2  UNL     1      20.147  83.316  25.391  1.00  0.00    -0.205 F 
ENDBRANCH   4   7
BRANCH   1  15
HETATM   15  C1  UNL     1      21.611  85.131  19.547  1.00  0.00     0.209 C 
HETATM   16  O1  UNL     1      20.552  85.250  18.880  1.00  0.00    -0.644 OA
HETATM   17  O2  UNL     1      22.783  85.019  18.809  1.00  0.00    -0.644 OA
ENDBRANCH   1  15
TORSDOF 2
ENDMDL
