MODEL 15
REMARK VINA RESULT: -5.564593219      2.295      3.053
REMARK  2 active torsions:
REMARK  status: ('A' for Active; 'I' for Inactive)
REMARK    1  A    between atoms: C1_2  and  C2_4 
REMARK    2  A    between atoms: C5_7  and  C6_8 
ROOT
HETATM    1  C2  UNL     1      22.128  83.980  27.389  1.00  0.00     0.040 A 
HETATM    2  C3  UNL     1      22.941  83.431  26.438  1.00  0.00     0.019 A 
HETATM    3  C4  UNL     1      22.849  83.841  25.126  1.00  0.00     0.013 A 
HETATM    4  C5  UNL     1      21.949  84.803  24.734  1.00  0.00    -0.020 A 
HETATM    5  C12 UNL     1      21.119  85.362  25.710  1.00  0.00     0.013 A 
HETATM    6  C13 UNL     1      21.221  84.944  27.015  1.00  0.00     0.019 A 
ENDROOT
BRANCH   4   7
HETATM    7  C6  UNL     1      21.839  85.221  23.334  1.00  0.00     0.051 A 
HETATM    8  C7  UNL     1      21.495  84.293  22.369  1.00  0.00     0.130 A 
HETATM    9  F1  UNL     1      21.248  83.017  22.758  1.00  0.00    -0.205 F 
HETATM   10  C8  UNL     1      21.397  84.634  21.030  1.00  0.00     0.043 A 
HETATM   11  C9  UNL     1      21.645  85.922  20.643  1.00  0.00     0.006 A 
HETATM   12  C10 UNL     1      21.996  86.893  21.577  1.00  0.00     0.043 A 
HETATM   13  C11 UNL     1      22.085  86.513  22.915  1.00  0.00     0.130 A 
HETATM   14  F2  UNL     1      22.424  87.451  23.805  1.00  0.00    -0.205 F 
ENDBRANCH   4   7
BRANCH   1  15
HETATM   15  C1  UNL     1      22.252  83.519  28.765  1.00  0.00     0.209 C 
HETATM   16  O1  UNL     1      21.868  84.201  29.749  1.00  0.00    -0.644 OA
HETATM   17  O2  UNL     1      22.814  82.285  29.066  1.00  0.00    -0.644 OA
ENDBRANCH   1  15
TORSDOF 2
ENDMDL
