MODEL 12
REMARK VINA RESULT: -5.844911015      1.851      2.841
REMARK  2 active torsions:
REMARK  status: ('A' for Active; 'I' for Inactive)
REMARK    1  A    between atoms: C1_2  and  C2_4 
REMARK    2  A    between atoms: C5_7  and  C6_8 
ROOT
HETATM    1  C2  UNL     1      21.654  85.066  27.225  1.00  0.00     0.040 A 
HETATM    2  C3  UNL     1      20.953  86.019  26.543  1.00  0.00     0.019 A 
HETATM    3  C4  UNL     1      20.945  86.023  25.165  1.00  0.00     0.013 A 
HETATM    4  C5  UNL     1      21.632  85.080  24.440  1.00  0.00    -0.020 A 
HETATM    5  C12 UNL     1      22.348  84.106  25.140  1.00  0.00     0.013 A 
HETATM    6  C13 UNL     1      22.348  84.114  26.514  1.00  0.00     0.019 A 
ENDROOT
BRANCH   4   7
HETATM    7  C6  UNL     1      21.639  85.100  22.974  1.00  0.00     0.051 A 
HETATM    8  C7  UNL     1      22.018  86.251  22.309  1.00  0.00     0.130 A 
HETATM    9  F1  UNL     1      22.394  87.328  23.042  1.00  0.00    -0.205 F 
HETATM   10  C8  UNL     1      22.023  86.327  20.926  1.00  0.00     0.043 A 
HETATM   11  C9  UNL     1      21.644  85.238  20.190  1.00  0.00     0.006 A 
HETATM   12  C10 UNL     1      21.253  84.055  20.814  1.00  0.00     0.043 A 
HETATM   13  C11 UNL     1      21.261  84.016  22.207  1.00  0.00     0.130 A 
HETATM   14  F2  UNL     1      20.883  82.879  22.798  1.00  0.00    -0.205 F 
ENDBRANCH   4   7
BRANCH   1  15
HETATM   15  C1  UNL     1      21.641  85.095  28.681  1.00  0.00     0.209 C 
HETATM   16  O1  UNL     1      21.366  86.130  29.339  1.00  0.00    -0.644 OA
HETATM   17  O2  UNL     1      21.940  83.963  29.428  1.00  0.00    -0.644 OA
ENDBRANCH   1  15
TORSDOF 2
ENDMDL
