MODEL 19
REMARK VINA RESULT: -5.385679812      3.630      5.501
REMARK  2 active torsions:
REMARK  status: ('A' for Active; 'I' for Inactive)
REMARK    1  A    between atoms: C1_2  and  C2_4 
REMARK    2  A    between atoms: C5_7  and  C6_8 
ROOT
HETATM    1  C2  UNL     1      21.517  86.353  22.681  1.00  0.00     0.040 A 
HETATM    2  C3  UNL     1      20.685  85.383  23.163  1.00  0.00     0.019 A 
HETATM    3  C4  UNL     1      20.824  84.930  24.457  1.00  0.00     0.013 A 
HETATM    4  C5  UNL     1      21.791  85.432  25.294  1.00  0.00    -0.020 A 
HETATM    5  C12 UNL     1      22.639  86.425  24.798  1.00  0.00     0.013 A 
HETATM    6  C13 UNL     1      22.489  86.868  23.506  1.00  0.00     0.019 A 
ENDROOT
BRANCH   4   7
HETATM    7  C6  UNL     1      21.950  84.933  26.663  1.00  0.00     0.051 A 
HETATM    8  C7  UNL     1      22.654  83.765  26.887  1.00  0.00     0.130 A 
HETATM    9  F1  UNL     1      23.197  83.124  25.822  1.00  0.00    -0.205 F 
HETATM   10  C8  UNL     1      22.816  83.241  28.159  1.00  0.00     0.043 A 
HETATM   11  C9  UNL     1      22.267  83.892  29.230  1.00  0.00     0.006 A 
HETATM   12  C10 UNL     1      21.548  85.072  29.057  1.00  0.00     0.043 A 
HETATM   13  C11 UNL     1      21.406  85.568  27.762  1.00  0.00     0.130 A 
HETATM   14  F2  UNL     1      20.713  86.700  27.604  1.00  0.00    -0.205 F 
ENDBRANCH   4   7
BRANCH   1  15
HETATM   15  C1  UNL     1      21.341  86.805  21.307  1.00  0.00     0.209 C 
HETATM   16  O1  UNL     1      21.663  86.106  20.314  1.00  0.00    -0.644 OA
HETATM   17  O2  UNL     1      20.802  88.053  21.021  1.00  0.00    -0.644 OA
ENDBRANCH   1  15
TORSDOF 2
ENDMDL
