MODEL 8
REMARK VINA RESULT: -6.337151457      3.997      5.902
REMARK  2 active torsions:
REMARK  status: ('A' for Active; 'I' for Inactive)
REMARK    1  A    between atoms: C1_2  and  C2_4 
REMARK    2  A    between atoms: C5_7  and  C6_8 
ROOT
HETATM    1  C2  UNL     1      21.638  85.118  21.009  1.00  0.00     0.040 A 
HETATM    2  C3  UNL     1      21.325  86.261  21.687  1.00  0.00     0.019 A 
HETATM    3  C4  UNL     1      21.350  86.281  23.065  1.00  0.00     0.013 A 
HETATM    4  C5  UNL     1      21.687  85.166  23.794  1.00  0.00    -0.020 A 
HETATM    5  C12 UNL     1      22.007  83.998  23.097  1.00  0.00     0.013 A 
HETATM    6  C13 UNL     1      21.979  83.993  21.723  1.00  0.00     0.019 A 
ENDROOT
BRANCH   4   7
HETATM    7  C6  UNL     1      21.691  85.184  25.259  1.00  0.00     0.051 A 
HETATM    8  C7  UNL     1      20.947  84.251  25.956  1.00  0.00     0.130 A 
HETATM    9  F1  UNL     1      20.246  83.328  25.253  1.00  0.00    -0.205 F 
HETATM   10  C8  UNL     1      20.903  84.239  27.340  1.00  0.00     0.043 A 
HETATM   11  C9  UNL     1      21.612  85.171  28.046  1.00  0.00     0.006 A 
HETATM   12  C10 UNL     1      22.377  86.133  27.389  1.00  0.00     0.043 A 
HETATM   13  C11 UNL     1      22.397  86.115  25.996  1.00  0.00     0.130 A 
HETATM   14  F2  UNL     1      23.132  87.041  25.374  1.00  0.00    -0.205 F 
ENDBRANCH   4   7
BRANCH   1  15
HETATM   15  C1  UNL     1      21.599  85.135  19.553  1.00  0.00     0.209 C 
HETATM   16  O1  UNL     1      20.529  85.241  18.902  1.00  0.00    -0.644 OA
HETATM   17  O2  UNL     1      22.760  85.029  18.798  1.00  0.00    -0.644 OA
ENDBRANCH   1  15
TORSDOF 2
ENDMDL
