MODEL 4
REMARK VINA RESULT: -4.452999237      4.815      5.585
REMARK  5 active torsions:
REMARK  status: ('A' for Active; 'I' for Inactive)
REMARK    1  A    between atoms: S1_2  and  C2_3 
REMARK    2  A    between atoms: C3_4  and  N1_5 
REMARK    3  A    between atoms: C4_9  and  O1_10 
REMARK    4  A    between atoms: C5_12  and  O2_13 
REMARK    5  A    between atoms: C6_15  and  O3_16 
ROOT
HETATM    1  C2  UNL     1      27.191  63.215  12.709  1.00  0.00     0.111 C 
HETATM    2  C3  UNL     1      28.317  64.166  13.080  1.00  0.00     0.230 C 
HETATM    3  C4  UNL     1      28.309  65.127  11.924  1.00  0.00     0.181 C 
HETATM    4  C5  UNL     1      28.092  64.259  10.715  1.00  0.00     0.178 C 
HETATM    5  C6  UNL     1      27.087  63.238  11.206  1.00  0.00     0.165 C 
ENDROOT
BRANCH   2   6
HETATM    6  N1  UNL     1      29.571  63.490  13.269  1.00  0.00    -0.071 N 
ATOM      7  H13 UNL     1      29.773  62.868  12.487  1.00  0.00     0.274 HD
ATOM      8  H12 UNL     1      30.354  64.136  13.172  1.00  0.00     0.274 HD
ATOM      9  H11 UNL     1      29.617  62.989  14.156  1.00  0.00     0.274 HD
ENDBRANCH   2   6
BRANCH   1  10
HETATM   10  S1  UNL     1      25.677  63.920  13.439  1.00  0.00    -0.164 SA
HETATM   11  C1  UNL     1      24.217  62.954  12.979  1.00  0.00     0.090 C 
ENDBRANCH   1  10
BRANCH   3  12
HETATM   12  O1  UNL     1      29.458  65.886  11.823  1.00  0.00    -0.391 OA
ATOM     13  H1  UNL     1      30.170  65.446  11.373  1.00  0.00     0.210 HD
ENDBRANCH   3  12
BRANCH   5  14
HETATM   14  O3  UNL     1      27.341  61.980  10.673  1.00  0.00    -0.392 OA
ATOM     15  H3  UNL     1      26.539  61.575  10.363  1.00  0.00     0.210 HD
ENDBRANCH   5  14
BRANCH   4  16
HETATM   16  O2  UNL     1      29.244  63.605  10.322  1.00  0.00    -0.390 OA
ATOM     17  H2  UNL     1      29.990  64.190  10.259  1.00  0.00     0.210 HD
ENDBRANCH   4  16
TORSDOF 5
ENDMDL
