MODEL 2
REMARK VINA RESULT: -4.560154877      4.054      4.948
REMARK  5 active torsions:
REMARK  status: ('A' for Active; 'I' for Inactive)
REMARK    1  A    between atoms: S1_2  and  C2_3 
REMARK    2  A    between atoms: C3_4  and  N1_5 
REMARK    3  A    between atoms: C4_9  and  O1_10 
REMARK    4  A    between atoms: C5_12  and  O2_13 
REMARK    5  A    between atoms: C6_15  and  O3_16 
ROOT
HETATM    1  C2  UNL     1      27.704  64.250  10.662  1.00  0.00     0.111 C 
HETATM    2  C3  UNL     1      27.050  63.137  11.466  1.00  0.00     0.230 C 
HETATM    3  C4  UNL     1      27.166  63.657  12.871  1.00  0.00     0.181 C 
HETATM    4  C5  UNL     1      28.542  64.262  12.937  1.00  0.00     0.178 C 
HETATM    5  C6  UNL     1      28.685  64.925  11.584  1.00  0.00     0.165 C 
ENDROOT
BRANCH   2   6
HETATM    6  N1  UNL     1      27.683  61.863  11.261  1.00  0.00    -0.071 N 
ATOM      7  H13 UNL     1      28.615  61.977  10.862  1.00  0.00     0.274 HD
ATOM      8  H12 UNL     1      27.936  61.432  12.150  1.00  0.00     0.274 HD
ATOM      9  H11 UNL     1      27.117  61.230  10.695  1.00  0.00     0.274 HD
ENDBRANCH   2   6
BRANCH   1  10
HETATM   10  S1  UNL     1      26.366  65.411  10.233  1.00  0.00    -0.164 SA
HETATM   11  C1  UNL     1      26.268  65.662   8.442  1.00  0.00     0.090 C 
ENDBRANCH   1  10
BRANCH   3  12
HETATM   12  O1  UNL     1      26.973  62.692  13.840  1.00  0.00    -0.391 OA
ATOM     13  H1  UNL     1      26.168  62.800  14.334  1.00  0.00     0.210 HD
ENDBRANCH   3  12
BRANCH   5  14
HETATM   14  O3  UNL     1      29.982  64.810  11.098  1.00  0.00    -0.392 OA
ATOM     15  H3  UNL     1      30.050  64.090  10.480  1.00  0.00     0.210 HD
ENDBRANCH   5  14
BRANCH   4  16
HETATM   16  O2  UNL     1      29.531  63.307  13.079  1.00  0.00    -0.390 OA
ATOM     17  H2  UNL     1      30.041  63.193  12.285  1.00  0.00     0.210 HD
ENDBRANCH   4  16
TORSDOF 5
ENDMDL
