MODEL 1
REMARK VINA RESULT: -5.355479553      0.000      0.000
REMARK  5 active torsions:
REMARK  status: ('A' for Active; 'I' for Inactive)
REMARK    1  A    between atoms: S1_2  and  C2_3 
REMARK    2  A    between atoms: C3_4  and  N1_5 
REMARK    3  A    between atoms: C4_9  and  O1_10 
REMARK    4  A    between atoms: C5_12  and  O2_13 
REMARK    5  A    between atoms: C6_15  and  O3_16 
ROOT
HETATM    1  C2  UNL     1      30.169  65.503   7.486  1.00  0.00     0.111 C 
HETATM    2  C3  UNL     1      29.940  65.417   8.986  1.00  0.00     0.230 C 
HETATM    3  C4  UNL     1      30.603  66.675   9.475  1.00  0.00     0.181 C 
HETATM    4  C5  UNL     1      31.864  66.778   8.661  1.00  0.00     0.178 C 
HETATM    5  C6  UNL     1      31.418  66.322   7.288  1.00  0.00     0.165 C 
ENDROOT
BRANCH   2   6
HETATM    6  N1  UNL     1      30.477  64.213   9.559  1.00  0.00    -0.071 N 
ATOM      7  H13 UNL     1      30.792  63.571   8.832  1.00  0.00     0.274 HD
ATOM      8  H12 UNL     1      31.371  64.392  10.018  1.00  0.00     0.274 HD
ATOM      9  H11 UNL     1      29.824  63.756  10.194  1.00  0.00     0.274 HD
ENDBRANCH   2   6
BRANCH   1  10
HETATM   10  S1  UNL     1      28.733  66.400   6.810  1.00  0.00    -0.164 SA
HETATM   11  C1  UNL     1      27.220  65.988   7.714  1.00  0.00     0.090 C 
ENDBRANCH   1  10
BRANCH   3  12
HETATM   12  O1  UNL     1      30.857  66.679  10.833  1.00  0.00    -0.391 OA
ATOM     13  H1  UNL     1      31.450  67.367  11.110  1.00  0.00     0.210 HD
ENDBRANCH   3  12
BRANCH   5  14
HETATM   14  O3  UNL     1      32.405  65.575   6.656  1.00  0.00    -0.392 OA
ATOM     15  H3  UNL     1      32.661  64.831   7.190  1.00  0.00     0.210 HD
ENDBRANCH   5  14
BRANCH   4  16
HETATM   16  O2  UNL     1      32.857  65.931   9.117  1.00  0.00    -0.390 OA
ATOM     17  H2  UNL     1      33.721  66.196   8.826  1.00  0.00     0.210 HD
ENDBRANCH   4  16
TORSDOF 5
ENDMDL
