MODEL 5
REMARK VINA RESULT: -4.433238986      4.919      6.083
REMARK  5 active torsions:
REMARK  status: ('A' for Active; 'I' for Inactive)
REMARK    1  A    between atoms: S1_2  and  C2_3 
REMARK    2  A    between atoms: C3_4  and  N1_5 
REMARK    3  A    between atoms: C4_9  and  O1_10 
REMARK    4  A    between atoms: C5_12  and  O2_13 
REMARK    5  A    between atoms: C6_15  and  O3_16 
ROOT
HETATM    1  C2  UNL     1      27.300  64.539  13.192  1.00  0.00     0.111 C 
HETATM    2  C3  UNL     1      28.648  64.487  12.491  1.00  0.00     0.230 C 
HETATM    3  C4  UNL     1      28.259  64.087  11.095  1.00  0.00     0.181 C 
HETATM    4  C5  UNL     1      27.191  63.045  11.286  1.00  0.00     0.178 C 
HETATM    5  C6  UNL     1      26.396  63.585  12.456  1.00  0.00     0.165 C 
ENDROOT
BRANCH   2   6
HETATM    6  N1  UNL     1      29.565  63.580  13.125  1.00  0.00    -0.071 N 
ATOM      7  H13 UNL     1      29.093  63.016  13.831  1.00  0.00     0.274 HD
ATOM      8  H12 UNL     1      29.849  62.839  12.484  1.00  0.00     0.274 HD
ATOM      9  H11 UNL     1      30.377  64.055  13.519  1.00  0.00     0.274 HD
ENDBRANCH   2   6
BRANCH   1  10
HETATM   10  S1  UNL     1      26.691  66.245  12.983  1.00  0.00    -0.164 SA
HETATM   11  C1  UNL     1      25.273  66.300  11.858  1.00  0.00     0.090 C 
ENDBRANCH   1  10
BRANCH   3  12
HETATM   12  O1  UNL     1      29.314  63.621  10.336  1.00  0.00    -0.391 OA
ATOM     13  H1  UNL     1      30.136  63.574  10.809  1.00  0.00     0.210 HD
ENDBRANCH   3  12
BRANCH   5  14
HETATM   14  O3  UNL     1      25.969  62.561  13.294  1.00  0.00    -0.392 OA
ATOM     15  H3  UNL     1      25.026  62.585  13.405  1.00  0.00     0.210 HD
ENDBRANCH   5  14
BRANCH   4  16
HETATM   16  O2  UNL     1      27.713  61.811  11.626  1.00  0.00    -0.390 OA
ATOM     17  H2  UNL     1      28.663  61.801  11.607  1.00  0.00     0.210 HD
ENDBRANCH   4  16
TORSDOF 5
ENDMDL
