MODEL 1
REMARK VINA RESULT: -7.039802336      0.000      0.000
REMARK  7 active torsions:
REMARK  status: ('A' for Active; 'I' for Inactive)
REMARK    1  A    between atoms: S1_2  and  C2_3 
REMARK    2  A    between atoms: C3_4  and  N1_5 
REMARK    3  A    between atoms: N1_5  and  C4_8 
REMARK    4  A    between atoms: C4_8  and  C5_9 
REMARK    5  A    between atoms: C11_15  and  O1_16 
REMARK    6  A    between atoms: C12_18  and  O2_19 
REMARK    7  A    between atoms: C13_21  and  O3_22 
ROOT
HETATM    1  C2  UNL     1      27.057  65.050  11.608  1.00  0.00     0.111 C 
HETATM    2  C3  UNL     1      27.953  65.023  10.354  1.00  0.00     0.233 C 
HETATM    3  C11 UNL     1      28.804  63.826  10.704  1.00  0.00     0.181 C 
HETATM    4  C12 UNL     1      27.827  62.857  11.388  1.00  0.00     0.178 C 
HETATM    5  C13 UNL     1      26.540  63.637  11.588  1.00  0.00     0.165 C 
ENDROOT
BRANCH   2   6
HETATM    6  N1  UNL     1      28.661  66.253  10.220  1.00  0.00    -0.063 N 
ATOM      7  H12 UNL     1      28.227  66.990  10.775  1.00  0.00     0.278 HD
ATOM      8  H11 UNL     1      29.567  66.209  10.686  1.00  0.00     0.278 HD
BRANCH   6   9
HETATM    9  C4  UNL     1      28.802  66.649   8.860  1.00  0.00     0.271 C 
BRANCH   9  10
HETATM   10  C5  UNL     1      30.209  66.769   8.418  1.00  0.00    -0.033 A 
HETATM   11  C6  UNL     1      31.240  66.582   9.311  1.00  0.00     0.009 A 
HETATM   12  C7  UNL     1      32.573  66.683   8.924  1.00  0.00     0.001 A 
HETATM   13  C8  UNL     1      32.907  66.977   7.625  1.00  0.00     0.000 A 
HETATM   14  C9  UNL     1      31.883  67.168   6.722  1.00  0.00     0.001 A 
HETATM   15  C10 UNL     1      30.558  67.065   7.112  1.00  0.00     0.009 A 
ENDBRANCH   9  10
ENDBRANCH   6   9
ENDBRANCH   2   6
BRANCH   1  16
HETATM   16  S1  UNL     1      25.818  66.306  11.584  1.00  0.00    -0.164 SA
HETATM   17  C1  UNL     1      25.086  66.634   9.996  1.00  0.00     0.090 C 
ENDBRANCH   1  16
BRANCH   3  18
HETATM   18  O1  UNL     1      29.751  64.262  11.642  1.00  0.00    -0.391 OA
ATOM     19  H1  UNL     1      29.292  64.824  12.255  1.00  0.00     0.210 HD
ENDBRANCH   3  18
BRANCH   5  20
HETATM   20  O3  UNL     1      25.852  63.274  12.720  1.00  0.00    -0.392 OA
ATOM     21  H3  UNL     1      25.062  63.778  12.873  1.00  0.00     0.210 HD
ENDBRANCH   5  20
BRANCH   4  22
HETATM   22  O2  UNL     1      28.338  62.337  12.554  1.00  0.00    -0.390 OA
ATOM     23  H2  UNL     1      29.053  62.860  12.899  1.00  0.00     0.210 HD
ENDBRANCH   4  22
TORSDOF 7
ENDMDL
