MODEL 13
REMARK VINA RESULT: -6.678335338      3.406      5.817
REMARK  7 active torsions:
REMARK  status: ('A' for Active; 'I' for Inactive)
REMARK    1  A    between atoms: S1_2  and  C2_3 
REMARK    2  A    between atoms: C3_4  and  N1_5 
REMARK    3  A    between atoms: N1_5  and  C4_8 
REMARK    4  A    between atoms: C4_8  and  C5_9 
REMARK    5  A    between atoms: C11_15  and  O1_16 
REMARK    6  A    between atoms: C12_18  and  O2_19 
REMARK    7  A    between atoms: C13_21  and  O3_22 
ROOT
HETATM    1  C2  UNL     1      30.538  66.055   7.335  1.00  0.00     0.111 C 
HETATM    2  C3  UNL     1      30.263  66.573   8.761  1.00  0.00     0.233 C 
HETATM    3  C11 UNL     1      31.682  66.598   9.275  1.00  0.00     0.181 C 
HETATM    4  C12 UNL     1      32.511  67.063   8.068  1.00  0.00     0.178 C 
HETATM    5  C13 UNL     1      31.560  67.062   6.885  1.00  0.00     0.165 C 
ENDROOT
BRANCH   2   6
HETATM    6  N1  UNL     1      29.382  65.691   9.452  1.00  0.00    -0.063 N 
ATOM      7  H12 UNL     1      28.942  65.031   8.809  1.00  0.00     0.278 HD
ATOM      8  H11 UNL     1      29.901  65.032  10.031  1.00  0.00     0.278 HD
BRANCH   6   9
HETATM    9  C4  UNL     1      28.407  66.391  10.217  1.00  0.00     0.271 C 
BRANCH   9  10
HETATM   10  C5  UNL     1      28.812  66.630  11.620  1.00  0.00    -0.033 A 
HETATM   11  C6  UNL     1      28.656  65.645  12.569  1.00  0.00     0.009 A 
HETATM   12  C7  UNL     1      29.030  65.839  13.896  1.00  0.00     0.001 A 
HETATM   13  C8  UNL     1      29.574  67.032  14.305  1.00  0.00     0.000 A 
HETATM   14  C9  UNL     1      29.734  68.026  13.363  1.00  0.00     0.001 A 
HETATM   15  C10 UNL     1      29.360  67.828  12.045  1.00  0.00     0.009 A 
ENDBRANCH   9  10
ENDBRANCH   6   9
ENDBRANCH   2   6
BRANCH   1  16
HETATM   16  S1  UNL     1      29.100  65.933   6.320  1.00  0.00    -0.164 SA
HETATM   17  C1  UNL     1      27.898  67.228   6.533  1.00  0.00     0.090 C 
ENDBRANCH   1  16
BRANCH   3  18
HETATM   18  O1  UNL     1      32.025  65.274   9.584  1.00  0.00    -0.391 OA
ATOM     19  H1  UNL     1      32.895  65.297   9.966  1.00  0.00     0.210 HD
ENDBRANCH   3  18
BRANCH   5  20
HETATM   20  O3  UNL     1      32.170  66.751   5.694  1.00  0.00    -0.392 OA
ATOM     21  H3  UNL     1      31.567  66.552   4.989  1.00  0.00     0.210 HD
ENDBRANCH   5  20
BRANCH   4  22
HETATM   22  O2  UNL     1      33.629  66.287   7.872  1.00  0.00    -0.390 OA
ATOM     23  H2  UNL     1      34.287  66.728   7.349  1.00  0.00     0.210 HD
ENDBRANCH   4  22
TORSDOF 7
ENDMDL
