MODEL 4
REMARK VINA RESULT: -6.980183773      2.952      6.149
REMARK  7 active torsions:
REMARK  status: ('A' for Active; 'I' for Inactive)
REMARK    1  A    between atoms: S1_2  and  C2_3 
REMARK    2  A    between atoms: C3_4  and  N1_5 
REMARK    3  A    between atoms: N1_5  and  C4_8 
REMARK    4  A    between atoms: C4_8  and  C5_9 
REMARK    5  A    between atoms: C11_15  and  O1_16 
REMARK    6  A    between atoms: C12_18  and  O2_19 
REMARK    7  A    between atoms: C13_21  and  O3_22 
ROOT
HETATM    1  C2  UNL     1      30.540  66.042   7.336  1.00  0.00     0.111 C 
HETATM    2  C3  UNL     1      30.199  66.506   8.767  1.00  0.00     0.233 C 
HETATM    3  C11 UNL     1      31.595  66.522   9.342  1.00  0.00     0.181 C 
HETATM    4  C12 UNL     1      32.471  67.037   8.190  1.00  0.00     0.178 C 
HETATM    5  C13 UNL     1      31.571  67.074   6.968  1.00  0.00     0.165 C 
ENDROOT
BRANCH   2   6
HETATM    6  N1  UNL     1      29.297  65.592   9.387  1.00  0.00    -0.063 N 
ATOM      7  H12 UNL     1      28.626  65.223   8.713  1.00  0.00     0.278 HD
ATOM      8  H11 UNL     1      29.769  64.724   9.639  1.00  0.00     0.278 HD
BRANCH   6   9
HETATM    9  C4  UNL     1      28.637  66.164  10.510  1.00  0.00     0.271 C 
BRANCH   9  10
HETATM   10  C5  UNL     1      28.269  65.177  11.549  1.00  0.00    -0.033 A 
HETATM   11  C6  UNL     1      27.177  65.392  12.360  1.00  0.00     0.009 A 
HETATM   12  C7  UNL     1      26.803  64.481  13.344  1.00  0.00     0.001 A 
HETATM   13  C8  UNL     1      27.520  63.326  13.540  1.00  0.00     0.000 A 
HETATM   14  C9  UNL     1      28.616  63.100  12.735  1.00  0.00     0.001 A 
HETATM   15  C10 UNL     1      28.983  64.010  11.757  1.00  0.00     0.009 A 
ENDBRANCH   9  10
ENDBRANCH   6   9
ENDBRANCH   2   6
BRANCH   1  16
HETATM   16  S1  UNL     1      29.147  65.949   6.256  1.00  0.00    -0.164 SA
HETATM   17  C1  UNL     1      27.913  67.210   6.483  1.00  0.00     0.090 C 
ENDBRANCH   1  16
BRANCH   3  18
HETATM   18  O1  UNL     1      31.936  65.190   9.617  1.00  0.00    -0.391 OA
ATOM     19  H1  UNL     1      32.458  64.883   8.885  1.00  0.00     0.210 HD
ENDBRANCH   3  18
BRANCH   5  20
HETATM   20  O3  UNL     1      32.234  66.812   5.794  1.00  0.00    -0.392 OA
ATOM     21  H3  UNL     1      33.120  67.153   5.763  1.00  0.00     0.210 HD
ENDBRANCH   5  20
BRANCH   4  22
HETATM   22  O2  UNL     1      33.602  66.276   8.014  1.00  0.00    -0.390 OA
ATOM     23  H2  UNL     1      33.434  65.493   7.504  1.00  0.00     0.210 HD
ENDBRANCH   4  22
TORSDOF 7
ENDMDL
