MODEL 4
REMARK VINA RESULT: -9.825951518      0.761      1.363
REMARK  13 active torsions:
REMARK  status: ('A' for Active; 'I' for Inactive)
REMARK    1  A    between atoms: C2_2  and  C4_4 
REMARK    2  A    between atoms: C4_4  and  N1_5 
REMARK    3  A    between atoms: N1_5  and  C5_6 
REMARK    4  A    between atoms: N1_5  and  S1_31 
REMARK    5  A    between atoms: C5_6  and  C6_7 
REMARK    6  A    between atoms: C6_7  and  O1_8 
REMARK    7  A    between atoms: C6_7  and  C7_10 
REMARK    8  A    between atoms: C7_10  and  C8_11 
REMARK    9  A    between atoms: C7_10  and  N2_18 
REMARK   10  A    between atoms: C8_11  and  C9_12 
REMARK       I    between atoms: N2_18  and  C15_20 
REMARK   11  A    between atoms: C15_20  and  O3_22 
REMARK   12  A    between atoms: O3_22  and  C16_23 
REMARK   13  A    between atoms: S1_31  and  C22_34 
ROOT
HETATM    1  C7  UNL     1      18.486  24.299  18.048  1.00  0.00     0.029 C 
ENDROOT
BRANCH   1   2
HETATM    2  C6  UNL     1      17.081  24.410  17.511  1.00  0.00     0.203 C 
BRANCH   2   3
HETATM    3  C5  UNL     1      16.189  23.282  17.834  1.00  0.00     0.119 C 
BRANCH   3   4
HETATM    4  N1  UNL     1      16.287  22.125  17.049  1.00  0.00    -0.262 N 
BRANCH   4   5
HETATM    5  C4  UNL     1      16.396  22.181  15.659  1.00  0.00     0.085 C 
BRANCH   5   6
HETATM    6  C2  UNL     1      15.206  21.632  14.882  1.00  0.00     0.017 C 
HETATM    7  C1  UNL     1      13.900  22.275  15.256  1.00  0.00     0.015 C 
HETATM    8  C3  UNL     1      15.420  21.729  13.390  1.00  0.00     0.015 C 
ENDBRANCH   5   6
ENDBRANCH   4   5
BRANCH   4   9
HETATM    9  S1  UNL     1      16.863  20.757  17.857  1.00  0.00     0.267 S 
HETATM   10  O6  UNL     1      17.531  19.855  16.830  1.00  0.00    -0.200 OA
HETATM   11  O7  UNL     1      17.886  21.107  18.929  1.00  0.00    -0.200 OA
BRANCH   9  12
HETATM   12  C22 UNL     1      15.600  19.812  18.636  1.00  0.00     0.080 A 
HETATM   13  C23 UNL     1      14.976  20.199  19.803  1.00  0.00     0.027 A 
HETATM   14  C24 UNL     1      13.990  19.437  20.399  1.00  0.00     0.028 A 
HETATM   15  C25 UNL     1      13.587  18.243  19.840  1.00  0.00     0.046 A 
HETATM   16  N3  UNL     1      12.560  17.446  20.459  1.00  0.00    -0.102 NA
HETATM   17  C26 UNL     1      14.200  17.840  18.675  1.00  0.00     0.028 A 
HETATM   18  C27 UNL     1      15.182  18.604  18.086  1.00  0.00     0.027 A 
ENDBRANCH   9  12
ENDBRANCH   4   9
ENDBRANCH   3   4
ENDBRANCH   2   3
BRANCH   2  19
HETATM   19  O1  UNL     1      16.541  25.578  18.101  1.00  0.00    -0.385 OA
ATOM     20  H1  UNL     1      17.245  26.208  18.202  1.00  0.00     0.211 HD
ENDBRANCH   2  19
ENDBRANCH   1   2
BRANCH   1  21
HETATM   21  C8  UNL     1      18.544  24.313  19.551  1.00  0.00     0.094 C 
BRANCH  21  22
HETATM   22  C9  UNL     1      19.886  24.352  20.132  1.00  0.00    -0.053 A 
HETATM   23  C10 UNL     1      20.676  23.204  20.065  1.00  0.00     0.007 A 
HETATM   24  C11 UNL     1      21.934  23.111  20.599  1.00  0.00     0.001 A 
HETATM   25  C12 UNL     1      22.460  24.215  21.245  1.00  0.00     0.000 A 
HETATM   26  C13 UNL     1      21.719  25.368  21.336  1.00  0.00     0.001 A 
HETATM   27  C14 UNL     1      20.433  25.418  20.774  1.00  0.00     0.007 A 
ENDBRANCH  21  22
ENDBRANCH   1  21
BRANCH   1  28
HETATM   28  N2  UNL     1      19.470  25.007  17.331  1.00  0.00    -0.307 N 
HETATM   29  C15 UNL     1      20.040  24.591  16.103  1.00  0.00     0.365 C 
HETATM   30  O2  UNL     1      19.682  23.527  15.585  1.00  0.00    -0.238 OA
ATOM     31  H2  UNL     1      19.798  25.888  17.727  1.00  0.00     0.170 HD
BRANCH  29  32
HETATM   32  O3  UNL     1      21.010  25.367  15.460  1.00  0.00    -0.296 OA
BRANCH  32  33
HETATM   33  C16 UNL     1      20.648  26.459  14.630  1.00  0.00     0.166 C 
HETATM   34  C17 UNL     1      19.865  27.493  15.369  1.00  0.00     0.204 C 
HETATM   35  O4  UNL     1      20.331  28.737  15.034  1.00  0.00    -0.358 OA
HETATM   36  C18 UNL     1      21.367  28.610  14.122  1.00  0.00     0.266 C 
HETATM   37  O5  UNL     1      22.449  29.431  14.414  1.00  0.00    -0.361 OA
HETATM   38  C21 UNL     1      21.921  27.211  14.299  1.00  0.00     0.075 C 
HETATM   39  C19 UNL     1      23.155  28.879  15.455  1.00  0.00     0.171 C 
HETATM   40  C20 UNL     1      22.838  27.380  15.466  1.00  0.00     0.038 C 
ENDBRANCH  32  33
ENDBRANCH  29  32
ENDBRANCH   1  28
TORSDOF 13
ENDMDL
