MODEL 2
REMARK VINA RESULT: -9.997816963      2.266      9.847
REMARK  13 active torsions:
REMARK  status: ('A' for Active; 'I' for Inactive)
REMARK    1  A    between atoms: C2_2  and  C4_4 
REMARK    2  A    between atoms: C4_4  and  N1_5 
REMARK    3  A    between atoms: N1_5  and  C5_6 
REMARK    4  A    between atoms: N1_5  and  S1_31 
REMARK    5  A    between atoms: C5_6  and  C6_7 
REMARK    6  A    between atoms: C6_7  and  O1_8 
REMARK    7  A    between atoms: C6_7  and  C7_10 
REMARK    8  A    between atoms: C7_10  and  C8_11 
REMARK    9  A    between atoms: C7_10  and  N2_18 
REMARK   10  A    between atoms: C8_11  and  C9_12 
REMARK       I    between atoms: N2_18  and  C15_20 
REMARK   11  A    between atoms: C15_20  and  O3_22 
REMARK   12  A    between atoms: O3_22  and  C16_23 
REMARK   13  A    between atoms: S1_31  and  C22_34 
ROOT
HETATM    1  C7  UNL     1      15.973  22.995  17.186  1.00  0.00     0.029 C 
ENDROOT
BRANCH   1   2
HETATM    2  C6  UNL     1      16.365  24.111  18.120  1.00  0.00     0.203 C 
BRANCH   2   3
HETATM    3  C5  UNL     1      17.272  25.124  17.550  1.00  0.00     0.119 C 
BRANCH   3   4
HETATM    4  N1  UNL     1      18.615  24.767  17.364  1.00  0.00    -0.262 N 
BRANCH   4   5
HETATM    5  C4  UNL     1      19.280  23.905  18.238  1.00  0.00     0.085 C 
BRANCH   5   6
HETATM    6  C2  UNL     1      19.939  24.566  19.442  1.00  0.00     0.017 C 
HETATM    7  C1  UNL     1      19.220  24.305  20.735  1.00  0.00     0.015 C 
HETATM    8  C3  UNL     1      21.392  24.173  19.570  1.00  0.00     0.015 C 
ENDBRANCH   5   6
ENDBRANCH   4   5
BRANCH   4   9
HETATM    9  S1  UNL     1      19.185  24.921  15.781  1.00  0.00     0.267 S 
HETATM   10  O6  UNL     1      20.000  23.678  15.454  1.00  0.00    -0.200 OA
HETATM   11  O7  UNL     1      18.054  25.035  14.768  1.00  0.00    -0.200 OA
BRANCH   9  12
HETATM   12  C22 UNL     1      20.238  26.310  15.540  1.00  0.00     0.080 A 
HETATM   13  C23 UNL     1      21.035  26.836  16.534  1.00  0.00     0.027 A 
HETATM   14  C24 UNL     1      21.851  27.931  16.322  1.00  0.00     0.028 A 
HETATM   15  C25 UNL     1      21.898  28.547  15.090  1.00  0.00     0.046 A 
HETATM   16  N3  UNL     1      22.745  29.689  14.866  1.00  0.00    -0.102 NA
HETATM   17  C26 UNL     1      21.107  28.036  14.085  1.00  0.00     0.028 A 
HETATM   18  C27 UNL     1      20.297  26.944  14.303  1.00  0.00     0.027 A 
ENDBRANCH   9  12
ENDBRANCH   4   9
ENDBRANCH   3   4
ENDBRANCH   2   3
BRANCH   2  19
HETATM   19  O1  UNL     1      15.154  24.758  18.468  1.00  0.00    -0.385 OA
ATOM     20  H1  UNL     1      15.210  25.011  19.382  1.00  0.00     0.211 HD
ENDBRANCH   2  19
ENDBRANCH   1   2
BRANCH   1  21
HETATM   21  C8  UNL     1      15.242  23.479  15.964  1.00  0.00     0.094 C 
BRANCH  21  22
HETATM   22  C9  UNL     1      14.649  22.436  15.127  1.00  0.00    -0.053 A 
HETATM   23  C10 UNL     1      15.395  21.928  14.062  1.00  0.00     0.007 A 
HETATM   24  C11 UNL     1      14.934  20.975  13.194  1.00  0.00     0.001 A 
HETATM   25  C12 UNL     1      13.656  20.478  13.376  1.00  0.00     0.000 A 
HETATM   26  C13 UNL     1      12.884  20.947  14.410  1.00  0.00     0.001 A 
HETATM   27  C14 UNL     1      13.397  21.927  15.276  1.00  0.00     0.007 A 
ENDBRANCH  21  22
ENDBRANCH   1  21
BRANCH   1  28
HETATM   28  N2  UNL     1      15.532  21.809  17.806  1.00  0.00    -0.307 N 
HETATM   29  C15 UNL     1      16.303  20.628  17.946  1.00  0.00     0.365 C 
HETATM   30  O2  UNL     1      17.455  20.587  17.498  1.00  0.00    -0.238 OA
ATOM     31  H2  UNL     1      14.585  21.799  18.184  1.00  0.00     0.170 HD
BRANCH  29  32
HETATM   32  O3  UNL     1      15.781  19.499  18.585  1.00  0.00    -0.296 OA
BRANCH  32  33
HETATM   33  C16 UNL     1      14.635  18.831  18.082  1.00  0.00     0.166 C 
HETATM   34  C17 UNL     1      14.681  17.362  18.343  1.00  0.00     0.204 C 
HETATM   35  O4  UNL     1      13.453  16.942  18.780  1.00  0.00    -0.358 OA
HETATM   36  C18 UNL     1      12.588  18.024  18.829  1.00  0.00     0.266 C 
HETATM   37  O5  UNL     1      11.828  18.058  19.991  1.00  0.00    -0.361 OA
HETATM   38  C21 UNL     1      13.457  19.260  18.933  1.00  0.00     0.075 C 
HETATM   39  C19 UNL     1      12.617  18.506  21.023  1.00  0.00     0.171 C 
HETATM   40  C20 UNL     1      13.760  19.311  20.395  1.00  0.00     0.038 C 
ENDBRANCH  32  33
ENDBRANCH  29  32
ENDBRANCH   1  28
TORSDOF 13
ENDMDL
