MODEL 1
REMARK VINA RESULT: -10.151033528      0.000      0.000
REMARK  13 active torsions:
REMARK  status: ('A' for Active; 'I' for Inactive)
REMARK    1  A    between atoms: C2_2  and  C4_4 
REMARK    2  A    between atoms: C4_4  and  N1_5 
REMARK    3  A    between atoms: N1_5  and  C5_6 
REMARK    4  A    between atoms: N1_5  and  S1_31 
REMARK    5  A    between atoms: C5_6  and  C6_7 
REMARK    6  A    between atoms: C6_7  and  O1_8 
REMARK    7  A    between atoms: C6_7  and  C7_10 
REMARK    8  A    between atoms: C7_10  and  C8_11 
REMARK    9  A    between atoms: C7_10  and  N2_18 
REMARK   10  A    between atoms: C8_11  and  C9_12 
REMARK       I    between atoms: N2_18  and  C15_20 
REMARK   11  A    between atoms: C15_20  and  O3_22 
REMARK   12  A    between atoms: O3_22  and  C16_23 
REMARK   13  A    between atoms: S1_31  and  C22_34 
ROOT
HETATM    1  C7  UNL     1      17.880  24.394  18.327  1.00  0.00     0.029 C 
ENDROOT
BRANCH   1   2
HETATM    2  C6  UNL     1      16.422  24.431  17.947  1.00  0.00     0.203 C 
BRANCH   2   3
HETATM    3  C5  UNL     1      15.683  23.171  18.151  1.00  0.00     0.119 C 
BRANCH   3   4
HETATM    4  N1  UNL     1      15.951  22.108  17.278  1.00  0.00    -0.262 N 
BRANCH   4   5
HETATM    5  C4  UNL     1      16.149  22.305  15.911  1.00  0.00     0.085 C 
BRANCH   5   6
HETATM    6  C2  UNL     1      14.991  21.893  15.011  1.00  0.00     0.017 C 
HETATM    7  C1  UNL     1      13.811  22.820  15.092  1.00  0.00     0.015 C 
HETATM    8  C3  UNL     1      15.427  21.738  13.573  1.00  0.00     0.015 C 
ENDBRANCH   5   6
ENDBRANCH   4   5
BRANCH   4   9
HETATM    9  S1  UNL     1      16.604  20.730  18.005  1.00  0.00     0.267 S 
HETATM   10  O6  UNL     1      17.348  19.945  16.935  1.00  0.00    -0.200 OA
HETATM   11  O7  UNL     1      17.584  21.073  19.119  1.00  0.00    -0.200 OA
BRANCH   9  12
HETATM   12  C22 UNL     1      15.396  19.652  18.693  1.00  0.00     0.080 A 
HETATM   13  C23 UNL     1      15.064  18.435  18.137  1.00  0.00     0.027 A 
HETATM   14  C24 UNL     1      14.107  17.607  18.694  1.00  0.00     0.028 A 
HETATM   15  C25 UNL     1      13.439  17.974  19.842  1.00  0.00     0.046 A 
HETATM   16  N3  UNL     1      12.441  17.115  20.424  1.00  0.00    -0.102 NA
HETATM   17  C26 UNL     1      13.757  19.187  20.411  1.00  0.00     0.028 A 
HETATM   18  C27 UNL     1      14.712  20.007  19.852  1.00  0.00     0.027 A 
ENDBRANCH   9  12
ENDBRANCH   4   9
ENDBRANCH   3   4
ENDBRANCH   2   3
BRANCH   2  19
HETATM   19  O1  UNL     1      15.838  25.418  18.778  1.00  0.00    -0.385 OA
ATOM     20  H1  UNL     1      16.441  25.594  19.491  1.00  0.00     0.211 HD
ENDBRANCH   2  19
ENDBRANCH   1   2
BRANCH   1  21
HETATM   21  C8  UNL     1      18.103  24.410  19.814  1.00  0.00     0.094 C 
BRANCH  21  22
HETATM   22  C9  UNL     1      19.494  24.278  20.247  1.00  0.00    -0.053 A 
HETATM   23  C10 UNL     1      20.117  23.036  20.126  1.00  0.00     0.007 A 
HETATM   24  C11 UNL     1      21.402  22.784  20.525  1.00  0.00     0.001 A 
HETATM   25  C12 UNL     1      22.135  23.817  21.082  1.00  0.00     0.000 A 
HETATM   26  C13 UNL     1      21.564  25.058  21.222  1.00  0.00     0.001 A 
HETATM   27  C14 UNL     1      20.242  25.271  20.799  1.00  0.00     0.007 A 
ENDBRANCH  21  22
ENDBRANCH   1  21
BRANCH   1  28
HETATM   28  N2  UNL     1      18.741  25.155  17.511  1.00  0.00    -0.307 N 
HETATM   29  C15 UNL     1      19.567  24.631  16.486  1.00  0.00     0.365 C 
HETATM   30  O2  UNL     1      19.571  23.416  16.258  1.00  0.00    -0.238 OA
ATOM     31  H2  UNL     1      18.772  26.162  17.670  1.00  0.00     0.170 HD
BRANCH  29  32
HETATM   32  O3  UNL     1      20.385  25.469  15.722  1.00  0.00    -0.296 OA
BRANCH  32  33
HETATM   33  C16 UNL     1      21.146  26.505  16.322  1.00  0.00     0.166 C 
HETATM   34  C17 UNL     1      22.606  26.363  16.045  1.00  0.00     0.204 C 
HETATM   35  O4  UNL     1      23.125  27.588  15.719  1.00  0.00    -0.358 OA
HETATM   36  C18 UNL     1      22.118  28.539  15.760  1.00  0.00     0.266 C 
HETATM   37  O5  UNL     1      22.145  29.404  14.672  1.00  0.00    -0.361 OA
HETATM   38  C21 UNL     1      20.814  27.787  15.587  1.00  0.00     0.075 C 
HETATM   39  C19 UNL     1      21.632  28.753  13.577  1.00  0.00     0.171 C 
HETATM   40  C20 UNL     1      20.737  27.627  14.104  1.00  0.00     0.038 C 
ENDBRANCH  32  33
ENDBRANCH  29  32
ENDBRANCH   1  28
TORSDOF 13
ENDMDL
