MODEL 5
REMARK VINA RESULT: -9.775658331      2.509     10.066
REMARK  13 active torsions:
REMARK  status: ('A' for Active; 'I' for Inactive)
REMARK    1  A    between atoms: C2_2  and  C4_4 
REMARK    2  A    between atoms: C4_4  and  N1_5 
REMARK    3  A    between atoms: N1_5  and  C5_6 
REMARK    4  A    between atoms: N1_5  and  S1_31 
REMARK    5  A    between atoms: C5_6  and  C6_7 
REMARK    6  A    between atoms: C6_7  and  O1_8 
REMARK    7  A    between atoms: C6_7  and  C7_10 
REMARK    8  A    between atoms: C7_10  and  C8_11 
REMARK    9  A    between atoms: C7_10  and  N2_18 
REMARK   10  A    between atoms: C8_11  and  C9_12 
REMARK       I    between atoms: N2_18  and  C15_20 
REMARK   11  A    between atoms: C15_20  and  O3_22 
REMARK   12  A    between atoms: O3_22  and  C16_23 
REMARK   13  A    between atoms: S1_31  and  C22_34 
ROOT
HETATM    1  C7  UNL     1      16.099  23.122  17.591  1.00  0.00     0.029 C 
ENDROOT
BRANCH   1   2
HETATM    2  C6  UNL     1      16.607  24.384  18.242  1.00  0.00     0.203 C 
BRANCH   2   3
HETATM    3  C5  UNL     1      17.400  25.270  17.371  1.00  0.00     0.119 C 
BRANCH   3   4
HETATM    4  N1  UNL     1      18.765  24.988  17.221  1.00  0.00    -0.262 N 
BRANCH   4   5
HETATM    5  C4  UNL     1      19.457  24.179  18.123  1.00  0.00     0.085 C 
BRANCH   5   6
HETATM    6  C2  UNL     1      20.024  24.890  19.345  1.00  0.00     0.017 C 
HETATM    7  C1  UNL     1      19.478  24.372  20.645  1.00  0.00     0.015 C 
HETATM    8  C3  UNL     1      21.534  24.847  19.365  1.00  0.00     0.015 C 
ENDBRANCH   5   6
ENDBRANCH   4   5
BRANCH   4   9
HETATM    9  S1  UNL     1      19.362  25.151  15.648  1.00  0.00     0.267 S 
HETATM   10  O6  UNL     1      20.157  23.896  15.318  1.00  0.00    -0.200 OA
HETATM   11  O7  UNL     1      18.249  25.300  14.620  1.00  0.00    -0.200 OA
BRANCH   9  12
HETATM   12  C22 UNL     1      20.446  26.521  15.441  1.00  0.00     0.080 A 
HETATM   13  C23 UNL     1      21.265  26.995  16.444  1.00  0.00     0.027 A 
HETATM   14  C24 UNL     1      22.105  28.077  16.259  1.00  0.00     0.028 A 
HETATM   15  C25 UNL     1      22.155  28.732  15.047  1.00  0.00     0.046 A 
HETATM   16  N3  UNL     1      23.027  29.860  14.851  1.00  0.00    -0.102 NA
HETATM   17  C26 UNL     1      21.342  28.273  14.035  1.00  0.00     0.028 A 
HETATM   18  C27 UNL     1      20.508  27.194  14.225  1.00  0.00     0.027 A 
ENDBRANCH   9  12
ENDBRANCH   4   9
ENDBRANCH   3   4
ENDBRANCH   2   3
BRANCH   2  19
HETATM   19  O1  UNL     1      15.450  25.092  18.648  1.00  0.00    -0.385 OA
ATOM     20  H1  UNL     1      14.764  24.458  18.819  1.00  0.00     0.211 HD
ENDBRANCH   2  19
ENDBRANCH   1   2
BRANCH   1  21
HETATM   21  C8  UNL     1      15.977  23.239  16.096  1.00  0.00     0.094 C 
BRANCH  21  22
HETATM   22  C9  UNL     1      14.824  22.563  15.502  1.00  0.00    -0.053 A 
HETATM   23  C10 UNL     1      14.979  21.257  15.038  1.00  0.00     0.007 A 
HETATM   24  C11 UNL     1      13.982  20.537  14.436  1.00  0.00     0.001 A 
HETATM   25  C12 UNL     1      12.744  21.130  14.275  1.00  0.00     0.000 A 
HETATM   26  C13 UNL     1      12.542  22.415  14.716  1.00  0.00     0.001 A 
HETATM   27  C14 UNL     1      13.594  23.117  15.327  1.00  0.00     0.007 A 
ENDBRANCH  21  22
ENDBRANCH   1  21
BRANCH   1  28
HETATM   28  N2  UNL     1      15.091  22.436  18.296  1.00  0.00    -0.307 N 
HETATM   29  C15 UNL     1      15.190  21.105  18.770  1.00  0.00     0.365 C 
HETATM   30  O2  UNL     1      16.221  20.453  18.567  1.00  0.00    -0.238 OA
ATOM     31  H2  UNL     1      14.222  22.937  18.479  1.00  0.00     0.170 HD
BRANCH  29  32
HETATM   32  O3  UNL     1      14.136  20.509  19.469  1.00  0.00    -0.296 OA
BRANCH  32  33
HETATM   33  C16 UNL     1      14.045  19.100  19.606  1.00  0.00     0.166 C 
HETATM   34  C17 UNL     1      13.195  18.700  20.767  1.00  0.00     0.204 C 
HETATM   35  O4  UNL     1      12.369  17.675  20.390  1.00  0.00    -0.358 OA
HETATM   36  C18 UNL     1      12.606  17.358  19.062  1.00  0.00     0.266 C 
HETATM   37  O5  UNL     1      11.438  17.175  18.332  1.00  0.00    -0.361 OA
HETATM   38  C21 UNL     1      13.231  18.588  18.435  1.00  0.00     0.075 C 
HETATM   39  C19 UNL     1      10.894  18.405  18.052  1.00  0.00     0.171 C 
HETATM   40  C20 UNL     1      12.035  19.426  18.124  1.00  0.00     0.038 C 
ENDBRANCH  32  33
ENDBRANCH  29  32
ENDBRANCH   1  28
TORSDOF 13
ENDMDL
