MODEL 2
REMARK VINA RESULT: -9.836052456      1.238      1.502
REMARK  13 active torsions:
REMARK  status: ('A' for Active; 'I' for Inactive)
REMARK    1  A    between atoms: C2_2  and  C4_4 
REMARK    2  A    between atoms: C4_4  and  N1_5 
REMARK    3  A    between atoms: N1_5  and  C5_6 
REMARK    4  A    between atoms: N1_5  and  S1_31 
REMARK    5  A    between atoms: C5_6  and  C6_7 
REMARK    6  A    between atoms: C6_7  and  O1_8 
REMARK    7  A    between atoms: C6_7  and  C7_10 
REMARK    8  A    between atoms: C7_10  and  C8_11 
REMARK    9  A    between atoms: C7_10  and  N2_18 
REMARK   10  A    between atoms: C8_11  and  C9_12 
REMARK       I    between atoms: N2_18  and  C15_20 
REMARK   11  A    between atoms: C15_20  and  O3_22 
REMARK   12  A    between atoms: O3_22  and  C16_23 
REMARK   13  A    between atoms: S1_31  and  C22_34 
ROOT
HETATM    1  C7  UNL     1      11.561  61.028  15.983  1.00  0.00     0.029 C 
ENDROOT
BRANCH   1   2
HETATM    2  C6  UNL     1      12.748  61.953  15.883  1.00  0.00     0.203 C 
BRANCH   2   3
HETATM    3  C5  UNL     1      12.424  63.384  15.743  1.00  0.00     0.119 C 
BRANCH   3   4
HETATM    4  N1  UNL     1      13.311  64.312  16.305  1.00  0.00    -0.262 N 
BRANCH   4   5
HETATM    5  C4  UNL     1      14.289  64.956  15.545  1.00  0.00     0.085 C 
BRANCH   5   6
HETATM    6  C2  UNL     1      15.718  64.478  15.770  1.00  0.00     0.017 C 
HETATM    7  C1  UNL     1      16.105  63.320  14.894  1.00  0.00     0.015 C 
HETATM    8  C3  UNL     1      16.715  65.602  15.610  1.00  0.00     0.015 C 
ENDBRANCH   5   6
ENDBRANCH   4   5
BRANCH   4   9
HETATM    9  S1  UNL     1      12.774  65.044  17.731  1.00  0.00     0.267 S 
HETATM   10  O6  UNL     1      11.536  65.864  17.398  1.00  0.00    -0.200 OA
HETATM   11  O7  UNL     1      12.404  64.025  18.800  1.00  0.00    -0.200 OA
BRANCH   9  12
HETATM   12  C22 UNL     1      13.947  66.143  18.447  1.00  0.00     0.080 A 
HETATM   13  C23 UNL     1      14.983  65.722  19.253  1.00  0.00     0.027 A 
HETATM   14  C24 UNL     1      15.890  66.605  19.808  1.00  0.00     0.028 A 
HETATM   15  C25 UNL     1      15.789  67.959  19.573  1.00  0.00     0.046 A 
HETATM   16  N3  UNL     1      16.731  68.882  20.151  1.00  0.00    -0.102 NA
HETATM   17  C26 UNL     1      14.759  68.398  18.772  1.00  0.00     0.028 A 
HETATM   18  C27 UNL     1      13.860  67.513  18.221  1.00  0.00     0.027 A 
ENDBRANCH   9  12
ENDBRANCH   4   9
ENDBRANCH   3   4
ENDBRANCH   2   3
BRANCH   2  19
HETATM   19  O1  UNL     1      13.464  61.783  17.093  1.00  0.00    -0.385 OA
ATOM     20  H1  UNL     1      13.074  62.352  17.746  1.00  0.00     0.211 HD
ENDBRANCH   2  19
ENDBRANCH   1   2
BRANCH   1  21
HETATM   21  C8  UNL     1      10.512  61.301  14.941  1.00  0.00     0.094 C 
BRANCH  21  22
HETATM   22  C9  UNL     1       9.500  60.258  14.774  1.00  0.00    -0.053 A 
HETATM   23  C10 UNL     1       8.160  60.588  14.981  1.00  0.00     0.007 A 
HETATM   24  C11 UNL     1       7.130  59.692  14.885  1.00  0.00     0.001 A 
HETATM   25  C12 UNL     1       7.424  58.379  14.564  1.00  0.00     0.000 A 
HETATM   26  C13 UNL     1       8.728  58.007  14.351  1.00  0.00     0.001 A 
HETATM   27  C14 UNL     1       9.754  58.959  14.461  1.00  0.00     0.007 A 
ENDBRANCH  21  22
ENDBRANCH   1  21
BRANCH   1  28
HETATM   28  N2  UNL     1      11.143  60.713  17.291  1.00  0.00    -0.307 N 
HETATM   29  C15 UNL     1      10.210  61.463  18.050  1.00  0.00     0.365 C 
HETATM   30  O2  UNL     1       9.704  62.484  17.571  1.00  0.00    -0.238 OA
ATOM     31  H2  UNL     1      11.542  59.881  17.725  1.00  0.00     0.170 HD
BRANCH  29  32
HETATM   32  O3  UNL     1       9.850  61.067  19.342  1.00  0.00    -0.296 OA
BRANCH  32  33
HETATM   33  C16 UNL     1       8.564  61.353  19.869  1.00  0.00     0.166 C 
HETATM   34  C17 UNL     1       8.296  60.608  21.134  1.00  0.00     0.204 C 
HETATM   35  O4  UNL     1       7.714  61.453  22.041  1.00  0.00    -0.358 OA
HETATM   36  C18 UNL     1       7.572  62.709  21.474  1.00  0.00     0.266 C 
HETATM   37  O5  UNL     1       7.946  63.736  22.331  1.00  0.00    -0.361 OA
HETATM   38  C21 UNL     1       8.588  62.788  20.354  1.00  0.00     0.075 C 
HETATM   39  C19 UNL     1       9.318  63.795  22.377  1.00  0.00     0.171 C 
HETATM   40  C20 UNL     1       9.837  63.153  21.086  1.00  0.00     0.038 C 
ENDBRANCH  32  33
ENDBRANCH  29  32
ENDBRANCH   1  28
TORSDOF 13
ENDMDL
