MODEL 1
REMARK VINA RESULT: -9.876457793      0.000      0.000
REMARK  13 active torsions:
REMARK  status: ('A' for Active; 'I' for Inactive)
REMARK    1  A    between atoms: C2_2  and  C4_4 
REMARK    2  A    between atoms: C4_4  and  N1_5 
REMARK    3  A    between atoms: N1_5  and  C5_6 
REMARK    4  A    between atoms: N1_5  and  S1_31 
REMARK    5  A    between atoms: C5_6  and  C6_7 
REMARK    6  A    between atoms: C6_7  and  O1_8 
REMARK    7  A    between atoms: C6_7  and  C7_10 
REMARK    8  A    between atoms: C7_10  and  C8_11 
REMARK    9  A    between atoms: C7_10  and  N2_18 
REMARK   10  A    between atoms: C8_11  and  C9_12 
REMARK       I    between atoms: N2_18  and  C15_20 
REMARK   11  A    between atoms: C15_20  and  O3_22 
REMARK   12  A    between atoms: O3_22  and  C16_23 
REMARK   13  A    between atoms: S1_31  and  C22_34 
ROOT
HETATM    1  C7  UNL     1      11.436  60.838  16.196  1.00  0.00     0.029 C 
ENDROOT
BRANCH   1   2
HETATM    2  C6  UNL     1      12.598  61.794  16.296  1.00  0.00     0.203 C 
BRANCH   2   3
HETATM    3  C5  UNL     1      12.281  63.207  16.021  1.00  0.00     0.119 C 
BRANCH   3   4
HETATM    4  N1  UNL     1      13.177  64.180  16.484  1.00  0.00    -0.262 N 
BRANCH   4   5
HETATM    5  C4  UNL     1      14.138  64.757  15.652  1.00  0.00     0.085 C 
BRANCH   5   6
HETATM    6  C2  UNL     1      15.561  64.243  15.834  1.00  0.00     0.017 C 
HETATM    7  C1  UNL     1      15.883  63.056  14.971  1.00  0.00     0.015 C 
HETATM    8  C3  UNL     1      16.581  65.335  15.612  1.00  0.00     0.015 C 
ENDBRANCH   5   6
ENDBRANCH   4   5
BRANCH   4   9
HETATM    9  S1  UNL     1      12.668  65.031  17.852  1.00  0.00     0.267 S 
HETATM   10  O6  UNL     1      11.464  65.872  17.459  1.00  0.00    -0.200 OA
HETATM   11  O7  UNL     1      12.258  64.104  18.989  1.00  0.00    -0.200 OA
BRANCH   9  12
HETATM   12  C22 UNL     1      13.883  66.130  18.494  1.00  0.00     0.080 A 
HETATM   13  C23 UNL     1      14.933  65.718  19.287  1.00  0.00     0.027 A 
HETATM   14  C24 UNL     1      15.872  66.602  19.783  1.00  0.00     0.028 A 
HETATM   15  C25 UNL     1      15.793  67.948  19.499  1.00  0.00     0.046 A 
HETATM   16  N3  UNL     1      16.769  68.871  20.015  1.00  0.00    -0.102 NA
HETATM   17  C26 UNL     1      14.750  68.377  18.709  1.00  0.00     0.028 A 
HETATM   18  C27 UNL     1      13.818  67.493  18.217  1.00  0.00     0.027 A 
ENDBRANCH   9  12
ENDBRANCH   4   9
ENDBRANCH   3   4
ENDBRANCH   2   3
BRANCH   2  19
HETATM   19  O1  UNL     1      13.051  61.700  17.634  1.00  0.00    -0.385 OA
ATOM     20  H1  UNL     1      13.256  62.578  17.936  1.00  0.00     0.211 HD
ENDBRANCH   2  19
ENDBRANCH   1   2
BRANCH   1  21
HETATM   21  C8  UNL     1      10.600  61.055  14.965  1.00  0.00     0.094 C 
BRANCH  21  22
HETATM   22  C9  UNL     1       9.503  60.107  14.770  1.00  0.00    -0.053 A 
HETATM   23  C10 UNL     1       8.194  60.551  14.957  1.00  0.00     0.007 A 
HETATM   24  C11 UNL     1       7.091  59.749  14.834  1.00  0.00     0.001 A 
HETATM   25  C12 UNL     1       7.275  58.419  14.504  1.00  0.00     0.000 A 
HETATM   26  C13 UNL     1       8.546  57.935  14.311  1.00  0.00     0.001 A 
HETATM   27  C14 UNL     1       9.649  58.793  14.448  1.00  0.00     0.007 A 
ENDBRANCH  21  22
ENDBRANCH   1  21
BRANCH   1  28
HETATM   28  N2  UNL     1      10.782  60.546  17.409  1.00  0.00    -0.307 N 
HETATM   29  C15 UNL     1       9.836  61.385  18.047  1.00  0.00     0.365 C 
HETATM   30  O2  UNL     1       9.535  62.472  17.541  1.00  0.00    -0.238 OA
ATOM     31  H2  UNL     1      11.006  59.660  17.862  1.00  0.00     0.170 HD
BRANCH  29  32
HETATM   32  O3  UNL     1       9.232  61.005  19.250  1.00  0.00    -0.296 OA
BRANCH  32  33
HETATM   33  C16 UNL     1       7.884  60.563  19.290  1.00  0.00     0.166 C 
HETATM   34  C17 UNL     1       7.779  59.074  19.285  1.00  0.00     0.204 C 
HETATM   35  O4  UNL     1       6.846  58.684  20.208  1.00  0.00    -0.358 OA
HETATM   36  C18 UNL     1       6.317  59.805  20.829  1.00  0.00     0.266 C 
HETATM   37  O5  UNL     1       6.209  59.661  22.207  1.00  0.00    -0.361 OA
HETATM   38  C21 UNL     1       7.341  60.908  20.662  1.00  0.00     0.075 C 
HETATM   39  C19 UNL     1       7.456  59.809  22.765  1.00  0.00     0.171 C 
HETATM   40  C20 UNL     1       8.296  60.622  21.774  1.00  0.00     0.038 C 
ENDBRANCH  32  33
ENDBRANCH  29  32
ENDBRANCH   1  28
TORSDOF 13
ENDMDL
