MODEL 1
REMARK VINA RESULT: -9.857525224      0.000      0.000
REMARK  13 active torsions:
REMARK  status: ('A' for Active; 'I' for Inactive)
REMARK    1  A    between atoms: C2_2  and  C4_4 
REMARK    2  A    between atoms: C4_4  and  N1_5 
REMARK    3  A    between atoms: N1_5  and  C5_6 
REMARK    4  A    between atoms: N1_5  and  S1_31 
REMARK    5  A    between atoms: C5_6  and  C6_7 
REMARK    6  A    between atoms: C6_7  and  O1_8 
REMARK    7  A    between atoms: C6_7  and  C7_10 
REMARK    8  A    between atoms: C7_10  and  C8_11 
REMARK    9  A    between atoms: C7_10  and  N2_18 
REMARK   10  A    between atoms: C8_11  and  C9_12 
REMARK       I    between atoms: N2_18  and  C15_20 
REMARK   11  A    between atoms: C15_20  and  O3_22 
REMARK   12  A    between atoms: O3_22  and  C16_23 
REMARK   13  A    between atoms: S1_31  and  C22_34 
ROOT
HETATM    1  C7  UNL     1      16.665  23.115  18.564  1.00  0.00     0.029 C 
ENDROOT
BRANCH   1   2
HETATM    2  C6  UNL     1      15.221  23.193  18.136  1.00  0.00     0.203 C 
BRANCH   2   3
HETATM    3  C5  UNL     1      14.342  22.142  18.680  1.00  0.00     0.119 C 
BRANCH   3   4
HETATM    4  N1  UNL     1      14.255  20.934  17.976  1.00  0.00    -0.262 N 
BRANCH   4   5
HETATM    5  C4  UNL     1      14.352  20.879  16.585  1.00  0.00     0.085 C 
BRANCH   5   6
HETATM    6  C2  UNL     1      13.108  21.312  15.820  1.00  0.00     0.017 C 
HETATM    7  C1  UNL     1      13.272  22.624  15.107  1.00  0.00     0.015 C 
HETATM    8  C3  UNL     1      12.651  20.249  14.848  1.00  0.00     0.015 C 
ENDBRANCH   5   6
ENDBRANCH   4   5
BRANCH   4   9
HETATM    9  S1  UNL     1      14.631  19.552  18.874  1.00  0.00     0.267 S 
HETATM   10  O6  UNL     1      15.477  18.641  17.998  1.00  0.00    -0.200 OA
HETATM   11  O7  UNL     1      15.422  19.879  20.133  1.00  0.00    -0.200 OA
BRANCH   9  12
HETATM   12  C22 UNL     1      13.220  18.628  19.375  1.00  0.00     0.080 A 
HETATM   13  C23 UNL     1      12.149  18.375  18.544  1.00  0.00     0.027 A 
HETATM   14  C24 UNL     1      11.049  17.650  18.962  1.00  0.00     0.028 A 
HETATM   15  C25 UNL     1      10.982  17.145  20.243  1.00  0.00     0.046 A 
HETATM   16  N3  UNL     1       9.837  16.390  20.681  1.00  0.00    -0.102 NA
HETATM   17  C26 UNL     1      12.043  17.389  21.086  1.00  0.00     0.028 A 
HETATM   18  C27 UNL     1      13.136  18.112  20.664  1.00  0.00     0.027 A 
ENDBRANCH   9  12
ENDBRANCH   4   9
ENDBRANCH   3   4
ENDBRANCH   2   3
BRANCH   2  19
HETATM   19  O1  UNL     1      14.753  24.443  18.610  1.00  0.00    -0.385 OA
ATOM     20  H1  UNL     1      14.191  24.818  17.942  1.00  0.00     0.211 HD
ENDBRANCH   2  19
ENDBRANCH   1   2
BRANCH   1  21
HETATM   21  C8  UNL     1      16.834  23.061  20.057  1.00  0.00     0.094 C 
BRANCH  21  22
HETATM   22  C9  UNL     1      18.214  22.964  20.533  1.00  0.00    -0.053 A 
HETATM   23  C10 UNL     1      18.904  21.765  20.346  1.00  0.00     0.007 A 
HETATM   24  C11 UNL     1      20.185  21.547  20.776  1.00  0.00     0.001 A 
HETATM   25  C12 UNL     1      20.844  22.569  21.435  1.00  0.00     0.000 A 
HETATM   26  C13 UNL     1      20.206  23.767  21.643  1.00  0.00     0.001 A 
HETATM   27  C14 UNL     1      18.891  23.947  21.186  1.00  0.00     0.007 A 
ENDBRANCH  21  22
ENDBRANCH   1  21
BRANCH   1  28
HETATM   28  N2  UNL     1      17.566  23.896  17.813  1.00  0.00    -0.307 N 
HETATM   29  C15 UNL     1      18.487  23.390  16.863  1.00  0.00     0.365 C 
HETATM   30  O2  UNL     1      18.546  22.173  16.648  1.00  0.00    -0.238 OA
ATOM     31  H2  UNL     1      17.553  24.904  17.965  1.00  0.00     0.170 HD
BRANCH  29  32
HETATM   32  O3  UNL     1      19.339  24.246  16.159  1.00  0.00    -0.296 OA
BRANCH  32  33
HETATM   33  C16 UNL     1      19.222  25.656  16.269  1.00  0.00     0.166 C 
HETATM   34  C17 UNL     1      19.986  26.195  17.433  1.00  0.00     0.204 C 
HETATM   35  O4  UNL     1      20.661  27.322  17.047  1.00  0.00    -0.358 OA
HETATM   36  C18 UNL     1      20.403  27.577  15.709  1.00  0.00     0.266 C 
HETATM   37  O5  UNL     1      21.544  27.915  14.992  1.00  0.00    -0.361 OA
HETATM   38  C21 UNL     1      19.973  26.259  15.099  1.00  0.00     0.075 C 
HETATM   39  C19 UNL     1      22.265  26.772  14.745  1.00  0.00     0.171 C 
HETATM   40  C20 UNL     1      21.283  25.598  14.822  1.00  0.00     0.038 C 
ENDBRANCH  32  33
ENDBRANCH  29  32
ENDBRANCH   1  28
TORSDOF 13
ENDMDL
