MODEL 7
REMARK VINA RESULT: -9.259004988      2.774      8.606
REMARK  13 active torsions:
REMARK  status: ('A' for Active; 'I' for Inactive)
REMARK    1  A    between atoms: C2_2  and  C4_4 
REMARK    2  A    between atoms: C4_4  and  N1_5 
REMARK    3  A    between atoms: N1_5  and  C5_6 
REMARK    4  A    between atoms: N1_5  and  S1_31 
REMARK    5  A    between atoms: C5_6  and  C6_7 
REMARK    6  A    between atoms: C6_7  and  O1_8 
REMARK    7  A    between atoms: C6_7  and  C7_10 
REMARK    8  A    between atoms: C7_10  and  C8_11 
REMARK    9  A    between atoms: C7_10  and  N2_18 
REMARK   10  A    between atoms: C8_11  and  C9_12 
REMARK       I    between atoms: N2_18  and  C15_20 
REMARK   11  A    between atoms: C15_20  and  O3_22 
REMARK   12  A    between atoms: O3_22  and  C16_23 
REMARK   13  A    between atoms: S1_31  and  C22_34 
ROOT
HETATM    1  C7  UNL     1      17.212  23.413  17.147  1.00  0.00     0.029 C 
ENDROOT
BRANCH   1   2
HETATM    2  C6  UNL     1      17.530  24.651  17.945  1.00  0.00     0.203 C 
BRANCH   2   3
HETATM    3  C5  UNL     1      18.358  25.655  17.253  1.00  0.00     0.119 C 
BRANCH   3   4
HETATM    4  N1  UNL     1      19.707  25.348  17.031  1.00  0.00    -0.262 N 
BRANCH   4   5
HETATM    5  C4  UNL     1      20.262  25.333  15.750  1.00  0.00     0.085 C 
BRANCH   5   6
HETATM    6  C2  UNL     1      19.790  26.439  14.814  1.00  0.00     0.017 C 
HETATM    7  C1  UNL     1      20.902  27.320  14.320  1.00  0.00     0.015 C 
HETATM    8  C3  UNL     1      19.011  25.885  13.644  1.00  0.00     0.015 C 
ENDBRANCH   5   6
ENDBRANCH   4   5
BRANCH   4   9
HETATM    9  S1  UNL     1      20.726  25.592  18.357  1.00  0.00     0.267 S 
HETATM   10  O6  UNL     1      22.163  25.490  17.867  1.00  0.00    -0.200 OA
HETATM   11  O7  UNL     1      20.529  26.961  18.993  1.00  0.00    -0.200 OA
BRANCH   9  12
HETATM   12  C22 UNL     1      20.527  24.396  19.632  1.00  0.00     0.080 A 
HETATM   13  C23 UNL     1      20.345  24.727  20.957  1.00  0.00     0.027 A 
HETATM   14  C24 UNL     1      20.196  23.769  21.943  1.00  0.00     0.028 A 
HETATM   15  C25 UNL     1      20.222  22.427  21.630  1.00  0.00     0.046 A 
HETATM   16  N3  UNL     1      20.067  21.426  22.654  1.00  0.00    -0.102 NA
HETATM   17  C26 UNL     1      20.403  22.078  20.311  1.00  0.00     0.028 A 
HETATM   18  C27 UNL     1      20.551  23.036  19.335  1.00  0.00     0.027 A 
ENDBRANCH   9  12
ENDBRANCH   4   9
ENDBRANCH   3   4
ENDBRANCH   2   3
BRANCH   2  19
HETATM   19  O1  UNL     1      16.278  25.245  18.238  1.00  0.00    -0.385 OA
ATOM     20  H1  UNL     1      16.241  25.404  19.174  1.00  0.00     0.211 HD
ENDBRANCH   2  19
ENDBRANCH   1   2
BRANCH   1  21
HETATM   21  C8  UNL     1      16.633  23.717  15.793  1.00  0.00     0.094 C 
BRANCH  21  22
HETATM   22  C9  UNL     1      15.417  22.982  15.445  1.00  0.00    -0.053 A 
HETATM   23  C10 UNL     1      15.527  21.857  14.627  1.00  0.00     0.007 A 
HETATM   24  C11 UNL     1      14.459  21.109  14.210  1.00  0.00     0.001 A 
HETATM   25  C12 UNL     1      13.192  21.481  14.619  1.00  0.00     0.000 A 
HETATM   26  C13 UNL     1      13.033  22.582  15.425  1.00  0.00     0.001 A 
HETATM   27  C14 UNL     1      14.157  23.321  15.829  1.00  0.00     0.007 A 
ENDBRANCH  21  22
ENDBRANCH   1  21
BRANCH   1  28
HETATM   28  N2  UNL     1      16.674  22.336  17.881  1.00  0.00    -0.307 N 
HETATM   29  C15 UNL     1      17.077  20.984  17.755  1.00  0.00     0.365 C 
HETATM   30  O2  UNL     1      17.960  20.675  16.947  1.00  0.00    -0.238 OA
ATOM     31  H2  UNL     1      15.939  22.548  18.554  1.00  0.00     0.170 HD
BRANCH  29  32
HETATM   32  O3  UNL     1      16.488  19.983  18.535  1.00  0.00    -0.296 OA
BRANCH  32  33
HETATM   33  C16 UNL     1      15.324  20.236  19.304  1.00  0.00     0.166 C 
HETATM   34  C17 UNL     1      14.185  20.711  18.464  1.00  0.00     0.204 C 
HETATM   35  O4  UNL     1      13.040  20.068  18.849  1.00  0.00    -0.358 OA
HETATM   36  C18 UNL     1      13.329  19.198  19.888  1.00  0.00     0.266 C 
HETATM   37  O5  UNL     1      12.730  17.953  19.736  1.00  0.00    -0.361 OA
HETATM   38  C21 UNL     1      14.811  18.897  19.793  1.00  0.00     0.075 C 
HETATM   39  C19 UNL     1      13.434  17.237  18.799  1.00  0.00     0.171 C 
HETATM   40  C20 UNL     1      14.848  17.825  18.755  1.00  0.00     0.038 C 
ENDBRANCH  32  33
ENDBRANCH  29  32
ENDBRANCH   1  28
TORSDOF 13
ENDMDL
