MODEL 2
REMARK VINA RESULT: -9.705206371      0.971      1.520
REMARK  13 active torsions:
REMARK  status: ('A' for Active; 'I' for Inactive)
REMARK    1  A    between atoms: C2_2  and  C4_4 
REMARK    2  A    between atoms: C4_4  and  N1_5 
REMARK    3  A    between atoms: N1_5  and  C5_6 
REMARK    4  A    between atoms: N1_5  and  S1_31 
REMARK    5  A    between atoms: C5_6  and  C6_7 
REMARK    6  A    between atoms: C6_7  and  O1_8 
REMARK    7  A    between atoms: C6_7  and  C7_10 
REMARK    8  A    between atoms: C7_10  and  C8_11 
REMARK    9  A    between atoms: C7_10  and  N2_18 
REMARK   10  A    between atoms: C8_11  and  C9_12 
REMARK       I    between atoms: N2_18  and  C15_20 
REMARK   11  A    between atoms: C15_20  and  O3_22 
REMARK   12  A    between atoms: O3_22  and  C16_23 
REMARK   13  A    between atoms: S1_31  and  C22_34 
ROOT
HETATM    1  C7  UNL     1      17.156  23.675  18.571  1.00  0.00     0.029 C 
ENDROOT
BRANCH   1   2
HETATM    2  C6  UNL     1      15.702  23.630  18.174  1.00  0.00     0.203 C 
BRANCH   2   3
HETATM    3  C5  UNL     1      14.937  22.485  18.701  1.00  0.00     0.119 C 
BRANCH   3   4
HETATM    4  N1  UNL     1      14.805  21.355  17.883  1.00  0.00    -0.262 N 
BRANCH   4   5
HETATM    5  C4  UNL     1      14.855  21.439  16.491  1.00  0.00     0.085 C 
BRANCH   5   6
HETATM    6  C2  UNL     1      13.511  21.617  15.794  1.00  0.00     0.017 C 
HETATM    7  C1  UNL     1      13.384  22.925  15.066  1.00  0.00     0.015 C 
HETATM    8  C3  UNL     1      13.214  20.472  14.854  1.00  0.00     0.015 C 
ENDBRANCH   5   6
ENDBRANCH   4   5
BRANCH   4   9
HETATM    9  S1  UNL     1      15.187  19.885  18.624  1.00  0.00     0.267 S 
HETATM   10  O6  UNL     1      15.809  18.979  17.572  1.00  0.00    -0.200 OA
HETATM   11  O7  UNL     1      16.182  20.053  19.764  1.00  0.00    -0.200 OA
BRANCH   9  12
HETATM   12  C22 UNL     1      13.790  19.038  19.277  1.00  0.00     0.080 A 
HETATM   13  C23 UNL     1      13.758  18.498  20.545  1.00  0.00     0.027 A 
HETATM   14  C24 UNL     1      12.651  17.832  21.035  1.00  0.00     0.028 A 
HETATM   15  C25 UNL     1      11.519  17.682  20.262  1.00  0.00     0.046 A 
HETATM   16  N3  UNL     1      10.364  16.989  20.769  1.00  0.00    -0.102 NA
HETATM   17  C26 UNL     1      11.534  18.215  18.993  1.00  0.00     0.028 A 
HETATM   18  C27 UNL     1      12.640  18.877  18.511  1.00  0.00     0.027 A 
ENDBRANCH   9  12
ENDBRANCH   4   9
ENDBRANCH   3   4
ENDBRANCH   2   3
BRANCH   2  19
HETATM   19  O1  UNL     1      15.130  24.815  18.697  1.00  0.00    -0.385 OA
ATOM     20  H1  UNL     1      15.794  25.494  18.677  1.00  0.00     0.211 HD
ENDBRANCH   2  19
ENDBRANCH   1   2
BRANCH   1  21
HETATM   21  C8  UNL     1      17.406  23.131  19.951  1.00  0.00     0.094 C 
BRANCH  21  22
HETATM   22  C9  UNL     1      18.785  23.235  20.430  1.00  0.00    -0.053 A 
HETATM   23  C10 UNL     1      19.724  22.311  19.971  1.00  0.00     0.007 A 
HETATM   24  C11 UNL     1      21.033  22.289  20.372  1.00  0.00     0.001 A 
HETATM   25  C12 UNL     1      21.459  23.235  21.286  1.00  0.00     0.000 A 
HETATM   26  C13 UNL     1      20.571  24.165  21.767  1.00  0.00     0.001 A 
HETATM   27  C14 UNL     1      19.237  24.150  21.329  1.00  0.00     0.007 A 
ENDBRANCH  21  22
ENDBRANCH   1  21
BRANCH   1  28
HETATM   28  N2  UNL     1      17.864  24.822  18.162  1.00  0.00    -0.307 N 
HETATM   29  C15 UNL     1      18.600  24.938  16.957  1.00  0.00     0.365 C 
HETATM   30  O2  UNL     1      18.660  23.982  16.176  1.00  0.00    -0.238 OA
ATOM     31  H2  UNL     1      17.845  25.632  18.782  1.00  0.00     0.170 HD
BRANCH  29  32
HETATM   32  O3  UNL     1      19.266  26.124  16.633  1.00  0.00    -0.296 OA
BRANCH  32  33
HETATM   33  C16 UNL     1      20.057  26.228  15.460  1.00  0.00     0.166 C 
HETATM   34  C17 UNL     1      19.977  27.586  14.845  1.00  0.00     0.204 C 
HETATM   35  O4  UNL     1      21.232  27.990  14.476  1.00  0.00    -0.358 OA
HETATM   36  C18 UNL     1      22.146  27.000  14.797  1.00  0.00     0.266 C 
HETATM   37  O5  UNL     1      23.298  27.498  15.392  1.00  0.00    -0.361 OA
HETATM   38  C21 UNL     1      21.508  26.169  15.891  1.00  0.00     0.075 C 
HETATM   39  C19 UNL     1      23.019  27.813  16.700  1.00  0.00     0.171 C 
HETATM   40  C20 UNL     1      21.805  26.975  17.113  1.00  0.00     0.038 C 
ENDBRANCH  32  33
ENDBRANCH  29  32
ENDBRANCH   1  28
TORSDOF 13
ENDMDL
