MODEL 6
REMARK VINA RESULT: -9.349221013      2.591      8.687
REMARK  13 active torsions:
REMARK  status: ('A' for Active; 'I' for Inactive)
REMARK    1  A    between atoms: C2_2  and  C4_4 
REMARK    2  A    between atoms: C4_4  and  N1_5 
REMARK    3  A    between atoms: N1_5  and  C5_6 
REMARK    4  A    between atoms: N1_5  and  S1_31 
REMARK    5  A    between atoms: C5_6  and  C6_7 
REMARK    6  A    between atoms: C6_7  and  O1_8 
REMARK    7  A    between atoms: C6_7  and  C7_10 
REMARK    8  A    between atoms: C7_10  and  C8_11 
REMARK    9  A    between atoms: C7_10  and  N2_18 
REMARK   10  A    between atoms: C8_11  and  C9_12 
REMARK       I    between atoms: N2_18  and  C15_20 
REMARK   11  A    between atoms: C15_20  and  O3_22 
REMARK   12  A    between atoms: O3_22  and  C16_23 
REMARK   13  A    between atoms: S1_31  and  C22_34 
ROOT
HETATM    1  C7  UNL     1      16.337  23.272  17.566  1.00  0.00     0.029 C 
ENDROOT
BRANCH   1   2
HETATM    2  C6  UNL     1      16.951  24.465  18.254  1.00  0.00     0.203 C 
BRANCH   2   3
HETATM    3  C5  UNL     1      17.690  25.390  17.376  1.00  0.00     0.119 C 
BRANCH   3   4
HETATM    4  N1  UNL     1      18.975  25.014  16.965  1.00  0.00    -0.262 N 
BRANCH   4   5
HETATM    5  C4  UNL     1      19.327  24.933  15.617  1.00  0.00     0.085 C 
BRANCH   5   6
HETATM    6  C2  UNL     1      19.303  26.249  14.849  1.00  0.00     0.017 C 
HETATM    7  C1  UNL     1      20.651  26.662  14.328  1.00  0.00     0.015 C 
HETATM    8  C3  UNL     1      18.300  26.219  13.720  1.00  0.00     0.015 C 
ENDBRANCH   5   6
ENDBRANCH   4   5
BRANCH   4   9
HETATM    9  S1  UNL     1      20.193  25.253  18.112  1.00  0.00     0.267 S 
HETATM   10  O6  UNL     1      21.534  25.079  17.413  1.00  0.00    -0.200 OA
HETATM   11  O7  UNL     1      20.146  26.647  18.723  1.00  0.00    -0.200 OA
BRANCH   9  12
HETATM   12  C22 UNL     1      20.148  24.103  19.442  1.00  0.00     0.080 A 
HETATM   13  C23 UNL     1      20.046  22.740  19.260  1.00  0.00     0.027 A 
HETATM   14  C24 UNL     1      20.007  21.855  20.321  1.00  0.00     0.028 A 
HETATM   15  C25 UNL     1      20.071  22.310  21.621  1.00  0.00     0.046 A 
HETATM   16  N3  UNL     1      20.030  21.392  22.729  1.00  0.00    -0.102 NA
HETATM   17  C26 UNL     1      20.172  23.669  21.821  1.00  0.00     0.028 A 
HETATM   18  C27 UNL     1      20.210  24.545  20.760  1.00  0.00     0.027 A 
ENDBRANCH   9  12
ENDBRANCH   4   9
ENDBRANCH   3   4
ENDBRANCH   2   3
BRANCH   2  19
HETATM   19  O1  UNL     1      15.865  25.175  18.822  1.00  0.00    -0.385 OA
ATOM     20  H1  UNL     1      15.413  24.590  19.419  1.00  0.00     0.211 HD
ENDBRANCH   2  19
ENDBRANCH   1   2
BRANCH   1  21
HETATM   21  C8  UNL     1      15.994  23.534  16.126  1.00  0.00     0.094 C 
BRANCH  21  22
HETATM   22  C9  UNL     1      14.918  22.712  15.573  1.00  0.00    -0.053 A 
HETATM   23  C10 UNL     1      15.255  21.555  14.869  1.00  0.00     0.007 A 
HETATM   24  C11 UNL     1      14.338  20.726  14.281  1.00  0.00     0.001 A 
HETATM   25  C12 UNL     1      12.996  21.044  14.385  1.00  0.00     0.000 A 
HETATM   26  C13 UNL     1      12.616  22.173  15.068  1.00  0.00     0.001 A 
HETATM   27  C14 UNL     1      13.590  22.996  15.655  1.00  0.00     0.007 A 
ENDBRANCH  21  22
ENDBRANCH   1  21
BRANCH   1  28
HETATM   28  N2  UNL     1      15.438  22.516  18.344  1.00  0.00    -0.307 N 
HETATM   29  C15 UNL     1      15.771  21.343  19.065  1.00  0.00     0.365 C 
HETATM   30  O2  UNL     1      16.927  20.906  19.033  1.00  0.00    -0.238 OA
ATOM     31  H2  UNL     1      14.472  22.839  18.393  1.00  0.00     0.170 HD
BRANCH  29  32
HETATM   32  O3  UNL     1      14.809  20.663  19.818  1.00  0.00    -0.296 OA
BRANCH  32  33
HETATM   33  C16 UNL     1      14.687  19.251  19.757  1.00  0.00     0.166 C 
HETATM   34  C17 UNL     1      13.744  18.721  20.786  1.00  0.00     0.204 C 
HETATM   35  O4  UNL     1      12.934  17.777  20.214  1.00  0.00    -0.358 OA
HETATM   36  C18 UNL     1      13.269  17.634  18.877  1.00  0.00     0.266 C 
HETATM   37  O5  UNL     1      12.158  17.579  18.044  1.00  0.00    -0.361 OA
HETATM   38  C21 UNL     1      13.959  18.919  18.470  1.00  0.00     0.075 C 
HETATM   39  C19 UNL     1      11.656  18.848  17.892  1.00  0.00     0.171 C 
HETATM   40  C20 UNL     1      12.803  19.821  18.186  1.00  0.00     0.038 C 
ENDBRANCH  32  33
ENDBRANCH  29  32
ENDBRANCH   1  28
TORSDOF 13
ENDMDL
