MODEL 3
REMARK VINA RESULT: -9.637345759      1.527      1.764
REMARK  13 active torsions:
REMARK  status: ('A' for Active; 'I' for Inactive)
REMARK    1  A    between atoms: C2_2  and  C4_4 
REMARK    2  A    between atoms: C4_4  and  N1_5 
REMARK    3  A    between atoms: N1_5  and  C5_6 
REMARK    4  A    between atoms: N1_5  and  S1_31 
REMARK    5  A    between atoms: C5_6  and  C6_7 
REMARK    6  A    between atoms: C6_7  and  O1_8 
REMARK    7  A    between atoms: C6_7  and  C7_10 
REMARK    8  A    between atoms: C7_10  and  C8_11 
REMARK    9  A    between atoms: C7_10  and  N2_18 
REMARK   10  A    between atoms: C8_11  and  C9_12 
REMARK       I    between atoms: N2_18  and  C15_20 
REMARK   11  A    between atoms: C15_20  and  O3_22 
REMARK   12  A    between atoms: O3_22  and  C16_23 
REMARK   13  A    between atoms: S1_31  and  C22_34 
ROOT
HETATM    1  C7  UNL     1      17.520  24.149  18.551  1.00  0.00     0.029 C 
ENDROOT
BRANCH   1   2
HETATM    2  C6  UNL     1      16.064  24.196  18.161  1.00  0.00     0.203 C 
BRANCH   2   3
HETATM    3  C5  UNL     1      15.270  23.012  18.537  1.00  0.00     0.119 C 
BRANCH   3   4
HETATM    4  N1  UNL     1      15.312  21.900  17.685  1.00  0.00    -0.262 N 
BRANCH   4   5
HETATM    5  C4  UNL     1      15.550  22.025  16.315  1.00  0.00     0.085 C 
BRANCH   5   6
HETATM    6  C2  UNL     1      14.342  21.806  15.414  1.00  0.00     0.017 C 
HETATM    7  C1  UNL     1      13.500  23.037  15.233  1.00  0.00     0.015 C 
HETATM    8  C3  UNL     1      14.743  21.252  14.067  1.00  0.00     0.015 C 
ENDBRANCH   5   6
ENDBRANCH   4   5
BRANCH   4   9
HETATM    9  S1  UNL     1      15.661  20.430  18.442  1.00  0.00     0.267 S 
HETATM   10  O6  UNL     1      16.278  19.504  17.403  1.00  0.00    -0.200 OA
HETATM   11  O7  UNL     1      16.648  20.591  19.590  1.00  0.00    -0.200 OA
BRANCH   9  12
HETATM   12  C22 UNL     1      14.244  19.612  19.088  1.00  0.00     0.080 A 
HETATM   13  C23 UNL     1      13.019  19.609  18.455  1.00  0.00     0.027 A 
HETATM   14  C24 UNL     1      11.917  18.964  18.985  1.00  0.00     0.028 A 
HETATM   15  C25 UNL     1      12.005  18.289  20.184  1.00  0.00     0.046 A 
HETATM   16  N3  UNL     1      10.860  17.616  20.739  1.00  0.00    -0.102 NA
HETATM   17  C26 UNL     1      13.221  18.282  20.830  1.00  0.00     0.028 A 
HETATM   18  C27 UNL     1      14.314  18.926  20.297  1.00  0.00     0.027 A 
ENDBRANCH   9  12
ENDBRANCH   4   9
ENDBRANCH   3   4
ENDBRANCH   2   3
BRANCH   2  19
HETATM   19  O1  UNL     1      15.525  25.316  18.839  1.00  0.00    -0.385 OA
ATOM     20  H1  UNL     1      16.239  25.764  19.278  1.00  0.00     0.211 HD
ENDBRANCH   2  19
ENDBRANCH   1   2
BRANCH   1  21
HETATM   21  C8  UNL     1      17.733  23.734  19.980  1.00  0.00     0.094 C 
BRANCH  21  22
HETATM   22  C9  UNL     1      19.128  23.647  20.412  1.00  0.00    -0.053 A 
HETATM   23  C10 UNL     1      19.900  22.572  19.969  1.00  0.00     0.007 A 
HETATM   24  C11 UNL     1      21.204  22.369  20.331  1.00  0.00     0.001 A 
HETATM   25  C12 UNL     1      21.803  23.277  21.185  1.00  0.00     0.000 A 
HETATM   26  C13 UNL     1      21.083  24.351  21.647  1.00  0.00     0.001 A 
HETATM   27  C14 UNL     1      19.747  24.521  21.251  1.00  0.00     0.007 A 
ENDBRANCH  21  22
ENDBRANCH   1  21
BRANCH   1  28
HETATM   28  N2  UNL     1      18.325  25.178  18.023  1.00  0.00    -0.307 N 
HETATM   29  C15 UNL     1      19.309  25.008  17.018  1.00  0.00     0.365 C 
HETATM   30  O2  UNL     1      19.516  23.886  16.542  1.00  0.00    -0.238 OA
ATOM     31  H2  UNL     1      18.189  26.119  18.394  1.00  0.00     0.170 HD
BRANCH  29  32
HETATM   32  O3  UNL     1      20.056  26.094  16.551  1.00  0.00    -0.296 OA
BRANCH  32  33
HETATM   33  C16 UNL     1      20.924  26.816  17.409  1.00  0.00     0.166 C 
HETATM   34  C17 UNL     1      21.753  25.913  18.261  1.00  0.00     0.204 C 
HETATM   35  O4  UNL     1      23.044  26.371  18.281  1.00  0.00    -0.358 OA
HETATM   36  C18 UNL     1      23.137  27.516  17.506  1.00  0.00     0.266 C 
HETATM   37  O5  UNL     1      24.254  27.521  16.680  1.00  0.00    -0.361 OA
HETATM   38  C21 UNL     1      21.974  27.471  16.536  1.00  0.00     0.075 C 
HETATM   39  C19 UNL     1      24.018  26.690  15.612  1.00  0.00     0.171 C 
HETATM   40  C20 UNL     1      22.498  26.580  15.458  1.00  0.00     0.038 C 
ENDBRANCH  32  33
ENDBRANCH  29  32
ENDBRANCH   1  28
TORSDOF 13
ENDMDL
