MODEL 5
REMARK VINA RESULT: -9.380398752      2.250      9.876
REMARK  13 active torsions:
REMARK  status: ('A' for Active; 'I' for Inactive)
REMARK    1  A    between atoms: C2_2  and  C4_4 
REMARK    2  A    between atoms: C4_4  and  N1_5 
REMARK    3  A    between atoms: N1_5  and  C5_6 
REMARK    4  A    between atoms: N1_5  and  S1_31 
REMARK    5  A    between atoms: C5_6  and  C6_7 
REMARK    6  A    between atoms: C6_7  and  O1_8 
REMARK    7  A    between atoms: C6_7  and  C7_10 
REMARK    8  A    between atoms: C7_10  and  C8_11 
REMARK    9  A    between atoms: C7_10  and  N2_18 
REMARK   10  A    between atoms: C8_11  and  C9_12 
REMARK       I    between atoms: N2_18  and  C15_20 
REMARK   11  A    between atoms: C15_20  and  O3_22 
REMARK   12  A    between atoms: O3_22  and  C16_23 
REMARK   13  A    between atoms: S1_31  and  C22_34 
ROOT
HETATM    1  C7  UNL     1      14.581  22.267  17.537  1.00  0.00     0.029 C 
ENDROOT
BRANCH   1   2
HETATM    2  C6  UNL     1      14.892  23.335  18.555  1.00  0.00     0.203 C 
BRANCH   2   3
HETATM    3  C5  UNL     1      16.100  24.135  18.283  1.00  0.00     0.119 C 
BRANCH   3   4
HETATM    4  N1  UNL     1      17.345  23.509  18.433  1.00  0.00    -0.262 N 
BRANCH   4   5
HETATM    5  C4  UNL     1      17.617  22.644  19.494  1.00  0.00     0.085 C 
BRANCH   5   6
HETATM    6  C2  UNL     1      18.932  22.888  20.223  1.00  0.00     0.017 C 
HETATM    7  C1  UNL     1      18.880  24.045  21.179  1.00  0.00     0.015 C 
HETATM    8  C3  UNL     1      19.412  21.647  20.940  1.00  0.00     0.015 C 
ENDBRANCH   5   6
ENDBRANCH   4   5
BRANCH   4   9
HETATM    9  S1  UNL     1      18.250  23.366  17.013  1.00  0.00     0.267 S 
HETATM   10  O6  UNL     1      19.314  22.302  17.242  1.00  0.00    -0.200 OA
HETATM   11  O7  UNL     1      17.397  22.946  15.824  1.00  0.00    -0.200 OA
BRANCH   9  12
HETATM   12  C22 UNL     1      19.086  24.845  16.554  1.00  0.00     0.080 A 
HETATM   13  C23 UNL     1      19.044  25.373  15.281  1.00  0.00     0.027 A 
HETATM   14  C24 UNL     1      19.712  26.534  14.942  1.00  0.00     0.028 A 
HETATM   15  C25 UNL     1      20.457  27.217  15.879  1.00  0.00     0.046 A 
HETATM   16  N3  UNL     1      21.155  28.427  15.530  1.00  0.00    -0.102 NA
HETATM   17  C26 UNL     1      20.511  26.704  17.156  1.00  0.00     0.028 A 
HETATM   18  C27 UNL     1      19.842  25.547  17.487  1.00  0.00     0.027 A 
ENDBRANCH   9  12
ENDBRANCH   4   9
ENDBRANCH   3   4
ENDBRANCH   2   3
BRANCH   2  19
HETATM   19  O1  UNL     1      13.777  24.209  18.539  1.00  0.00    -0.385 OA
ATOM     20  H1  UNL     1      13.641  24.525  19.425  1.00  0.00     0.211 HD
ENDBRANCH   2  19
ENDBRANCH   1   2
BRANCH   1  21
HETATM   21  C8  UNL     1      14.028  22.820  16.253  1.00  0.00     0.094 C 
BRANCH  21  22
HETATM   22  C9  UNL     1      13.586  21.826  15.275  1.00  0.00    -0.053 A 
HETATM   23  C10 UNL     1      14.531  21.273  14.410  1.00  0.00     0.007 A 
HETATM   24  C11 UNL     1      14.232  20.360  13.435  1.00  0.00     0.001 A 
HETATM   25  C12 UNL     1      12.917  19.953  13.292  1.00  0.00     0.000 A 
HETATM   26  C13 UNL     1      11.952  20.470  14.121  1.00  0.00     0.001 A 
HETATM   27  C14 UNL     1      12.304  21.405  15.107  1.00  0.00     0.007 A 
ENDBRANCH  21  22
ENDBRANCH   1  21
BRANCH   1  28
HETATM   28  N2  UNL     1      14.026  21.079  18.052  1.00  0.00    -0.307 N 
HETATM   29  C15 UNL     1      14.736  19.871  18.260  1.00  0.00     0.365 C 
HETATM   30  O2  UNL     1      15.937  19.804  17.975  1.00  0.00    -0.238 OA
ATOM     31  H2  UNL     1      13.035  21.089  18.294  1.00  0.00     0.170 HD
BRANCH  29  32
HETATM   32  O3  UNL     1      14.098  18.742  18.784  1.00  0.00    -0.296 OA
BRANCH  32  33
HETATM   33  C16 UNL     1      12.711  18.519  18.585  1.00  0.00     0.166 C 
HETATM   34  C17 UNL     1      12.426  17.134  18.107  1.00  0.00     0.204 C 
HETATM   35  O4  UNL     1      11.350  16.633  18.790  1.00  0.00    -0.358 OA
HETATM   36  C18 UNL     1      10.893  17.584  19.689  1.00  0.00     0.266 C 
HETATM   37  O5  UNL     1      10.608  17.052  20.940  1.00  0.00    -0.361 OA
HETATM   38  C21 UNL     1      12.057  18.516  19.951  1.00  0.00     0.075 C 
HETATM   39  C19 UNL     1      11.789  16.835  21.608  1.00  0.00     0.171 C 
HETATM   40  C20 UNL     1      12.833  17.769  20.986  1.00  0.00     0.038 C 
ENDBRANCH  32  33
ENDBRANCH  29  32
ENDBRANCH   1  28
TORSDOF 13
ENDMDL
