MODEL 5
REMARK VINA RESULT: -7.758214664      1.214      1.898
REMARK  10 active torsions:
REMARK  status: ('A' for Active; 'I' for Inactive)
REMARK    1  A    between atoms: C2_2  and  C3_3 
REMARK    2  A    between atoms: C3_3  and  C4_4 
REMARK    3  A    between atoms: C4_4  and  C5_5 
REMARK    4  A    between atoms: C5_5  and  N1_6 
REMARK    5  A    between atoms: N1_6  and  C7_8 
REMARK    6  A    between atoms: C7_8  and  C8_9 
REMARK    7  A    between atoms: C8_9  and  C9_10 
REMARK    8  A    between atoms: C9_10  and  O1_11 
REMARK    9  A    between atoms: C9_10  and  P1_13 
REMARK   10  A    between atoms: C9_10  and  P2_17 
ROOT
HETATM    1  C9  UNL     1      14.752  78.173  26.168  1.00  0.00     0.286 C 
ENDROOT
BRANCH   1   2
HETATM    2  C8  UNL     1      14.768  79.714  26.116  1.00  0.00     0.098 C 
BRANCH   2   3
HETATM    3  C7  UNL     1      15.521  80.260  24.972  1.00  0.00     0.276 C 
BRANCH   3   4
HETATM    4  N1  UNL     1      15.382  81.737  25.033  1.00  0.00     0.084 N 
HETATM    5  C6  UNL     1      15.764  82.092  26.374  1.00  0.00     0.309 C 
BRANCH   4   6
HETATM    6  C5  UNL     1      16.177  82.260  24.005  1.00  0.00     0.271 C 
BRANCH   6   7
HETATM    7  C4  UNL     1      16.787  83.585  24.081  1.00  0.00     0.030 C 
BRANCH   7   8
HETATM    8  C3  UNL     1      17.988  83.894  23.277  1.00  0.00     0.001 C 
BRANCH   8   9
HETATM    9  C2  UNL     1      18.321  85.315  23.017  1.00  0.00    -0.005 C 
HETATM   10  C1  UNL     1      17.542  86.131  24.075  1.00  0.00     0.005 C 
ENDBRANCH   8   9
ENDBRANCH   7   8
ENDBRANCH   6   7
ENDBRANCH   4   6
ENDBRANCH   3   4
ENDBRANCH   2   3
ENDBRANCH   1   2
BRANCH   1  11
HETATM   11  O1  UNL     1      13.782  77.944  27.174  1.00  0.00    -0.365 OA
ATOM     12  H1  UNL     1      13.123  77.463  26.688  1.00  0.00     0.212 HD
ENDBRANCH   1  11
BRANCH   1  13
HETATM   13  P1  UNL     1      14.282  77.625  24.548  1.00  0.00     0.310 P 
HETATM   14  O2  UNL     1      12.762  78.190  23.986  1.00  0.00    -0.637 OA
HETATM   15  O3  UNL     1      13.575  76.333  24.897  1.00  0.00    -0.637 OA
HETATM   16  O4  UNL     1      15.355  76.995  23.515  1.00  0.00    -0.637 OA
ENDBRANCH   1  13
BRANCH   1  17
HETATM   17  P2  UNL     1      16.278  77.430  26.576  1.00  0.00     0.310 P 
HETATM   18  O5  UNL     1      16.568  75.875  26.005  1.00  0.00    -0.637 OA
HETATM   19  O6  UNL     1      17.497  78.341  27.235  1.00  0.00    -0.637 OA
HETATM   20  O7  UNL     1      15.997  76.817  27.950  1.00  0.00    -0.637 OA
ENDBRANCH   1  17
TORSDOF 10
ENDMDL
