MODEL 13
REMARK VINA RESULT: -7.472034194      1.084      3.050
REMARK  10 active torsions:
REMARK  status: ('A' for Active; 'I' for Inactive)
REMARK    1  A    between atoms: C2_2  and  C3_3 
REMARK    2  A    between atoms: C3_3  and  C4_4 
REMARK    3  A    between atoms: C4_4  and  C5_5 
REMARK    4  A    between atoms: C5_5  and  N1_6 
REMARK    5  A    between atoms: N1_6  and  C7_8 
REMARK    6  A    between atoms: C7_8  and  C8_9 
REMARK    7  A    between atoms: C8_9  and  C9_10 
REMARK    8  A    between atoms: C9_10  and  O1_11 
REMARK    9  A    between atoms: C9_10  and  P1_13 
REMARK   10  A    between atoms: C9_10  and  P2_17 
ROOT
HETATM    1  C9  UNL     1      15.803  77.422  25.923  1.00  0.00     0.286 C 
ENDROOT
BRANCH   1   2
HETATM    2  C8  UNL     1      14.663  78.131  26.683  1.00  0.00     0.098 C 
BRANCH   2   3
HETATM    3  C7  UNL     1      14.760  79.602  26.658  1.00  0.00     0.276 C 
BRANCH   3   4
HETATM    4  N1  UNL     1      13.833  80.073  25.598  1.00  0.00     0.084 N 
HETATM    5  C6  UNL     1      12.518  79.926  26.161  1.00  0.00     0.309 C 
BRANCH   4   6
HETATM    6  C5  UNL     1      14.223  81.379  25.274  1.00  0.00     0.271 C 
BRANCH   6   7
HETATM    7  C4  UNL     1      14.973  81.696  24.060  1.00  0.00     0.030 C 
BRANCH   7   8
HETATM    8  C3  UNL     1      16.337  82.255  24.157  1.00  0.00     0.001 C 
BRANCH   8   9
HETATM    9  C2  UNL     1      16.494  83.722  24.311  1.00  0.00    -0.005 C 
HETATM   10  C1  UNL     1      17.694  84.112  23.416  1.00  0.00     0.005 C 
ENDBRANCH   8   9
ENDBRANCH   7   8
ENDBRANCH   6   7
ENDBRANCH   4   6
ENDBRANCH   3   4
ENDBRANCH   2   3
ENDBRANCH   1   2
BRANCH   1  11
HETATM   11  O1  UNL     1      16.458  78.525  25.324  1.00  0.00    -0.365 OA
ATOM     12  H1  UNL     1      17.246  78.580  25.851  1.00  0.00     0.212 HD
ENDBRANCH   1  11
BRANCH   1  13
HETATM   13  P1  UNL     1      16.761  76.567  27.146  1.00  0.00     0.310 P 
HETATM   14  O2  UNL     1      16.131  76.608  28.742  1.00  0.00    -0.637 OA
HETATM   15  O3  UNL     1      17.695  77.676  27.579  1.00  0.00    -0.637 OA
HETATM   16  O4  UNL     1      17.899  75.491  26.742  1.00  0.00    -0.637 OA
ENDBRANCH   1  13
BRANCH   1  17
HETATM   17  P2  UNL     1      15.285  76.263  24.725  1.00  0.00     0.310 P 
HETATM   18  O5  UNL     1      16.475  75.420  23.887  1.00  0.00    -0.637 OA
HETATM   19  O6  UNL     1      13.693  75.805  24.643  1.00  0.00    -0.637 OA
HETATM   20  O7  UNL     1      15.096  77.130  23.477  1.00  0.00    -0.637 OA
ENDBRANCH   1  17
TORSDOF 10
ENDMDL
