MODEL 4
REMARK VINA RESULT: -7.808738638      0.529      1.198
REMARK  10 active torsions:
REMARK  status: ('A' for Active; 'I' for Inactive)
REMARK    1  A    between atoms: C2_2  and  C3_3 
REMARK    2  A    between atoms: C3_3  and  C4_4 
REMARK    3  A    between atoms: C4_4  and  C5_5 
REMARK    4  A    between atoms: C5_5  and  N1_6 
REMARK    5  A    between atoms: N1_6  and  C7_8 
REMARK    6  A    between atoms: C7_8  and  C8_9 
REMARK    7  A    between atoms: C8_9  and  C9_10 
REMARK    8  A    between atoms: C9_10  and  O1_11 
REMARK    9  A    between atoms: C9_10  and  P1_13 
REMARK   10  A    between atoms: C9_10  and  P2_17 
ROOT
HETATM    1  C9  UNL     1      15.042  77.270  25.675  1.00  0.00     0.286 C 
ENDROOT
BRANCH   1   2
HETATM    2  C8  UNL     1      14.807  78.582  24.898  1.00  0.00     0.098 C 
BRANCH   2   3
HETATM    3  C7  UNL     1      13.519  79.230  25.207  1.00  0.00     0.276 C 
BRANCH   3   4
HETATM    4  N1  UNL     1      13.808  80.669  25.432  1.00  0.00     0.084 N 
HETATM    5  C6  UNL     1      14.388  80.731  26.747  1.00  0.00     0.309 C 
BRANCH   4   6
HETATM    6  C5  UNL     1      14.627  81.086  24.376  1.00  0.00     0.271 C 
BRANCH   6   7
HETATM    7  C4  UNL     1      15.090  82.465  24.237  1.00  0.00     0.030 C 
BRANCH   7   8
HETATM    8  C3  UNL     1      16.537  82.759  24.190  1.00  0.00     0.001 C 
BRANCH   8   9
HETATM    9  C2  UNL     1      16.974  84.176  24.179  1.00  0.00    -0.005 C 
HETATM   10  C1  UNL     1      18.109  84.257  23.131  1.00  0.00     0.005 C 
ENDBRANCH   8   9
ENDBRANCH   7   8
ENDBRANCH   6   7
ENDBRANCH   4   6
ENDBRANCH   3   4
ENDBRANCH   2   3
ENDBRANCH   1   2
BRANCH   1  11
HETATM   11  O1  UNL     1      13.898  77.239  26.510  1.00  0.00    -0.365 OA
ATOM     12  H1  UNL     1      13.957  76.362  26.869  1.00  0.00     0.212 HD
ENDBRANCH   1  11
BRANCH   1  13
HETATM   13  P1  UNL     1      15.109  75.978  24.462  1.00  0.00     0.310 P 
HETATM   14  O2  UNL     1      13.608  75.554  23.747  1.00  0.00    -0.637 OA
HETATM   15  O3  UNL     1      14.929  74.766  25.351  1.00  0.00    -0.637 OA
HETATM   16  O4  UNL     1      16.501  75.520  23.777  1.00  0.00    -0.637 OA
ENDBRANCH   1  13
BRANCH   1  17
HETATM   17  P2  UNL     1      16.514  77.219  26.611  1.00  0.00     0.310 P 
HETATM   18  O5  UNL     1      17.361  75.766  26.657  1.00  0.00    -0.637 OA
HETATM   19  O6  UNL     1      17.193  78.623  27.173  1.00  0.00    -0.637 OA
HETATM   20  O7  UNL     1      16.005  76.905  28.021  1.00  0.00    -0.637 OA
ENDBRANCH   1  17
TORSDOF 10
ENDMDL
