MODEL 16
REMARK VINA RESULT: -7.347384089      1.197      3.020
REMARK  10 active torsions:
REMARK  status: ('A' for Active; 'I' for Inactive)
REMARK    1  A    between atoms: C2_2  and  C3_3 
REMARK    2  A    between atoms: C3_3  and  C4_4 
REMARK    3  A    between atoms: C4_4  and  C5_5 
REMARK    4  A    between atoms: C5_5  and  N1_6 
REMARK    5  A    between atoms: N1_6  and  C7_8 
REMARK    6  A    between atoms: C7_8  and  C8_9 
REMARK    7  A    between atoms: C8_9  and  C9_10 
REMARK    8  A    between atoms: C9_10  and  O1_11 
REMARK    9  A    between atoms: C9_10  and  P1_13 
REMARK   10  A    between atoms: C9_10  and  P2_17 
ROOT
HETATM    1  C9  UNL     1      15.219  77.616  24.710  1.00  0.00     0.286 C 
ENDROOT
BRANCH   1   2
HETATM    2  C8  UNL     1      15.249  79.058  24.164  1.00  0.00     0.098 C 
BRANCH   2   3
HETATM    3  C7  UNL     1      15.381  80.085  25.213  1.00  0.00     0.276 C 
BRANCH   3   4
HETATM    4  N1  UNL     1      14.281  81.060  24.998  1.00  0.00     0.084 N 
HETATM    5  C6  UNL     1      13.350  80.814  26.067  1.00  0.00     0.309 C 
BRANCH   4   6
HETATM    6  C5  UNL     1      14.869  82.331  24.971  1.00  0.00     0.271 C 
BRANCH   6   7
HETATM    7  C4  UNL     1      16.112  82.607  24.253  1.00  0.00     0.030 C 
BRANCH   7   8
HETATM    8  C3  UNL     1      16.684  83.969  24.260  1.00  0.00     0.001 C 
BRANCH   8   9
HETATM    9  C2  UNL     1      17.822  84.266  23.357  1.00  0.00    -0.005 C 
HETATM   10  C1  UNL     1      18.120  85.773  23.538  1.00  0.00     0.005 C 
ENDBRANCH   8   9
ENDBRANCH   7   8
ENDBRANCH   6   7
ENDBRANCH   4   6
ENDBRANCH   3   4
ENDBRANCH   2   3
ENDBRANCH   1   2
BRANCH   1  11
HETATM   11  O1  UNL     1      16.064  76.956  23.785  1.00  0.00    -0.365 OA
ATOM     12  H1  UNL     1      15.796  76.052  23.905  1.00  0.00     0.212 HD
ENDBRANCH   1  11
BRANCH   1  13
HETATM   13  P1  UNL     1      15.851  77.696  26.365  1.00  0.00     0.310 P 
HETATM   14  O2  UNL     1      17.560  77.780  26.502  1.00  0.00    -0.637 OA
HETATM   15  O3  UNL     1      15.986  76.220  26.673  1.00  0.00    -0.637 OA
HETATM   16  O4  UNL     1      14.908  78.079  27.623  1.00  0.00    -0.637 OA
ENDBRANCH   1  13
BRANCH   1  17
HETATM   17  P2  UNL     1      13.638  76.878  24.764  1.00  0.00     0.310 P 
HETATM   18  O5  UNL     1      13.418  75.437  23.926  1.00  0.00    -0.637 OA
HETATM   19  O6  UNL     1      12.501  77.422  25.843  1.00  0.00    -0.637 OA
HETATM   20  O7  UNL     1      12.896  77.590  23.629  1.00  0.00    -0.637 OA
ENDBRANCH   1  17
TORSDOF 10
ENDMDL
