MODEL 1
REMARK VINA RESULT: -7.948901600      0.000      0.000
REMARK  10 active torsions:
REMARK  status: ('A' for Active; 'I' for Inactive)
REMARK    1  A    between atoms: C2_2  and  C3_3 
REMARK    2  A    between atoms: C3_3  and  C4_4 
REMARK    3  A    between atoms: C4_4  and  C5_5 
REMARK    4  A    between atoms: C5_5  and  N1_6 
REMARK    5  A    between atoms: N1_6  and  C7_8 
REMARK    6  A    between atoms: C7_8  and  C8_9 
REMARK    7  A    between atoms: C8_9  and  C9_10 
REMARK    8  A    between atoms: C9_10  and  O1_11 
REMARK    9  A    between atoms: C9_10  and  P1_13 
REMARK   10  A    between atoms: C9_10  and  P2_17 
ROOT
HETATM    1  C9  UNL     1      14.938  77.455  25.867  1.00  0.00     0.286 C 
ENDROOT
BRANCH   1   2
HETATM    2  C8  UNL     1      14.746  78.795  25.129  1.00  0.00     0.098 C 
BRANCH   2   3
HETATM    3  C7  UNL     1      13.497  79.494  25.484  1.00  0.00     0.276 C 
BRANCH   3   4
HETATM    4  N1  UNL     1      13.847  80.924  25.678  1.00  0.00     0.084 N 
HETATM    5  C6  UNL     1      14.607  80.960  26.898  1.00  0.00     0.309 C 
BRANCH   4   6
HETATM    6  C5  UNL     1      14.518  81.335  24.519  1.00  0.00     0.271 C 
BRANCH   6   7
HETATM    7  C4  UNL     1      15.010  82.699  24.338  1.00  0.00     0.030 C 
BRANCH   7   8
HETATM    8  C3  UNL     1      16.461  82.955  24.234  1.00  0.00     0.001 C 
BRANCH   8   9
HETATM    9  C2  UNL     1      16.926  84.354  24.080  1.00  0.00    -0.005 C 
HETATM   10  C1  UNL     1      18.139  84.291  23.122  1.00  0.00     0.005 C 
ENDBRANCH   8   9
ENDBRANCH   7   8
ENDBRANCH   6   7
ENDBRANCH   4   6
ENDBRANCH   3   4
ENDBRANCH   2   3
ENDBRANCH   1   2
BRANCH   1  11
HETATM   11  O1  UNL     1      13.860  77.493  26.785  1.00  0.00    -0.365 OA
ATOM     12  H1  UNL     1      13.743  78.430  26.892  1.00  0.00     0.212 HD
ENDBRANCH   1  11
BRANCH   1  13
HETATM   13  P1  UNL     1      14.817  76.185  24.635  1.00  0.00     0.310 P 
HETATM   14  O2  UNL     1      16.309  75.643  23.982  1.00  0.00    -0.637 OA
HETATM   15  O3  UNL     1      14.680  77.034  23.389  1.00  0.00    -0.637 OA
HETATM   16  O4  UNL     1      13.470  75.314  24.435  1.00  0.00    -0.637 OA
ENDBRANCH   1  13
BRANCH   1  17
HETATM   17  P2  UNL     1      16.467  77.276  26.689  1.00  0.00     0.310 P 
HETATM   18  O5  UNL     1      17.220  75.774  26.622  1.00  0.00    -0.637 OA
HETATM   19  O6  UNL     1      17.275  78.613  27.247  1.00  0.00    -0.637 OA
HETATM   20  O7  UNL     1      16.042  76.940  28.121  1.00  0.00    -0.637 OA
ENDBRANCH   1  17
TORSDOF 10
ENDMDL
