MODEL 2
REMARK VINA RESULT: -7.251036231      1.338      1.953
REMARK  5 active torsions:
REMARK  status: ('A' for Active; 'I' for Inactive)
REMARK    1  A    between atoms: O1_1  and  C1_3 
REMARK    2  A    between atoms: C1_3  and  C2_4 
REMARK    3  A    between atoms: C1_3  and  P1_11 
REMARK    4  A    between atoms: C1_3  and  P2_15 
REMARK    5  A    between atoms: C2_4  and  N1_5 
ROOT
HETATM    1  C1  UNL     1      15.673  77.140  26.613  1.00  0.00     0.301 C 
ENDROOT
BRANCH   1   2
HETATM    2  O1  UNL     1      14.385  77.393  27.220  1.00  0.00    -0.364 OA
ATOM      3  H1  UNL     1      13.961  76.549  27.120  1.00  0.00     0.212 HD
ENDBRANCH   1   2
BRANCH   1   4
HETATM    4  C2  UNL     1      16.162  78.543  26.358  1.00  0.00     0.197 C 
BRANCH   4   5
HETATM    5  N1  UNL     1      15.204  79.547  26.108  1.00  0.00    -0.347 N 
HETATM    6  C3  UNL     1      14.655  79.973  24.976  1.00  0.00     0.108 A 
HETATM    7  C4  UNL     1      13.770  81.002  25.238  1.00  0.00     0.106 A 
HETATM    8  N2  UNL     1      13.780  81.206  26.558  1.00  0.00    -0.361 N 
HETATM    9  C5  UNL     1      14.642  80.332  27.085  1.00  0.00     0.182 A 
ATOM     10  H2  UNL     1      13.232  81.899  27.068  1.00  0.00     0.166 HD
ENDBRANCH   4   5
ENDBRANCH   1   4
BRANCH   1  11
HETATM   11  P1  UNL     1      16.774  76.327  27.668  1.00  0.00     0.311 P 
HETATM   12  O2  UNL     1      17.633  77.506  28.127  1.00  0.00    -0.637 OA
HETATM   13  O3  UNL     1      18.133  75.610  27.030  1.00  0.00    -0.637 OA
HETATM   14  O4  UNL     1      16.338  76.035  29.259  1.00  0.00    -0.637 OA
ENDBRANCH   1  11
BRANCH   1  15
HETATM   15  P2  UNL     1      15.248  76.199  25.187  1.00  0.00     0.311 P 
HETATM   16  O5  UNL     1      15.064  74.547  25.294  1.00  0.00    -0.637 OA
HETATM   17  O6  UNL     1      13.717  76.312  25.344  1.00  0.00    -0.637 OA
HETATM   18  O7  UNL     1      15.137  76.951  23.720  1.00  0.00    -0.637 OA
ENDBRANCH   1  15
TORSDOF 5
ENDMDL
