MODEL 5
REMARK VINA RESULT: -7.116963353      1.505      2.298
REMARK  5 active torsions:
REMARK  status: ('A' for Active; 'I' for Inactive)
REMARK    1  A    between atoms: O1_1  and  C1_3 
REMARK    2  A    between atoms: C1_3  and  C2_4 
REMARK    3  A    between atoms: C1_3  and  P1_11 
REMARK    4  A    between atoms: C1_3  and  P2_15 
REMARK    5  A    between atoms: C2_4  and  N1_5 
ROOT
HETATM    1  C1  UNL     1      15.476  76.897  26.381  1.00  0.00     0.301 C 
ENDROOT
BRANCH   1   2
HETATM    2  O1  UNL     1      14.222  77.208  27.029  1.00  0.00    -0.364 OA
ATOM      3  H1  UNL     1      14.052  78.083  26.699  1.00  0.00     0.212 HD
ENDBRANCH   1   2
BRANCH   1   4
HETATM    4  C2  UNL     1      15.877  78.249  25.845  1.00  0.00     0.197 C 
BRANCH   4   5
HETATM    5  N1  UNL     1      14.957  79.311  25.963  1.00  0.00    -0.347 N 
HETATM    6  C3  UNL     1      13.900  79.641  25.227  1.00  0.00     0.108 A 
HETATM    7  C4  UNL     1      13.315  80.787  25.730  1.00  0.00     0.106 A 
HETATM    8  N2  UNL     1      14.031  81.162  26.795  1.00  0.00    -0.361 N 
HETATM    9  C5  UNL     1      15.019  80.276  26.937  1.00  0.00     0.182 A 
ATOM     10  H2  UNL     1      13.854  81.974  27.388  1.00  0.00     0.166 HD
ENDBRANCH   4   5
ENDBRANCH   1   4
BRANCH   1  11
HETATM   11  P1  UNL     1      16.685  76.328  27.477  1.00  0.00     0.311 P 
HETATM   12  O2  UNL     1      17.382  77.645  27.821  1.00  0.00    -0.637 OA
HETATM   13  O3  UNL     1      18.122  75.748  26.873  1.00  0.00    -0.637 OA
HETATM   14  O4  UNL     1      16.306  76.115  29.094  1.00  0.00    -0.637 OA
ENDBRANCH   1  11
BRANCH   1  15
HETATM   15  P2  UNL     1      15.003  75.700  25.180  1.00  0.00     0.311 P 
HETATM   16  O5  UNL     1      13.808  76.046  24.074  1.00  0.00    -0.637 OA
HETATM   17  O6  UNL     1      16.028  76.109  24.101  1.00  0.00    -0.637 OA
HETATM   18  O7  UNL     1      15.678  74.192  25.225  1.00  0.00    -0.637 OA
ENDBRANCH   1  15
TORSDOF 5
ENDMDL
