MODEL 6
REMARK VINA RESULT: -6.976694609      1.228      3.289
REMARK  5 active torsions:
REMARK  status: ('A' for Active; 'I' for Inactive)
REMARK    1  A    between atoms: O1_1  and  C1_3 
REMARK    2  A    between atoms: C1_3  and  C2_4 
REMARK    3  A    between atoms: C1_3  and  P1_11 
REMARK    4  A    between atoms: C1_3  and  P2_15 
REMARK    5  A    between atoms: C2_4  and  N1_5 
ROOT
HETATM    1  C1  UNL     1      14.953  77.947  25.477  1.00  0.00     0.301 C 
ENDROOT
BRANCH   1   2
HETATM    2  O1  UNL     1      15.678  78.671  24.457  1.00  0.00    -0.364 OA
ATOM      3  H1  UNL     1      16.576  78.438  24.664  1.00  0.00     0.212 HD
ENDBRANCH   1   2
BRANCH   1   4
HETATM    4  C2  UNL     1      14.003  79.007  25.975  1.00  0.00     0.197 C 
BRANCH   4   5
HETATM    5  N1  UNL     1      14.328  80.358  25.735  1.00  0.00    -0.347 N 
HETATM    6  C3  UNL     1      14.101  81.141  24.686  1.00  0.00     0.108 A 
HETATM    7  C4  UNL     1      14.630  82.397  24.912  1.00  0.00     0.106 A 
HETATM    8  N2  UNL     1      15.191  82.378  26.125  1.00  0.00    -0.361 N 
HETATM    9  C5  UNL     1      15.011  81.152  26.622  1.00  0.00     0.182 A 
ATOM     10  H2  UNL     1      15.667  83.155  26.584  1.00  0.00     0.166 HD
ENDBRANCH   4   5
ENDBRANCH   1   4
BRANCH   1  11
HETATM   11  P1  UNL     1      14.052  76.612  24.850  1.00  0.00     0.311 P 
HETATM   12  O2  UNL     1      13.579  77.202  23.522  1.00  0.00    -0.637 OA
HETATM   13  O3  UNL     1      12.464  76.416  25.306  1.00  0.00    -0.637 OA
HETATM   14  O4  UNL     1      14.843  75.392  24.018  1.00  0.00    -0.637 OA
ENDBRANCH   1  11
BRANCH   1  15
HETATM   15  P2  UNL     1      16.228  77.467  26.591  1.00  0.00     0.311 P 
HETATM   16  O5  UNL     1      17.061  78.617  27.461  1.00  0.00    -0.637 OA
HETATM   17  O6  UNL     1      15.326  77.279  27.830  1.00  0.00    -0.637 OA
HETATM   18  O7  UNL     1      16.666  75.876  26.690  1.00  0.00    -0.637 OA
ENDBRANCH   1  15
TORSDOF 5
ENDMDL
