MODEL 3
REMARK VINA RESULT: -7.235905845      1.481      3.435
REMARK  5 active torsions:
REMARK  status: ('A' for Active; 'I' for Inactive)
REMARK    1  A    between atoms: O1_1  and  C1_3 
REMARK    2  A    between atoms: C1_3  and  C2_4 
REMARK    3  A    between atoms: C1_3  and  P1_11 
REMARK    4  A    between atoms: C1_3  and  P2_15 
REMARK    5  A    between atoms: C2_4  and  N1_5 
ROOT
HETATM    1  C1  UNL     1      15.655  77.163  26.148  1.00  0.00     0.301 C 
ENDROOT
BRANCH   1   2
HETATM    2  O1  UNL     1      16.488  78.241  25.662  1.00  0.00    -0.364 OA
ATOM      3  H1  UNL     1      17.343  77.827  25.652  1.00  0.00     0.212 HD
ENDBRANCH   1   2
BRANCH   1   4
HETATM    4  C2  UNL     1      14.447  77.920  26.640  1.00  0.00     0.197 C 
BRANCH   4   5
HETATM    5  N1  UNL     1      14.317  79.276  26.274  1.00  0.00    -0.347 N 
HETATM    6  C3  UNL     1      13.762  79.847  25.211  1.00  0.00     0.108 A 
HETATM    7  C4  UNL     1      13.898  81.220  25.288  1.00  0.00     0.106 A 
HETATM    8  N2  UNL     1      14.549  81.490  26.424  1.00  0.00    -0.361 N 
HETATM    9  C5  UNL     1      14.802  80.322  27.019  1.00  0.00     0.182 A 
ATOM     10  H2  UNL     1      14.804  82.415  26.770  1.00  0.00     0.166 HD
ENDBRANCH   4   5
ENDBRANCH   1   4
BRANCH   1  11
HETATM   11  P1  UNL     1      15.180  76.059  24.907  1.00  0.00     0.311 P 
HETATM   12  O2  UNL     1      15.090  77.012  23.715  1.00  0.00    -0.637 OA
HETATM   13  O3  UNL     1      13.568  75.697  24.714  1.00  0.00    -0.637 OA
HETATM   14  O4  UNL     1      16.344  75.168  24.097  1.00  0.00    -0.637 OA
ENDBRANCH   1  11
BRANCH   1  15
HETATM   15  P2  UNL     1      16.663  76.427  27.390  1.00  0.00     0.311 P 
HETATM   16  O5  UNL     1      18.137  75.763  26.991  1.00  0.00    -0.637 OA
HETATM   17  O6  UNL     1      17.424  77.709  27.791  1.00  0.00    -0.637 OA
HETATM   18  O7  UNL     1      16.091  76.304  28.935  1.00  0.00    -0.637 OA
ENDBRANCH   1  15
TORSDOF 5
ENDMDL
