MODEL 1
REMARK VINA RESULT: -7.395988382      0.000      0.000
REMARK  5 active torsions:
REMARK  status: ('A' for Active; 'I' for Inactive)
REMARK    1  A    between atoms: O1_1  and  C1_3 
REMARK    2  A    between atoms: C1_3  and  C2_4 
REMARK    3  A    between atoms: C1_3  and  P1_11 
REMARK    4  A    between atoms: C1_3  and  P2_15 
REMARK    5  A    between atoms: C2_4  and  N1_5 
ROOT
HETATM    1  C1  UNL     1      14.647  77.796  26.445  1.00  0.00     0.301 C 
ENDROOT
BRANCH   1   2
HETATM    2  O1  UNL     1      13.577  77.189  27.204  1.00  0.00    -0.364 OA
ATOM      3  H1  UNL     1      13.899  77.285  28.093  1.00  0.00     0.212 HD
ENDBRANCH   1   2
BRANCH   1   4
HETATM    4  C2  UNL     1      14.492  79.248  26.821  1.00  0.00     0.197 C 
BRANCH   4   5
HETATM    5  N1  UNL     1      14.630  80.217  25.805  1.00  0.00    -0.347 N 
HETATM    6  C3  UNL     1      15.701  80.653  25.151  1.00  0.00     0.108 A 
HETATM    7  C4  UNL     1      15.334  81.634  24.249  1.00  0.00     0.106 A 
HETATM    8  N2  UNL     1      14.012  81.797  24.357  1.00  0.00    -0.361 N 
HETATM    9  C5  UNL     1      13.586  80.946  25.293  1.00  0.00     0.182 A 
ATOM     10  H2  UNL     1      13.437  82.450  23.824  1.00  0.00     0.166 HD
ENDBRANCH   4   5
ENDBRANCH   1   4
BRANCH   1  11
HETATM   11  P1  UNL     1      16.214  77.241  26.917  1.00  0.00     0.311 P 
HETATM   12  O2  UNL     1      15.894  76.661  28.295  1.00  0.00    -0.637 OA
HETATM   13  O3  UNL     1      17.273  78.306  27.632  1.00  0.00    -0.637 OA
HETATM   14  O4  UNL     1      16.748  75.734  26.416  1.00  0.00    -0.637 OA
ENDBRANCH   1  11
BRANCH   1  15
HETATM   15  P2  UNL     1      14.229  77.379  24.787  1.00  0.00     0.311 P 
HETATM   16  O5  UNL     1      15.383  76.759  23.759  1.00  0.00    -0.637 OA
HETATM   17  O6  UNL     1      13.796  75.924  25.069  1.00  0.00    -0.637 OA
HETATM   18  O7  UNL     1      12.710  77.704  24.225  1.00  0.00    -0.637 OA
ENDBRANCH   1  15
TORSDOF 5
ENDMDL
