MODEL 4
REMARK VINA RESULT: -9.988026973      0.989      1.790
REMARK  17 active torsions:
REMARK  status: ('A' for Active; 'I' for Inactive)
REMARK    1  A    between atoms: C2_2  and  C3_3 
REMARK    2  A    between atoms: C3_3  and  N1_4 
REMARK    3  A    between atoms: N1_4  and  C4_5 
REMARK    4  A    between atoms: N1_4  and  C7_8 
REMARK    5  A    between atoms: C4_5  and  C5_6 
REMARK    6  A    between atoms: C7_8  and  O1_9 
REMARK    7  A    between atoms: C7_8  and  C8_11 
REMARK    8  A    between atoms: C12_15  and  C13_16 
REMARK       I    between atoms: C13_16  and  N2_18 
REMARK    9  A    between atoms: N2_18  and  C14_20 
REMARK   10  A    between atoms: C14_20  and  C15_21 
REMARK   11  A    between atoms: C14_20  and  C22_28 
REMARK   12  A    between atoms: C15_21  and  C16_22 
REMARK   13  A    between atoms: C22_28  and  N3_29 
REMARK   14  A    between atoms: C22_28  and  C23_33 
REMARK   15  A    between atoms: C23_33  and  C24_34 
REMARK   16  A    between atoms: C24_34  and  C26_36 
REMARK       I    between atoms: C26_36  and  N4_38 
REMARK   17  A    between atoms: N4_38  and  C27_40 
ROOT
HETATM    1  C14 UNL     1       9.799  -3.125  48.420  1.00  0.00     0.024 C 
ENDROOT
BRANCH   1   2
HETATM    2  N2  UNL     1       9.493  -1.722  48.528  1.00  0.00    -0.328 N 
HETATM    3  C13 UNL     1       9.730  -0.852  49.606  1.00  0.00     0.255 C 
HETATM    4  O2  UNL     1      10.299  -1.242  50.657  1.00  0.00    -0.267 OA
ATOM      5  H2  UNL     1       9.044  -1.304  47.713  1.00  0.00     0.168 HD
BRANCH   3   6
HETATM    6  C12 UNL     1       9.307   0.570  49.521  1.00  0.00     0.033 A 
HETATM    7  C11 UNL     1      10.029   1.539  50.187  1.00  0.00     0.017 A 
HETATM    8  C10 UNL     1       9.655   2.862  50.141  1.00  0.00     0.002 A 
HETATM    9  C9  UNL     1       8.524   3.272  49.414  1.00  0.00     0.016 A 
HETATM   10  C8  UNL     1       7.802   2.326  48.750  1.00  0.00     0.015 A 
HETATM   11  C33 UNL     1       8.209   0.968  48.814  1.00  0.00     0.032 A 
BRANCH  10  12
HETATM   12  C7  UNL     1       6.628   2.645  47.976  1.00  0.00     0.148 C 
BRANCH  12  13
HETATM   13  N1  UNL     1       5.394   3.196  48.316  1.00  0.00    -0.361 N 
BRANCH  13  14
HETATM   14  C3  UNL     1       4.382   2.210  48.790  1.00  0.00     0.124 C 
BRANCH  14  15
HETATM   15  C2  UNL     1       4.371   2.235  50.272  1.00  0.00     0.015 C 
HETATM   16  C1  UNL     1       5.014   0.998  50.880  1.00  0.00     0.006 C 
ENDBRANCH  14  15
ENDBRANCH  13  14
BRANCH  13  17
HETATM   17  C4  UNL     1       4.934   4.545  48.219  1.00  0.00     0.124 C 
BRANCH  17  18
HETATM   18  C5  UNL     1       5.623   5.559  49.082  1.00  0.00     0.015 C 
HETATM   19  C6  UNL     1       6.644   6.324  48.208  1.00  0.00     0.006 C 
ENDBRANCH  17  18
ENDBRANCH  13  17
ENDBRANCH  12  13
BRANCH  12  20
HETATM   20  O1  UNL     1       6.712   2.369  46.683  1.00  0.00    -0.346 OA
ATOM     21  H1  UNL     1       6.235   1.580  46.454  1.00  0.00     0.219 HD
ENDBRANCH  12  20
ENDBRANCH  10  12
ENDBRANCH   3   6
ENDBRANCH   1   2
BRANCH   1  22
HETATM   22  C15 UNL     1       8.618  -3.972  48.159  1.00  0.00     0.093 C 
BRANCH  22  23
HETATM   23  C16 UNL     1       7.335  -3.467  48.692  1.00  0.00    -0.053 A 
HETATM   24  C17 UNL     1       6.365  -3.006  47.802  1.00  0.00     0.007 A 
HETATM   25  C18 UNL     1       5.157  -2.516  48.253  1.00  0.00     0.001 A 
HETATM   26  C19 UNL     1       4.894  -2.475  49.607  1.00  0.00     0.000 A 
HETATM   27  C20 UNL     1       5.832  -2.922  50.502  1.00  0.00     0.001 A 
HETATM   28  C21 UNL     1       7.035  -3.408  50.016  1.00  0.00     0.007 A 
ENDBRANCH  22  23
ENDBRANCH   1  22
BRANCH   1  29
HETATM   29  C22 UNL     1      11.080  -3.499  47.787  1.00  0.00     0.230 C 
BRANCH  29  30
HETATM   30  N3  UNL     1      11.213  -2.961  46.431  1.00  0.00    -0.070 N 
ATOM     31  H33 UNL     1      12.139  -2.560  46.285  1.00  0.00     0.275 HD
ATOM     32  H32 UNL     1      11.249  -3.711  45.740  1.00  0.00     0.275 HD
ATOM     33  H31 UNL     1      10.480  -2.288  46.205  1.00  0.00     0.275 HD
ENDBRANCH  29  30
BRANCH  29  34
HETATM   34  C23 UNL     1      12.262  -2.970  48.544  1.00  0.00     0.052 C 
BRANCH  34  35
HETATM   35  C24 UNL     1      13.567  -3.246  47.832  1.00  0.00     0.076 C 
HETATM   36  C25 UNL     1      14.401  -1.966  48.010  1.00  0.00     0.020 C 
BRANCH  35  37
HETATM   37  C26 UNL     1      14.331  -4.278  48.632  1.00  0.00     0.226 C 
HETATM   38  O3  UNL     1      15.068  -3.864  49.525  1.00  0.00    -0.273 OA
HETATM   39  N4  UNL     1      14.188  -5.639  48.347  1.00  0.00    -0.327 N 
ATOM     40  H4  UNL     1      13.560  -5.897  47.586  1.00  0.00     0.169 HD
BRANCH  39  41
HETATM   41  C27 UNL     1      14.844  -6.684  49.031  1.00  0.00     0.034 A 
HETATM   42  C28 UNL     1      14.380  -7.245  50.191  1.00  0.00     0.032 A 
HETATM   43  C29 UNL     1      15.068  -8.278  50.843  1.00  0.00     0.044 A 
HETATM   44  C30 UNL     1      16.244  -8.757  50.325  1.00  0.00     0.116 A 
HETATM   45  F1  UNL     1      16.920  -9.757  50.949  1.00  0.00    -0.206 F 
HETATM   46  C31 UNL     1      16.724  -8.197  49.154  1.00  0.00     0.044 A 
HETATM   47  C32 UNL     1      16.041  -7.195  48.534  1.00  0.00     0.032 A 
ENDBRANCH  39  41
ENDBRANCH  35  37
ENDBRANCH  34  35
ENDBRANCH  29  34
ENDBRANCH   1  29
TORSDOF 17
ENDMDL
