MODEL 5
REMARK VINA RESULT: -9.933130994      1.082      2.097
REMARK  17 active torsions:
REMARK  status: ('A' for Active; 'I' for Inactive)
REMARK    1  A    between atoms: C2_2  and  C3_3 
REMARK    2  A    between atoms: C3_3  and  N1_4 
REMARK    3  A    between atoms: N1_4  and  C4_5 
REMARK    4  A    between atoms: N1_4  and  C7_8 
REMARK    5  A    between atoms: C4_5  and  C5_6 
REMARK    6  A    between atoms: C7_8  and  O1_9 
REMARK    7  A    between atoms: C7_8  and  C8_11 
REMARK    8  A    between atoms: C12_15  and  C13_16 
REMARK       I    between atoms: C13_16  and  N2_18 
REMARK    9  A    between atoms: N2_18  and  C14_20 
REMARK   10  A    between atoms: C14_20  and  C15_21 
REMARK   11  A    between atoms: C14_20  and  C22_28 
REMARK   12  A    between atoms: C15_21  and  C16_22 
REMARK   13  A    between atoms: C22_28  and  N3_29 
REMARK   14  A    between atoms: C22_28  and  C23_33 
REMARK   15  A    between atoms: C23_33  and  C24_34 
REMARK   16  A    between atoms: C24_34  and  C26_36 
REMARK       I    between atoms: C26_36  and  N4_38 
REMARK   17  A    between atoms: N4_38  and  C27_40 
ROOT
HETATM    1  C14 UNL     1       9.737  -3.139  48.336  1.00  0.00     0.024 C 
ENDROOT
BRANCH   1   2
HETATM    2  N2  UNL     1       9.506  -1.739  48.582  1.00  0.00    -0.328 N 
HETATM    3  C13 UNL     1       9.800  -0.990  49.735  1.00  0.00     0.255 C 
HETATM    4  O2  UNL     1      10.359  -1.509  50.734  1.00  0.00    -0.267 OA
ATOM      5  H2  UNL     1       9.071  -1.222  47.818  1.00  0.00     0.168 HD
BRANCH   3   6
HETATM    6  C12 UNL     1       9.451   0.453  49.793  1.00  0.00     0.033 A 
HETATM    7  C11 UNL     1      10.425   1.402  49.561  1.00  0.00     0.017 A 
HETATM    8  C10 UNL     1      10.138   2.746  49.621  1.00  0.00     0.002 A 
HETATM    9  C9  UNL     1       8.841   3.198  49.923  1.00  0.00     0.016 A 
HETATM   10  C8  UNL     1       7.868   2.272  50.155  1.00  0.00     0.015 A 
HETATM   11  C33 UNL     1       8.192   0.892  50.086  1.00  0.00     0.032 A 
BRANCH  10  12
HETATM   12  C7  UNL     1       6.509   2.634  50.470  1.00  0.00     0.148 C 
BRANCH  12  13
HETATM   13  N1  UNL     1       5.281   2.053  50.159  1.00  0.00    -0.361 N 
BRANCH  13  14
HETATM   14  C3  UNL     1       4.326   1.967  51.300  1.00  0.00     0.124 C 
BRANCH  14  15
HETATM   15  C2  UNL     1       4.177   0.539  51.671  1.00  0.00     0.015 C 
HETATM   16  C1  UNL     1       5.333   0.034  52.520  1.00  0.00     0.006 C 
ENDBRANCH  14  15
ENDBRANCH  13  14
BRANCH  13  17
HETATM   17  C4  UNL     1       4.826   1.472  48.936  1.00  0.00     0.124 C 
BRANCH  17  18
HETATM   18  C5  UNL     1       5.175   2.196  47.670  1.00  0.00     0.015 C 
HETATM   19  C6  UNL     1       6.235   1.362  46.913  1.00  0.00     0.006 C 
ENDBRANCH  17  18
ENDBRANCH  13  17
ENDBRANCH  12  13
BRANCH  12  20
HETATM   20  O1  UNL     1       6.371   3.732  51.198  1.00  0.00    -0.346 OA
ATOM     21  H1  UNL     1       5.467   3.883  51.449  1.00  0.00     0.219 HD
ENDBRANCH  12  20
ENDBRANCH  10  12
ENDBRANCH   3   6
ENDBRANCH   1   2
BRANCH   1  22
HETATM   22  C15 UNL     1       8.522  -3.881  47.941  1.00  0.00     0.093 C 
BRANCH  22  23
HETATM   23  C16 UNL     1       7.245  -3.338  48.450  1.00  0.00    -0.053 A 
HETATM   24  C17 UNL     1       6.961  -3.437  49.812  1.00  0.00     0.007 A 
HETATM   25  C18 UNL     1       5.778  -2.954  50.332  1.00  0.00     0.001 A 
HETATM   26  C19 UNL     1       4.851  -2.361  49.498  1.00  0.00     0.000 A 
HETATM   27  C20 UNL     1       5.107  -2.253  48.154  1.00  0.00     0.001 A 
HETATM   28  C21 UNL     1       6.305  -2.748  47.665  1.00  0.00     0.007 A 
ENDBRANCH  22  23
ENDBRANCH   1  22
BRANCH   1  29
HETATM   29  C22 UNL     1      11.021  -3.522  47.714  1.00  0.00     0.230 C 
BRANCH  29  30
HETATM   30  N3  UNL     1      11.212  -2.907  46.399  1.00  0.00    -0.070 N 
ATOM     31  H33 UNL     1      10.437  -2.284  46.168  1.00  0.00     0.275 HD
ATOM     32  H32 UNL     1      11.969  -2.224  46.420  1.00  0.00     0.275 HD
ATOM     33  H31 UNL     1      11.360  -3.597  45.663  1.00  0.00     0.275 HD
ENDBRANCH  29  30
BRANCH  29  34
HETATM   34  C23 UNL     1      12.199  -3.085  48.534  1.00  0.00     0.052 C 
BRANCH  34  35
HETATM   35  C24 UNL     1      13.511  -3.337  47.827  1.00  0.00     0.076 C 
HETATM   36  C25 UNL     1      14.319  -2.039  48.005  1.00  0.00     0.020 C 
BRANCH  35  37
HETATM   37  C26 UNL     1      14.294  -4.351  48.633  1.00  0.00     0.226 C 
HETATM   38  O3  UNL     1      15.016  -3.920  49.529  1.00  0.00    -0.273 OA
HETATM   39  N4  UNL     1      14.182  -5.715  48.348  1.00  0.00    -0.327 N 
ATOM     40  H4  UNL     1      13.565  -5.987  47.583  1.00  0.00     0.169 HD
BRANCH  39  41
HETATM   41  C27 UNL     1      14.858  -6.744  49.036  1.00  0.00     0.034 A 
HETATM   42  C28 UNL     1      14.414  -7.296  50.208  1.00  0.00     0.032 A 
HETATM   43  C29 UNL     1      15.120  -8.313  50.865  1.00  0.00     0.044 A 
HETATM   44  C30 UNL     1      16.295  -8.787  50.338  1.00  0.00     0.116 A 
HETATM   45  F1  UNL     1      16.989  -9.772  50.966  1.00  0.00    -0.206 F 
HETATM   46  C31 UNL     1      16.754  -8.236  49.154  1.00  0.00     0.044 A 
HETATM   47  C32 UNL     1      16.053  -7.249  48.531  1.00  0.00     0.032 A 
ENDBRANCH  39  41
ENDBRANCH  35  37
ENDBRANCH  34  35
ENDBRANCH  29  34
ENDBRANCH   1  29
TORSDOF 17
ENDMDL
