MODEL 2
REMARK VINA RESULT: -10.317535005      0.495      1.707
REMARK  17 active torsions:
REMARK  status: ('A' for Active; 'I' for Inactive)
REMARK    1  A    between atoms: C2_2  and  C3_3 
REMARK    2  A    between atoms: C3_3  and  N1_4 
REMARK    3  A    between atoms: N1_4  and  C4_5 
REMARK    4  A    between atoms: N1_4  and  C7_8 
REMARK    5  A    between atoms: C4_5  and  C5_6 
REMARK    6  A    between atoms: C7_8  and  O1_9 
REMARK    7  A    between atoms: C7_8  and  C8_11 
REMARK    8  A    between atoms: C12_15  and  C13_16 
REMARK       I    between atoms: C13_16  and  N2_18 
REMARK    9  A    between atoms: N2_18  and  C14_20 
REMARK   10  A    between atoms: C14_20  and  C15_21 
REMARK   11  A    between atoms: C14_20  and  C22_28 
REMARK   12  A    between atoms: C15_21  and  C16_22 
REMARK   13  A    between atoms: C22_28  and  N3_29 
REMARK   14  A    between atoms: C22_28  and  C23_33 
REMARK   15  A    between atoms: C23_33  and  C24_34 
REMARK   16  A    between atoms: C24_34  and  C26_36 
REMARK       I    between atoms: C26_36  and  N4_38 
REMARK   17  A    between atoms: N4_38  and  C27_40 
ROOT
HETATM    1  C14 UNL     1       9.969  -3.139  48.272  1.00  0.00     0.024 C 
ENDROOT
BRANCH   1   2
HETATM    2  N2  UNL     1       9.708  -1.730  48.420  1.00  0.00    -0.328 N 
HETATM    3  C13 UNL     1       9.878  -0.919  49.555  1.00  0.00     0.255 C 
HETATM    4  O2  UNL     1      10.333  -1.380  50.633  1.00  0.00    -0.267 OA
ATOM      5  H2  UNL     1       9.352  -1.257  47.589  1.00  0.00     0.168 HD
BRANCH   3   6
HETATM    6  C12 UNL     1       9.519   0.522  49.502  1.00  0.00     0.033 A 
HETATM    7  C11 UNL     1      10.315   1.448  50.140  1.00  0.00     0.017 A 
HETATM    8  C10 UNL     1      10.003   2.789  50.122  1.00  0.00     0.002 A 
HETATM    9  C9  UNL     1       8.860   3.258  49.452  1.00  0.00     0.016 A 
HETATM   10  C8  UNL     1       8.064   2.353  48.815  1.00  0.00     0.015 A 
HETATM   11  C33 UNL     1       8.409   0.977  48.850  1.00  0.00     0.032 A 
BRANCH  10  12
HETATM   12  C7  UNL     1       6.872   2.734  48.100  1.00  0.00     0.148 C 
BRANCH  12  13
HETATM   13  N1  UNL     1       5.599   2.171  48.017  1.00  0.00    -0.361 N 
BRANCH  13  14
HETATM   14  C3  UNL     1       4.826   2.193  49.290  1.00  0.00     0.124 C 
BRANCH  14  15
HETATM   15  C2  UNL     1       4.732   0.803  49.798  1.00  0.00     0.015 C 
HETATM   16  C1  UNL     1       5.552   0.589  51.061  1.00  0.00     0.006 C 
ENDBRANCH  14  15
ENDBRANCH  13  14
BRANCH  13  17
HETATM   17  C4  UNL     1       4.954   1.521  46.921  1.00  0.00     0.124 C 
BRANCH  17  18
HETATM   18  C5  UNL     1       5.837   0.811  45.939  1.00  0.00     0.015 C 
HETATM   19  C6  UNL     1       5.139  -0.506  45.525  1.00  0.00     0.006 C 
ENDBRANCH  17  18
ENDBRANCH  13  17
ENDBRANCH  12  13
BRANCH  12  20
HETATM   20  O1  UNL     1       6.979   3.833  47.367  1.00  0.00    -0.346 OA
ATOM     21  H1  UNL     1       7.143   4.603  47.899  1.00  0.00     0.219 HD
ENDBRANCH  12  20
ENDBRANCH  10  12
ENDBRANCH   3   6
ENDBRANCH   1   2
BRANCH   1  22
HETATM   22  C15 UNL     1       8.781  -3.924  47.879  1.00  0.00     0.093 C 
BRANCH  22  23
HETATM   23  C16 UNL     1       7.520  -3.565  48.560  1.00  0.00    -0.053 A 
HETATM   24  C17 UNL     1       6.403  -3.240  47.791  1.00  0.00     0.007 A 
HETATM   25  C18 UNL     1       5.206  -2.887  48.381  1.00  0.00     0.001 A 
HETATM   26  C19 UNL     1       5.103  -2.852  49.757  1.00  0.00     0.000 A 
HETATM   27  C20 UNL     1       6.187  -3.167  50.535  1.00  0.00     0.001 A 
HETATM   28  C21 UNL     1       7.374  -3.516  49.910  1.00  0.00     0.007 A 
ENDBRANCH  22  23
ENDBRANCH   1  22
BRANCH   1  29
HETATM   29  C22 UNL     1      11.281  -3.538  47.725  1.00  0.00     0.230 C 
BRANCH  29  30
HETATM   30  N3  UNL     1      11.460  -3.119  46.333  1.00  0.00    -0.070 N 
ATOM     31  H33 UNL     1      11.864  -3.869  45.773  1.00  0.00     0.275 HD
ATOM     32  H32 UNL     1      10.561  -3.028  45.859  1.00  0.00     0.275 HD
ATOM     33  H31 UNL     1      12.007  -2.262  46.251  1.00  0.00     0.275 HD
ENDBRANCH  29  30
BRANCH  29  34
HETATM   34  C23 UNL     1      12.421  -2.916  48.478  1.00  0.00     0.052 C 
BRANCH  34  35
HETATM   35  C24 UNL     1      13.748  -3.136  47.788  1.00  0.00     0.076 C 
HETATM   36  C25 UNL     1      14.559  -1.857  48.061  1.00  0.00     0.020 C 
BRANCH  35  37
HETATM   37  C26 UNL     1      14.506  -4.200  48.552  1.00  0.00     0.226 C 
HETATM   38  O3  UNL     1      15.379  -3.821  49.329  1.00  0.00    -0.273 OA
HETATM   39  N4  UNL     1      14.205  -5.552  48.361  1.00  0.00    -0.327 N 
ATOM     40  H4  UNL     1      13.470  -5.781  47.693  1.00  0.00     0.169 HD
BRANCH  39  41
HETATM   41  C27 UNL     1      14.840  -6.624  49.022  1.00  0.00     0.034 A 
HETATM   42  C28 UNL     1      14.395  -7.166  50.198  1.00  0.00     0.032 A 
HETATM   43  C29 UNL     1      15.061  -8.227  50.826  1.00  0.00     0.044 A 
HETATM   44  C30 UNL     1      16.196  -8.756  50.266  1.00  0.00     0.116 A 
HETATM   45  F1  UNL     1      16.850  -9.785  50.866  1.00  0.00    -0.206 F 
HETATM   46  C31 UNL     1      16.656  -8.217  49.078  1.00  0.00     0.044 A 
HETATM   47  C32 UNL     1      15.995  -7.186  48.482  1.00  0.00     0.032 A 
ENDBRANCH  39  41
ENDBRANCH  35  37
ENDBRANCH  34  35
ENDBRANCH  29  34
ENDBRANCH   1  29
TORSDOF 17
ENDMDL
