MODEL 3
REMARK VINA RESULT: -9.995225602      0.967      1.766
REMARK  17 active torsions:
REMARK  status: ('A' for Active; 'I' for Inactive)
REMARK    1  A    between atoms: C2_2  and  C3_3 
REMARK    2  A    between atoms: C3_3  and  N1_4 
REMARK    3  A    between atoms: N1_4  and  C4_5 
REMARK    4  A    between atoms: N1_4  and  C7_8 
REMARK    5  A    between atoms: C4_5  and  C5_6 
REMARK    6  A    between atoms: C7_8  and  O1_9 
REMARK    7  A    between atoms: C7_8  and  C8_11 
REMARK    8  A    between atoms: C12_15  and  C13_16 
REMARK       I    between atoms: C13_16  and  N2_18 
REMARK    9  A    between atoms: N2_18  and  C14_20 
REMARK   10  A    between atoms: C14_20  and  C15_21 
REMARK   11  A    between atoms: C14_20  and  C22_28 
REMARK   12  A    between atoms: C15_21  and  C16_22 
REMARK   13  A    between atoms: C22_28  and  N3_29 
REMARK   14  A    between atoms: C22_28  and  C23_33 
REMARK   15  A    between atoms: C23_33  and  C24_34 
REMARK   16  A    between atoms: C24_34  and  C26_36 
REMARK       I    between atoms: C26_36  and  N4_38 
REMARK   17  A    between atoms: N4_38  and  C27_40 
ROOT
HETATM    1  C14 UNL     1       9.999  -3.191  48.292  1.00  0.00     0.024 C 
ENDROOT
BRANCH   1   2
HETATM    2  N2  UNL     1       9.718  -1.782  48.389  1.00  0.00    -0.328 N 
HETATM    3  C13 UNL     1       9.891  -0.926  49.490  1.00  0.00     0.255 C 
HETATM    4  O2  UNL     1      10.367  -1.338  50.579  1.00  0.00    -0.267 OA
ATOM      5  H2  UNL     1       9.344  -1.347  47.546  1.00  0.00     0.168 HD
BRANCH   3   6
HETATM    6  C12 UNL     1       9.509   0.507  49.386  1.00  0.00     0.033 A 
HETATM    7  C11 UNL     1      10.349   1.476  49.893  1.00  0.00     0.017 A 
HETATM    8  C10 UNL     1      10.019   2.810  49.826  1.00  0.00     0.002 A 
HETATM    9  C9  UNL     1       8.813   3.230  49.238  1.00  0.00     0.016 A 
HETATM   10  C8  UNL     1       7.973   2.283  48.732  1.00  0.00     0.015 A 
HETATM   11  C33 UNL     1       8.338   0.914  48.814  1.00  0.00     0.032 A 
BRANCH  10  12
HETATM   12  C7  UNL     1       6.715   2.612  48.108  1.00  0.00     0.148 C 
BRANCH  12  13
HETATM   13  N1  UNL     1       5.496   3.055  48.619  1.00  0.00    -0.361 N 
BRANCH  13  14
HETATM   14  C3  UNL     1       5.107   4.429  48.194  1.00  0.00     0.124 C 
BRANCH  14  15
HETATM   15  C2  UNL     1       5.877   5.400  49.007  1.00  0.00     0.015 C 
HETATM   16  C1  UNL     1       6.704   6.349  48.154  1.00  0.00     0.006 C 
ENDBRANCH  14  15
ENDBRANCH  13  14
BRANCH  13  17
HETATM   17  C4  UNL     1       4.600   2.421  49.533  1.00  0.00     0.124 C 
BRANCH  17  18
HETATM   18  C5  UNL     1       4.756   0.941  49.718  1.00  0.00     0.015 C 
HETATM   19  C6  UNL     1       5.426   0.692  51.090  1.00  0.00     0.006 C 
ENDBRANCH  17  18
ENDBRANCH  13  17
ENDBRANCH  12  13
BRANCH  12  20
HETATM   20  O1  UNL     1       6.684   2.473  46.792  1.00  0.00    -0.346 OA
ATOM     21  H1  UNL     1       5.941   2.920  46.403  1.00  0.00     0.219 HD
ENDBRANCH  12  20
ENDBRANCH  10  12
ENDBRANCH   3   6
ENDBRANCH   1   2
BRANCH   1  22
HETATM   22  C15 UNL     1       8.821  -4.008  47.935  1.00  0.00     0.093 C 
BRANCH  22  23
HETATM   23  C16 UNL     1       7.544  -3.600  48.558  1.00  0.00    -0.053 A 
HETATM   24  C17 UNL     1       6.463  -3.277  47.739  1.00  0.00     0.007 A 
HETATM   25  C18 UNL     1       5.254  -2.881  48.275  1.00  0.00     0.001 A 
HETATM   26  C19 UNL     1       5.102  -2.800  49.644  1.00  0.00     0.000 A 
HETATM   27  C20 UNL     1       6.152  -3.113  50.471  1.00  0.00     0.001 A 
HETATM   28  C21 UNL     1       7.352  -3.506  49.900  1.00  0.00     0.007 A 
ENDBRANCH  22  23
ENDBRANCH   1  22
BRANCH   1  29
HETATM   29  C22 UNL     1      11.314  -3.592  47.755  1.00  0.00     0.230 C 
BRANCH  29  30
HETATM   30  N3  UNL     1      11.510  -3.156  46.370  1.00  0.00    -0.070 N 
ATOM     31  H33 UNL     1      11.722  -2.159  46.325  1.00  0.00     0.275 HD
ATOM     32  H32 UNL     1      12.381  -3.526  45.989  1.00  0.00     0.275 HD
ATOM     33  H31 UNL     1      10.718  -3.391  45.771  1.00  0.00     0.275 HD
ENDBRANCH  29  30
BRANCH  29  34
HETATM   34  C23 UNL     1      12.450  -2.988  48.528  1.00  0.00     0.052 C 
BRANCH  34  35
HETATM   35  C24 UNL     1      13.772  -3.137  47.810  1.00  0.00     0.076 C 
HETATM   36  C25 UNL     1      14.541  -1.839  48.112  1.00  0.00     0.020 C 
BRANCH  35  37
HETATM   37  C26 UNL     1      14.579  -4.198  48.526  1.00  0.00     0.226 C 
HETATM   38  O3  UNL     1      15.507  -3.815  49.236  1.00  0.00    -0.273 OA
HETATM   39  N4  UNL     1      14.263  -5.550  48.368  1.00  0.00    -0.327 N 
ATOM     40  H4  UNL     1      13.481  -5.782  47.756  1.00  0.00     0.169 HD
BRANCH  39  41
HETATM   41  C27 UNL     1      14.941  -6.619  48.990  1.00  0.00     0.034 A 
HETATM   42  C28 UNL     1      16.049  -7.228  48.465  1.00  0.00     0.032 A 
HETATM   43  C29 UNL     1      16.689  -8.293  49.113  1.00  0.00     0.044 A 
HETATM   44  C30 UNL     1      16.209  -8.759  50.311  1.00  0.00     0.116 A 
HETATM   45  F1  UNL     1      16.821  -9.791  50.948  1.00  0.00    -0.206 F 
HETATM   46  C31 UNL     1      15.090  -8.152  50.852  1.00  0.00     0.044 A 
HETATM   47  C32 UNL     1      14.482  -7.118  50.207  1.00  0.00     0.032 A 
ENDBRANCH  39  41
ENDBRANCH  35  37
ENDBRANCH  34  35
ENDBRANCH  29  34
ENDBRANCH   1  29
TORSDOF 17
ENDMDL
