MODEL 1
REMARK VINA RESULT: -10.401295768      0.000      0.000
REMARK  17 active torsions:
REMARK  status: ('A' for Active; 'I' for Inactive)
REMARK    1  A    between atoms: C2_2  and  C3_3 
REMARK    2  A    between atoms: C3_3  and  N1_4 
REMARK    3  A    between atoms: N1_4  and  C4_5 
REMARK    4  A    between atoms: N1_4  and  C7_8 
REMARK    5  A    between atoms: C4_5  and  C5_6 
REMARK    6  A    between atoms: C7_8  and  O1_9 
REMARK    7  A    between atoms: C7_8  and  C8_11 
REMARK    8  A    between atoms: C12_15  and  C13_16 
REMARK       I    between atoms: C13_16  and  N2_18 
REMARK    9  A    between atoms: N2_18  and  C14_20 
REMARK   10  A    between atoms: C14_20  and  C15_21 
REMARK   11  A    between atoms: C14_20  and  C22_28 
REMARK   12  A    between atoms: C15_21  and  C16_22 
REMARK   13  A    between atoms: C22_28  and  N3_29 
REMARK   14  A    between atoms: C22_28  and  C23_33 
REMARK   15  A    between atoms: C23_33  and  C24_34 
REMARK   16  A    between atoms: C24_34  and  C26_36 
REMARK       I    between atoms: C26_36  and  N4_38 
REMARK   17  A    between atoms: N4_38  and  C27_40 
ROOT
HETATM    1  C14 UNL     1       9.874  -3.229  48.398  1.00  0.00     0.024 C 
ENDROOT
BRANCH   1   2
HETATM    2  N2  UNL     1       9.468  -1.852  48.517  1.00  0.00    -0.328 N 
HETATM    3  C13 UNL     1       9.701  -0.956  49.575  1.00  0.00     0.255 C 
HETATM    4  O2  UNL     1      10.359  -1.292  50.592  1.00  0.00    -0.267 OA
ATOM      5  H2  UNL     1       8.941  -1.477  47.728  1.00  0.00     0.168 HD
BRANCH   3   6
HETATM    6  C12 UNL     1       9.165   0.429  49.509  1.00  0.00     0.033 A 
HETATM    7  C11 UNL     1       9.841   1.453  50.138  1.00  0.00     0.017 A 
HETATM    8  C10 UNL     1       9.365   2.744  50.108  1.00  0.00     0.002 A 
HETATM    9  C9  UNL     1       8.172   3.061  49.435  1.00  0.00     0.016 A 
HETATM   10  C8  UNL     1       7.494   2.059  48.808  1.00  0.00     0.015 A 
HETATM   11  C33 UNL     1       8.008   0.737  48.854  1.00  0.00     0.032 A 
BRANCH  10  12
HETATM   12  C7  UNL     1       6.264   2.283  48.090  1.00  0.00     0.148 C 
BRANCH  12  13
HETATM   13  N1  UNL     1       4.949   1.879  48.321  1.00  0.00    -0.361 N 
BRANCH  13  14
HETATM   14  C3  UNL     1       4.197   1.482  47.098  1.00  0.00     0.124 C 
BRANCH  14  15
HETATM   15  C2  UNL     1       4.409   0.032  46.875  1.00  0.00     0.015 C 
HETATM   16  C1  UNL     1       5.176  -0.254  45.593  1.00  0.00     0.006 C 
ENDBRANCH  14  15
ENDBRANCH  13  14
BRANCH  13  17
HETATM   17  C4  UNL     1       4.200   1.851  49.537  1.00  0.00     0.124 C 
BRANCH  17  18
HETATM   18  C5  UNL     1       4.392   0.657  50.424  1.00  0.00     0.015 C 
HETATM   19  C6  UNL     1       5.387   1.041  51.543  1.00  0.00     0.006 C 
ENDBRANCH  17  18
ENDBRANCH  13  17
ENDBRANCH  12  13
BRANCH  12  20
HETATM   20  O1  UNL     1       6.375   3.011  46.990  1.00  0.00    -0.346 OA
ATOM     21  H1  UNL     1       7.279   3.234  46.799  1.00  0.00     0.219 HD
ENDBRANCH  12  20
ENDBRANCH  10  12
ENDBRANCH   3   6
ENDBRANCH   1   2
BRANCH   1  22
HETATM   22  C15 UNL     1       8.752  -4.161  48.166  1.00  0.00     0.093 C 
BRANCH  22  23
HETATM   23  C16 UNL     1       7.437  -3.724  48.682  1.00  0.00    -0.053 A 
HETATM   24  C17 UNL     1       6.385  -3.538  47.785  1.00  0.00     0.007 A 
HETATM   25  C18 UNL     1       5.143  -3.121  48.219  1.00  0.00     0.001 A 
HETATM   26  C19 UNL     1       4.928  -2.881  49.561  1.00  0.00     0.000 A 
HETATM   27  C20 UNL     1       5.947  -3.056  50.461  1.00  0.00     0.001 A 
HETATM   28  C21 UNL     1       7.182  -3.475  49.993  1.00  0.00     0.007 A 
ENDBRANCH  22  23
ENDBRANCH   1  22
BRANCH   1  29
HETATM   29  C22 UNL     1      11.162  -3.507  47.731  1.00  0.00     0.230 C 
BRANCH  29  30
HETATM   30  N3  UNL     1      11.250  -2.891  46.404  1.00  0.00    -0.070 N 
ATOM     31  H33 UNL     1      11.300  -3.601  45.673  1.00  0.00     0.275 HD
ATOM     32  H32 UNL     1      10.368  -2.450  46.145  1.00  0.00     0.275 HD
ATOM     33  H31 UNL     1      12.026  -2.233  46.331  1.00  0.00     0.275 HD
ENDBRANCH  29  30
BRANCH  29  34
HETATM   34  C23 UNL     1      12.328  -2.964  48.502  1.00  0.00     0.052 C 
BRANCH  34  35
HETATM   35  C24 UNL     1      13.645  -3.233  47.810  1.00  0.00     0.076 C 
HETATM   36  C25 UNL     1      14.479  -1.958  48.024  1.00  0.00     0.020 C 
BRANCH  35  37
HETATM   37  C26 UNL     1      14.392  -4.279  48.609  1.00  0.00     0.226 C 
HETATM   38  O3  UNL     1      15.157  -3.878  49.484  1.00  0.00    -0.273 OA
HETATM   39  N4  UNL     1      14.200  -5.638  48.343  1.00  0.00    -0.327 N 
ATOM     40  H4  UNL     1      13.551  -5.884  47.597  1.00  0.00     0.169 HD
BRANCH  39  41
HETATM   41  C27 UNL     1      14.836  -6.695  49.028  1.00  0.00     0.034 A 
HETATM   42  C28 UNL     1      14.348  -7.264  50.174  1.00  0.00     0.032 A 
HETATM   43  C29 UNL     1      15.015  -8.308  50.828  1.00  0.00     0.044 A 
HETATM   44  C30 UNL     1      16.196  -8.793  50.324  1.00  0.00     0.116 A 
HETATM   45  F1  UNL     1      16.852  -9.805  50.949  1.00  0.00    -0.206 F 
HETATM   46  C31 UNL     1      16.700  -8.226  49.166  1.00  0.00     0.044 A 
HETATM   47  C32 UNL     1      16.036  -7.212  48.545  1.00  0.00     0.032 A 
ENDBRANCH  39  41
ENDBRANCH  35  37
ENDBRANCH  34  35
ENDBRANCH  29  34
ENDBRANCH   1  29
TORSDOF 17
ENDMDL
