MODEL 1
REMARK VINA RESULT: -6.847965514      0.000      0.000
REMARK  3 active torsions:
REMARK  status: ('A' for Active; 'I' for Inactive)
REMARK    1  A    between atoms: N1_1  and  C1_5 
REMARK    2  A    between atoms: C1_5  and  C2_6 
REMARK    3  A    between atoms: C5_9  and  C6_10 
ROOT
HETATM    1  C2  UNL     1      53.565  79.691  59.314  1.00  0.00     0.079 A 
HETATM    2  C3  UNL     1      53.906  80.678  60.215  1.00  0.00     0.037 A 
HETATM    3  C4  UNL     1      55.034  80.206  60.854  1.00  0.00     0.040 A 
HETATM    4  C5  UNL     1      55.340  78.950  60.320  1.00  0.00     0.087 A 
HETATM    5  O1  UNL     1      54.418  78.728  59.417  1.00  0.00    -0.312 OA
ENDROOT
BRANCH   4   6
HETATM    6  C6  UNL     1      56.457  78.106  60.716  1.00  0.00     0.013 A 
HETATM    7  C7  UNL     1      56.306  76.896  61.348  1.00  0.00     0.017 A 
HETATM    8  C8  UNL     1      57.403  76.115  61.711  1.00  0.00     0.018 A 
HETATM    9  C9  UNL     1      58.656  76.598  61.416  1.00  0.00     0.087 A 
HETATM   10  N2  UNL     1      58.819  77.775  60.801  1.00  0.00    -0.374 N 
HETATM   11  C10 UNL     1      57.737  78.532  60.449  1.00  0.00     0.101 A 
ATOM     12  H2  UNL     1      59.759  78.111  60.594  1.00  0.00     0.164 HD
ENDBRANCH   4   6
BRANCH   1  13
HETATM   13  C1  UNL     1      52.378  79.796  58.395  1.00  0.00     0.294 C 
BRANCH  13  14
HETATM   14  N1  UNL     1      51.242  79.052  58.960  1.00  0.00    -0.074 N 
ATOM     15  H13 UNL     1      51.399  78.045  58.946  1.00  0.00     0.274 HD
ATOM     16  H12 UNL     1      51.167  79.176  59.970  1.00  0.00     0.274 HD
ATOM     17  H11 UNL     1      50.382  79.313  58.477  1.00  0.00     0.274 HD
ENDBRANCH  13  14
ENDBRANCH   1  13
TORSDOF 3
ENDMDL
