MODEL 11
REMARK VINA RESULT: -3.733013459      1.501      1.562
REMARK  3 active torsions:
REMARK  status: ('A' for Active; 'I' for Inactive)
REMARK    1  A    between atoms: N1_1  and  C1_5 
REMARK    2  A    between atoms: C1_5  and  C2_6 
REMARK    3  A    between atoms: C5_9  and  C6_10 
ROOT
HETATM    1  C2  UNL     1      53.327  78.061  60.068  1.00  0.00     0.079 A 
HETATM    2  C3  UNL     1      53.242  78.421  61.398  1.00  0.00     0.037 A 
HETATM    3  C4  UNL     1      54.515  78.242  61.899  1.00  0.00     0.040 A 
HETATM    4  C5  UNL     1      55.329  77.781  60.859  1.00  0.00     0.087 A 
HETATM    5  O1  UNL     1      54.541  77.704  59.816  1.00  0.00    -0.312 OA
ENDROOT
BRANCH   4   6
HETATM    6  C6  UNL     1      56.745  77.466  60.964  1.00  0.00     0.013 A 
HETATM    7  C7  UNL     1      57.227  76.327  61.559  1.00  0.00     0.017 A 
HETATM    8  C8  UNL     1      58.594  76.061  61.638  1.00  0.00     0.018 A 
HETATM    9  C9  UNL     1      59.457  76.985  61.097  1.00  0.00     0.087 A 
HETATM   10  N2  UNL     1      59.002  78.100  60.514  1.00  0.00    -0.374 N 
HETATM   11  C10 UNL     1      57.660  78.350  60.441  1.00  0.00     0.101 A 
ATOM     12  H2  UNL     1      59.663  78.770  60.121  1.00  0.00     0.164 HD
ENDBRANCH   4   6
BRANCH   1  13
HETATM   13  C1  UNL     1      52.150  78.106  59.131  1.00  0.00     0.294 C 
BRANCH  13  14
HETATM   14  N1  UNL     1      52.410  77.250  57.963  1.00  0.00    -0.074 N 
ATOM     15  H13 UNL     1      53.404  77.066  57.837  1.00  0.00     0.274 HD
ATOM     16  H12 UNL     1      52.100  76.290  58.115  1.00  0.00     0.274 HD
ATOM     17  H11 UNL     1      51.987  77.662  57.131  1.00  0.00     0.274 HD
ENDBRANCH  13  14
ENDBRANCH   1  13
TORSDOF 3
ENDMDL
