MODEL 2
REMARK VINA RESULT: -6.829259138      1.388      1.722
REMARK  3 active torsions:
REMARK  status: ('A' for Active; 'I' for Inactive)
REMARK    1  A    between atoms: N1_1  and  C1_5 
REMARK    2  A    between atoms: C1_5  and  C2_6 
REMARK    3  A    between atoms: C5_9  and  C6_10 
ROOT
HETATM    1  C2  UNL     1      53.390  78.798  59.107  1.00  0.00     0.079 A 
HETATM    2  C3  UNL     1      52.980  77.490  59.262  1.00  0.00     0.037 A 
HETATM    3  C4  UNL     1      54.075  76.830  59.780  1.00  0.00     0.040 A 
HETATM    4  C5  UNL     1      55.112  77.758  59.923  1.00  0.00     0.087 A 
HETATM    5  O1  UNL     1      54.616  78.894  59.500  1.00  0.00    -0.312 OA
ENDROOT
BRANCH   4   6
HETATM    6  C6  UNL     1      56.443  77.474  60.437  1.00  0.00     0.013 A 
HETATM    7  C7  UNL     1      56.753  76.343  61.152  1.00  0.00     0.017 A 
HETATM    8  C8  UNL     1      58.044  76.107  61.628  1.00  0.00     0.018 A 
HETATM    9  C9  UNL     1      59.007  77.050  61.358  1.00  0.00     0.087 A 
HETATM   10  N2  UNL     1      58.718  78.157  60.664  1.00  0.00    -0.374 N 
HETATM   11  C10 UNL     1      57.451  78.378  60.201  1.00  0.00     0.101 A 
ATOM     12  H2  UNL     1      59.451  78.842  60.478  1.00  0.00     0.164 HD
ENDBRANCH   4   6
BRANCH   1  13
HETATM   13  C1  UNL     1      52.494  79.878  58.562  1.00  0.00     0.294 C 
BRANCH  13  14
HETATM   14  N1  UNL     1      53.204  80.636  57.521  1.00  0.00    -0.074 N 
ATOM     15  H13 UNL     1      54.112  80.970  57.842  1.00  0.00     0.274 HD
ATOM     16  H12 UNL     1      53.527  80.036  56.762  1.00  0.00     0.274 HD
ATOM     17  H11 UNL     1      52.614  81.397  57.183  1.00  0.00     0.274 HD
ENDBRANCH  13  14
ENDBRANCH   1  13
TORSDOF 3
ENDMDL
