MODEL 6
REMARK VINA RESULT: -6.220030039      1.550      5.504
REMARK  3 active torsions:
REMARK  status: ('A' for Active; 'I' for Inactive)
REMARK    1  A    between atoms: N1_1  and  C1_5 
REMARK    2  A    between atoms: C1_5  and  C2_6 
REMARK    3  A    between atoms: C5_9  and  C6_10 
ROOT
HETATM    1  C2  UNL     1      57.218  77.031  60.999  1.00  0.00     0.079 A 
HETATM    2  C3  UNL     1      56.681  75.801  60.675  1.00  0.00     0.037 A 
HETATM    3  C4  UNL     1      55.413  76.077  60.205  1.00  0.00     0.040 A 
HETATM    4  C5  UNL     1      55.222  77.462  60.259  1.00  0.00     0.087 A 
HETATM    5  O1  UNL     1      56.341  77.943  60.741  1.00  0.00    -0.312 OA
ENDROOT
BRANCH   4   6
HETATM    6  C6  UNL     1      54.019  78.171  59.854  1.00  0.00     0.013 A 
HETATM    7  C7  UNL     1      52.904  77.546  59.352  1.00  0.00     0.017 A 
HETATM    8  C8  UNL     1      51.768  78.263  58.975  1.00  0.00     0.018 A 
HETATM    9  C9  UNL     1      51.797  79.630  59.123  1.00  0.00     0.087 A 
HETATM   10  N2  UNL     1      52.876  80.252  59.610  1.00  0.00    -0.374 N 
HETATM   11  C10 UNL     1      53.984  79.540  59.977  1.00  0.00     0.101 A 
ATOM     12  H2  UNL     1      52.873  81.267  59.709  1.00  0.00     0.164 HD
ENDBRANCH   4   6
BRANCH   1  13
HETATM   13  C1  UNL     1      58.605  77.197  61.556  1.00  0.00     0.294 C 
BRANCH  13  14
HETATM   14  N1  UNL     1      59.443  77.933  60.598  1.00  0.00    -0.074 N 
ATOM     15  H13 UNL     1      59.148  78.904  60.499  1.00  0.00     0.274 HD
ATOM     16  H12 UNL     1      60.383  78.101  60.959  1.00  0.00     0.274 HD
ATOM     17  H11 UNL     1      59.458  77.444  59.703  1.00  0.00     0.274 HD
ENDBRANCH  13  14
ENDBRANCH   1  13
TORSDOF 3
ENDMDL
