MODEL 4
REMARK VINA RESULT: -6.345766100      1.545      2.130
REMARK  3 active torsions:
REMARK  status: ('A' for Active; 'I' for Inactive)
REMARK    1  A    between atoms: N1_1  and  C1_5 
REMARK    2  A    between atoms: C1_5  and  C2_6 
REMARK    3  A    between atoms: C5_9  and  C6_10 
ROOT
HETATM    1  C2  UNL     1      53.412  78.883  59.078  1.00  0.00     0.079 A 
HETATM    2  C3  UNL     1      52.952  77.591  59.234  1.00  0.00     0.037 A 
HETATM    3  C4  UNL     1      54.020  76.891  59.757  1.00  0.00     0.040 A 
HETATM    4  C5  UNL     1      55.090  77.780  59.902  1.00  0.00     0.087 A 
HETATM    5  O1  UNL     1      54.639  78.932  59.476  1.00  0.00    -0.312 OA
ENDROOT
BRANCH   4   6
HETATM    6  C6  UNL     1      56.408  77.447  60.422  1.00  0.00     0.013 A 
HETATM    7  C7  UNL     1      57.469  78.318  60.412  1.00  0.00     0.017 A 
HETATM    8  C8  UNL     1      58.718  77.961  60.921  1.00  0.00     0.018 A 
HETATM    9  C9  UNL     1      58.857  76.695  61.439  1.00  0.00     0.087 A 
HETATM   10  N2  UNL     1      57.832  75.835  61.455  1.00  0.00    -0.374 N 
HETATM   11  C10 UNL     1      56.613  76.196  60.955  1.00  0.00     0.101 A 
ATOM     12  H2  UNL     1      57.963  74.901  61.845  1.00  0.00     0.164 HD
ENDBRANCH   4   6
BRANCH   1  13
HETATM   13  C1  UNL     1      52.560  79.994  58.528  1.00  0.00     0.294 C 
BRANCH  13  14
HETATM   14  N1  UNL     1      53.286  80.698  57.461  1.00  0.00    -0.074 N 
ATOM     15  H13 UNL     1      54.059  81.255  57.825  1.00  0.00     0.274 HD
ATOM     16  H12 UNL     1      53.827  80.058  56.878  1.00  0.00     0.274 HD
ATOM     17  H11 UNL     1      52.635  81.259  56.911  1.00  0.00     0.274 HD
ENDBRANCH  13  14
ENDBRANCH   1  13
TORSDOF 3
ENDMDL
