MODEL 9
REMARK VINA RESULT: -5.624081308      1.149      1.709
REMARK  3 active torsions:
REMARK  status: ('A' for Active; 'I' for Inactive)
REMARK    1  A    between atoms: N1_1  and  C1_5 
REMARK    2  A    between atoms: C1_5  and  C2_6 
REMARK    3  A    between atoms: C5_9  and  C6_10 
ROOT
HETATM    1  C2  UNL     1      53.443  79.013  59.571  1.00  0.00     0.079 A 
HETATM    2  C3  UNL     1      52.952  78.375  60.692  1.00  0.00     0.037 A 
HETATM    3  C4  UNL     1      54.051  77.776  61.273  1.00  0.00     0.040 A 
HETATM    4  C5  UNL     1      55.171  78.070  60.487  1.00  0.00     0.087 A 
HETATM    5  O1  UNL     1      54.715  78.806  59.504  1.00  0.00    -0.312 OA
ENDROOT
BRANCH   4   6
HETATM    6  C6  UNL     1      56.532  77.630  60.748  1.00  0.00     0.013 A 
HETATM    7  C7  UNL     1      57.637  78.416  60.529  1.00  0.00     0.017 A 
HETATM    8  C8  UNL     1      58.928  77.957  60.793  1.00  0.00     0.018 A 
HETATM    9  C9  UNL     1      59.064  76.680  61.284  1.00  0.00     0.087 A 
HETATM   10  N2  UNL     1      57.997  75.903  61.501  1.00  0.00    -0.374 N 
HETATM   11  C10 UNL     1      56.736  76.363  61.240  1.00  0.00     0.101 A 
ATOM     12  H2  UNL     1      58.125  74.958  61.864  1.00  0.00     0.164 HD
ENDBRANCH   4   6
BRANCH   1  13
HETATM   13  C1  UNL     1      52.572  79.803  58.632  1.00  0.00     0.294 C 
BRANCH  13  14
HETATM   14  N1  UNL     1      51.220  79.225  58.600  1.00  0.00    -0.074 N 
ATOM     15  H13 UNL     1      50.513  79.886  58.921  1.00  0.00     0.274 HD
ATOM     16  H12 UNL     1      50.880  79.097  57.647  1.00  0.00     0.274 HD
ATOM     17  H11 UNL     1      51.202  78.356  59.134  1.00  0.00     0.274 HD
ENDBRANCH  13  14
ENDBRANCH   1  13
TORSDOF 3
ENDMDL
