MODEL 7
REMARK VINA RESULT: -6.214847207      1.477      5.292
REMARK  3 active torsions:
REMARK  status: ('A' for Active; 'I' for Inactive)
REMARK    1  A    between atoms: N1_1  and  C1_5 
REMARK    2  A    between atoms: C1_5  and  C2_6 
REMARK    3  A    between atoms: C5_9  and  C6_10 
ROOT
HETATM    1  C2  UNL     1      57.441  78.049  60.936  1.00  0.00     0.079 A 
HETATM    2  C3  UNL     1      57.488  79.428  60.965  1.00  0.00     0.037 A 
HETATM    3  C4  UNL     1      56.237  79.839  60.553  1.00  0.00     0.040 A 
HETATM    4  C5  UNL     1      55.472  78.698  60.289  1.00  0.00     0.087 A 
HETATM    5  O1  UNL     1      56.265  77.687  60.543  1.00  0.00    -0.312 OA
ENDROOT
BRANCH   4   6
HETATM    6  C6  UNL     1      54.091  78.687  59.831  1.00  0.00     0.013 A 
HETATM    7  C7  UNL     1      53.281  79.795  59.840  1.00  0.00     0.017 A 
HETATM    8  C8  UNL     1      51.961  79.744  59.392  1.00  0.00     0.018 A 
HETATM    9  C9  UNL     1      51.488  78.536  58.935  1.00  0.00     0.087 A 
HETATM   10  N2  UNL     1      52.266  77.448  58.921  1.00  0.00    -0.374 N 
HETATM   11  C10 UNL     1      53.558  77.509  59.362  1.00  0.00     0.101 A 
ATOM     12  H2  UNL     1      51.891  76.563  58.578  1.00  0.00     0.164 HD
ENDBRANCH   4   6
BRANCH   1  13
HETATM   13  C1  UNL     1      58.609  77.181  61.316  1.00  0.00     0.294 C 
BRANCH  13  14
HETATM   14  N1  UNL     1      58.199  75.769  61.330  1.00  0.00    -0.074 N 
ATOM     15  H13 UNL     1      58.992  75.139  61.217  1.00  0.00     0.274 HD
ATOM     16  H12 UNL     1      57.899  75.466  62.257  1.00  0.00     0.274 HD
ATOM     17  H11 UNL     1      57.479  75.611  60.624  1.00  0.00     0.274 HD
ENDBRANCH  13  14
ENDBRANCH   1  13
TORSDOF 3
ENDMDL
