MODEL 5
REMARK VINA RESULT: -6.315340475      1.506      5.221
REMARK  3 active torsions:
REMARK  status: ('A' for Active; 'I' for Inactive)
REMARK    1  A    between atoms: N1_1  and  C1_5 
REMARK    2  A    between atoms: C1_5  and  C2_6 
REMARK    3  A    between atoms: C5_9  and  C6_10 
ROOT
HETATM    1  C2  UNL     1      57.430  78.015  60.925  1.00  0.00     0.079 A 
HETATM    2  C3  UNL     1      57.501  79.393  60.954  1.00  0.00     0.037 A 
HETATM    3  C4  UNL     1      56.256  79.824  60.543  1.00  0.00     0.040 A 
HETATM    4  C5  UNL     1      55.472  78.696  60.280  1.00  0.00     0.087 A 
HETATM    5  O1  UNL     1      56.248  77.673  60.533  1.00  0.00    -0.312 OA
ENDROOT
BRANCH   4   6
HETATM    6  C6  UNL     1      54.091  78.708  59.823  1.00  0.00     0.013 A 
HETATM    7  C7  UNL     1      53.424  77.585  59.398  1.00  0.00     0.017 A 
HETATM    8  C8  UNL     1      52.097  77.638  58.968  1.00  0.00     0.018 A 
HETATM    9  C9  UNL     1      51.470  78.861  58.982  1.00  0.00     0.087 A 
HETATM   10  N2  UNL     1      52.108  79.963  59.393  1.00  0.00    -0.374 N 
HETATM   11  C10 UNL     1      53.407  79.900  59.813  1.00  0.00     0.101 A 
ATOM     12  H2  UNL     1      51.620  80.859  59.392  1.00  0.00     0.164 HD
ENDBRANCH   4   6
BRANCH   1  13
HETATM   13  C1  UNL     1      58.584  77.128  61.305  1.00  0.00     0.294 C 
BRANCH  13  14
HETATM   14  N1  UNL     1      58.148  75.723  61.328  1.00  0.00    -0.074 N 
ATOM     15  H13 UNL     1      57.263  75.589  60.839  1.00  0.00     0.274 HD
ATOM     16  H12 UNL     1      58.733  75.130  60.739  1.00  0.00     0.274 HD
ATOM     17  H11 UNL     1      58.109  75.388  62.290  1.00  0.00     0.274 HD
ENDBRANCH  13  14
ENDBRANCH   1  13
TORSDOF 3
ENDMDL
