MODEL 17
REMARK VINA RESULT: -8.138213297      3.617      4.587
REMARK  5 active torsions:
REMARK  status: ('A' for Active; 'I' for Inactive)
REMARK       I    between atoms: C1_2  and  N2_4 
REMARK    1  A    between atoms: N2_4  and  C2_6 
REMARK    2  A    between atoms: C2_6  and  C3_7 
REMARK    3  A    between atoms: C7_11  and  C8_12 
REMARK    4  A    between atoms: C12_16  and  C13_17 
REMARK    5  A    between atoms: C20_28  and  O2_29 
ROOT
HETATM    1  C8  UNL     1      53.326  -8.774   8.333  1.00  0.00     0.008 A 
HETATM    2  C9  UNL     1      53.861 -10.044   8.544  1.00  0.00     0.015 A 
HETATM    3  C10 UNL     1      53.206 -10.966   9.323  1.00  0.00     0.002 A 
HETATM    4  C11 UNL     1      52.012 -10.658   9.909  1.00  0.00     0.016 A 
HETATM    5  C12 UNL     1      51.443  -9.392   9.720  1.00  0.00     0.025 A 
HETATM    6  C20 UNL     1      52.123  -8.492   8.937  1.00  0.00     0.089 A 
ENDROOT
BRANCH   1   7
HETATM    7  C7  UNL     1      54.052  -7.853   7.470  1.00  0.00    -0.023 A 
HETATM    8  C6  UNL     1      53.426  -7.285   6.378  1.00  0.00     0.012 A 
HETATM    9  C5  UNL     1      54.141  -6.401   5.584  1.00  0.00     0.001 A 
HETATM   10  C4  UNL     1      55.446  -6.100   5.880  1.00  0.00     0.009 A 
HETATM   11  C3  UNL     1      56.106  -6.646   6.958  1.00  0.00    -0.040 A 
HETATM   12  C21 UNL     1      55.381  -7.520   7.735  1.00  0.00     0.021 A 
BRANCH  11  13
HETATM   13  C2  UNL     1      57.517  -6.281   7.212  1.00  0.00     0.162 C 
BRANCH  13  14
HETATM   14  N2  UNL     1      57.993  -7.087   8.318  1.00  0.00    -0.341 N 
HETATM   15  C1  UNL     1      59.212  -7.814   8.292  1.00  0.00     0.328 C 
HETATM   16  N1  UNL     1      59.638  -8.600   9.416  1.00  0.00    -0.040 NA
HETATM   17  O1  UNL     1      59.917  -7.748   7.245  1.00  0.00    -0.251 OA
ATOM     18  H2  UNL     1      57.421  -7.135   9.162  1.00  0.00     0.164 HD
ENDBRANCH  13  14
ENDBRANCH  11  13
ENDBRANCH   1   7
BRANCH   6  19
HETATM   19  O2  UNL     1      51.583  -7.257   8.749  1.00  0.00    -0.359 OA
ATOM     20  H2  UNL     1      52.175  -6.518   8.661  1.00  0.00     0.217 HD
ENDBRANCH   6  19
BRANCH   5  21
HETATM   21  C13 UNL     1      50.169  -9.094  10.358  1.00  0.00     0.046 A 
HETATM   22  C14 UNL     1      49.380 -10.022  11.041  1.00  0.00     0.045 A 
HETATM   23  C15 UNL     1      48.236  -9.422  11.526  1.00  0.00     0.008 A 
HETATM   24  C16 UNL     1      47.147  -9.869  12.253  1.00  0.00     0.101 A 
HETATM   25  C19 UNL     1      48.329  -8.109  11.134  1.00  0.00     0.045 A 
HETATM   26  N3  UNL     1      46.168  -9.010  12.579  1.00  0.00    -0.374 N 
HETATM   27  C17 UNL     1      46.243  -7.721  12.203  1.00  0.00     0.090 A 
ATOM     28  H3  UNL     1      45.363  -9.336  13.114  1.00  0.00     0.164 HD
HETATM   29  C18 UNL     1      47.319  -7.237  11.474  1.00  0.00     0.047 A 
HETATM   30  N4  UNL     1      49.488  -7.955  10.444  1.00  0.00    -0.355 N 
ATOM     31  H4  UNL     1      49.800  -7.073  10.040  1.00  0.00     0.166 HD
ENDBRANCH   5  21
TORSDOF 5
ENDMDL
