MODEL 8
REMARK VINA RESULT: -8.719944795      5.663      8.024
REMARK  5 active torsions:
REMARK  status: ('A' for Active; 'I' for Inactive)
REMARK       I    between atoms: C1_2  and  N2_4 
REMARK    1  A    between atoms: N2_4  and  C2_6 
REMARK    2  A    between atoms: C2_6  and  C3_7 
REMARK    3  A    between atoms: C7_11  and  C8_12 
REMARK    4  A    between atoms: C12_16  and  C13_17 
REMARK    5  A    between atoms: C20_28  and  O2_29 
ROOT
HETATM    1  C8  UNL     1      53.480 -10.920  11.479  1.00  0.00     0.008 A 
HETATM    2  C9  UNL     1      53.681 -10.842  10.102  1.00  0.00     0.015 A 
HETATM    3  C10 UNL     1      52.680 -10.412   9.265  1.00  0.00     0.002 A 
HETATM    4  C11 UNL     1      51.463 -10.050   9.766  1.00  0.00     0.016 A 
HETATM    5  C12 UNL     1      51.224 -10.115  11.144  1.00  0.00     0.025 A 
HETATM    6  C20 UNL     1      52.243 -10.549  11.954  1.00  0.00     0.089 A 
ENDROOT
BRANCH   1   7
HETATM    7  C7  UNL     1      54.590 -11.352  12.317  1.00  0.00    -0.023 A 
HETATM    8  C6  UNL     1      54.931 -12.689  12.382  1.00  0.00     0.012 A 
HETATM    9  C5  UNL     1      56.001 -13.066  13.179  1.00  0.00     0.001 A 
HETATM   10  C4  UNL     1      56.704 -12.126  13.888  1.00  0.00     0.009 A 
HETATM   11  C3  UNL     1      56.396 -10.785  13.851  1.00  0.00    -0.040 A 
HETATM   12  C21 UNL     1      55.332 -10.429  13.055  1.00  0.00     0.021 A 
BRANCH  11  13
HETATM   13  C2  UNL     1      57.194  -9.829  14.648  1.00  0.00     0.162 C 
BRANCH  13  14
HETATM   14  N2  UNL     1      57.705  -8.816  13.748  1.00  0.00    -0.341 N 
HETATM   15  C1  UNL     1      58.935  -8.936  13.049  1.00  0.00     0.328 C 
HETATM   16  N1  UNL     1      59.398  -7.900  12.168  1.00  0.00    -0.040 NA
HETATM   17  O1  UNL     1      59.614  -9.987  13.224  1.00  0.00    -0.251 OA
ATOM     18  H2  UNL     1      57.151  -7.970  13.608  1.00  0.00     0.164 HD
ENDBRANCH  13  14
ENDBRANCH  11  13
ENDBRANCH   1   7
BRANCH   6  19
HETATM   19  O2  UNL     1      52.021 -10.621  13.295  1.00  0.00    -0.359 OA
ATOM     20  H2  UNL     1      51.410 -10.005  13.683  1.00  0.00     0.217 HD
ENDBRANCH   6  19
BRANCH   5  21
HETATM   21  C13 UNL     1      49.915  -9.721  11.647  1.00  0.00     0.046 A 
HETATM   22  C14 UNL     1      49.172  -8.635  11.180  1.00  0.00     0.045 A 
HETATM   23  C15 UNL     1      47.978  -8.534  11.865  1.00  0.00     0.008 A 
HETATM   24  C16 UNL     1      46.902  -7.666  11.803  1.00  0.00     0.101 A 
HETATM   25  C19 UNL     1      47.993  -9.574  12.762  1.00  0.00     0.045 A 
HETATM   26  N3  UNL     1      45.860  -7.841  12.632  1.00  0.00    -0.374 N 
HETATM   27  C17 UNL     1      45.859  -8.854  13.516  1.00  0.00     0.090 A 
ATOM     28  H3  UNL     1      45.065  -7.203  12.589  1.00  0.00     0.164 HD
HETATM   29  C18 UNL     1      46.918  -9.743  13.606  1.00  0.00     0.047 A 
HETATM   30  N4  UNL     1      49.158 -10.253  12.602  1.00  0.00    -0.355 N 
ATOM     31  H4  UNL     1      49.421 -11.073  13.148  1.00  0.00     0.166 HD
ENDBRANCH   5  21
TORSDOF 5
ENDMDL
