MODEL 7
REMARK VINA RESULT: -8.835006573      5.629      8.832
REMARK  5 active torsions:
REMARK  status: ('A' for Active; 'I' for Inactive)
REMARK       I    between atoms: C1_2  and  N2_4 
REMARK    1  A    between atoms: N2_4  and  C2_6 
REMARK    2  A    between atoms: C2_6  and  C3_7 
REMARK    3  A    between atoms: C7_11  and  C8_12 
REMARK    4  A    between atoms: C12_16  and  C13_17 
REMARK    5  A    between atoms: C20_28  and  O2_29 
ROOT
HETATM    1  C8  UNL     1      53.482 -10.901  11.494  1.00  0.00     0.008 A 
HETATM    2  C9  UNL     1      53.706 -10.768  10.124  1.00  0.00     0.015 A 
HETATM    3  C10 UNL     1      52.723 -10.295   9.291  1.00  0.00     0.002 A 
HETATM    4  C11 UNL     1      51.501  -9.942   9.786  1.00  0.00     0.016 A 
HETATM    5  C12 UNL     1      51.239 -10.062  11.157  1.00  0.00     0.025 A 
HETATM    6  C20 UNL     1      52.241 -10.539  11.964  1.00  0.00     0.089 A 
ENDROOT
BRANCH   1   7
HETATM    7  C7  UNL     1      54.574 -11.378  12.330  1.00  0.00    -0.023 A 
HETATM    8  C6  UNL     1      54.956 -12.705  12.284  1.00  0.00     0.012 A 
HETATM    9  C5  UNL     1      56.008 -13.125  13.083  1.00  0.00     0.001 A 
HETATM   10  C4  UNL     1      56.655 -12.237  13.903  1.00  0.00     0.009 A 
HETATM   11  C3  UNL     1      56.305 -10.907  13.980  1.00  0.00    -0.040 A 
HETATM   12  C21 UNL     1      55.259 -10.508  13.179  1.00  0.00     0.021 A 
BRANCH  11  13
HETATM   13  C2  UNL     1      57.043 -10.008  14.893  1.00  0.00     0.162 C 
BRANCH  13  14
HETATM   14  N2  UNL     1      57.372 -10.759  16.087  1.00  0.00    -0.341 N 
HETATM   15  C1  UNL     1      56.575 -10.753  17.262  1.00  0.00     0.328 C 
HETATM   16  N1  UNL     1      56.949 -11.515  18.421  1.00  0.00    -0.040 NA
HETATM   17  O1  UNL     1      55.521 -10.057  17.258  1.00  0.00    -0.251 OA
ATOM     18  H2  UNL     1      58.224 -11.321  16.084  1.00  0.00     0.164 HD
ENDBRANCH  13  14
ENDBRANCH  11  13
ENDBRANCH   1   7
BRANCH   6  19
HETATM   19  O2  UNL     1      51.997 -10.665  13.297  1.00  0.00    -0.359 OA
ATOM     20  H2  UNL     1      51.836 -11.535  13.644  1.00  0.00     0.217 HD
ENDBRANCH   6  19
BRANCH   5  21
HETATM   21  C13 UNL     1      49.926  -9.677  11.655  1.00  0.00     0.046 A 
HETATM   22  C14 UNL     1      49.186  -8.583  11.200  1.00  0.00     0.045 A 
HETATM   23  C15 UNL     1      47.987  -8.494  11.876  1.00  0.00     0.008 A 
HETATM   24  C16 UNL     1      46.911  -7.625  11.821  1.00  0.00     0.101 A 
HETATM   25  C19 UNL     1      47.994  -9.549  12.755  1.00  0.00     0.045 A 
HETATM   26  N3  UNL     1      45.862  -7.815  12.637  1.00  0.00    -0.374 N 
HETATM   27  C17 UNL     1      45.853  -8.843  13.503  1.00  0.00     0.090 A 
ATOM     28  H3  UNL     1      45.067  -7.176  12.598  1.00  0.00     0.164 HD
HETATM   29  C18 UNL     1      46.912  -9.733  13.587  1.00  0.00     0.047 A 
HETATM   30  N4  UNL     1      49.161 -10.225  12.593  1.00  0.00    -0.355 N 
ATOM     31  H4  UNL     1      49.418 -11.055  13.127  1.00  0.00     0.166 HD
ENDBRANCH   5  21
TORSDOF 5
ENDMDL
