MODEL 6
REMARK VINA RESULT: -8.923843263      2.734      8.860
REMARK  5 active torsions:
REMARK  status: ('A' for Active; 'I' for Inactive)
REMARK       I    between atoms: C1_2  and  N2_4 
REMARK    1  A    between atoms: N2_4  and  C2_6 
REMARK    2  A    between atoms: C2_6  and  C3_7 
REMARK    3  A    between atoms: C7_11  and  C8_12 
REMARK    4  A    between atoms: C12_16  and  C13_17 
REMARK    5  A    between atoms: C20_28  and  O2_29 
ROOT
HETATM    1  C8  UNL     1      50.965  -8.651   9.711  1.00  0.00     0.008 A 
HETATM    2  C9  UNL     1      51.501  -9.937   9.772  1.00  0.00     0.015 A 
HETATM    3  C10 UNL     1      52.696 -10.233   9.165  1.00  0.00     0.002 A 
HETATM    4  C11 UNL     1      53.389  -9.271   8.486  1.00  0.00     0.016 A 
HETATM    5  C12 UNL     1      52.881  -7.968   8.402  1.00  0.00     0.025 A 
HETATM    6  C20 UNL     1      51.684  -7.704   9.019  1.00  0.00     0.089 A 
ENDROOT
BRANCH   1   7
HETATM    7  C7  UNL     1      49.711  -8.392  10.403  1.00  0.00    -0.023 A 
HETATM    8  C6  UNL     1      48.978  -7.258  10.110  1.00  0.00     0.012 A 
HETATM    9  C5  UNL     1      47.781  -7.045  10.777  1.00  0.00     0.001 A 
HETATM   10  C4  UNL     1      47.337  -7.947  11.711  1.00  0.00     0.009 A 
HETATM   11  C3  UNL     1      48.038  -9.088  12.033  1.00  0.00    -0.040 A 
HETATM   12  C21 UNL     1      49.223  -9.282  11.360  1.00  0.00     0.021 A 
BRANCH  11  13
HETATM   13  C2  UNL     1      47.501 -10.012  13.055  1.00  0.00     0.162 C 
BRANCH  13  14
HETATM   14  N2  UNL     1      47.415  -9.289  14.308  1.00  0.00    -0.341 N 
HETATM   15  C1  UNL     1      46.195  -8.814  14.857  1.00  0.00     0.328 C 
HETATM   16  N1  UNL     1      46.166  -8.099  16.103  1.00  0.00    -0.040 NA
HETATM   17  O1  UNL     1      45.131  -9.040  14.216  1.00  0.00    -0.251 OA
ATOM     18  H2  UNL     1      48.278  -9.110  14.822  1.00  0.00     0.164 HD
ENDBRANCH  13  14
ENDBRANCH  11  13
ENDBRANCH   1   7
BRANCH   6  19
HETATM   19  O2  UNL     1      51.178  -6.443   8.942  1.00  0.00    -0.359 OA
ATOM     20  H2  UNL     1      51.486  -5.878   8.242  1.00  0.00     0.217 HD
ENDBRANCH   6  19
BRANCH   5  21
HETATM   21  C13 UNL     1      53.643  -6.966   7.671  1.00  0.00     0.046 A 
HETATM   22  C14 UNL     1      54.974  -7.107   7.271  1.00  0.00     0.045 A 
HETATM   23  C15 UNL     1      55.400  -5.979   6.600  1.00  0.00     0.008 A 
HETATM   24  C16 UNL     1      56.593  -5.602   6.009  1.00  0.00     0.101 A 
HETATM   25  C19 UNL     1      54.314  -5.138   6.591  1.00  0.00     0.045 A 
HETATM   26  N3  UNL     1      56.691  -4.400   5.419  1.00  0.00    -0.374 N 
HETATM   27  C17 UNL     1      55.637  -3.565   5.401  1.00  0.00     0.090 A 
ATOM     28  H3  UNL     1      57.569  -4.119   4.982  1.00  0.00     0.164 HD
HETATM   29  C18 UNL     1      54.426  -3.908   5.982  1.00  0.00     0.047 A 
HETATM   30  N4  UNL     1      53.293  -5.760   7.236  1.00  0.00    -0.355 N 
ATOM     31  H4  UNL     1      52.369  -5.350   7.370  1.00  0.00     0.166 HD
ENDBRANCH   5  21
TORSDOF 5
ENDMDL
