MODEL 3
REMARK VINA RESULT: -9.718255892      3.058      4.038
REMARK  5 active torsions:
REMARK  status: ('A' for Active; 'I' for Inactive)
REMARK       I    between atoms: C1_2  and  N2_4 
REMARK    1  A    between atoms: N2_4  and  C2_6 
REMARK    2  A    between atoms: C2_6  and  C3_7 
REMARK    3  A    between atoms: C7_11  and  C8_12 
REMARK    4  A    between atoms: C12_16  and  C13_17 
REMARK    5  A    between atoms: C20_28  and  O2_29 
ROOT
HETATM    1  C8  UNL     1      53.094  -7.274   7.990  1.00  0.00     0.008 A 
HETATM    2  C9  UNL     1      53.843  -8.449   7.946  1.00  0.00     0.015 A 
HETATM    3  C10 UNL     1      53.416  -9.583   8.594  1.00  0.00     0.002 A 
HETATM    4  C11 UNL     1      52.246  -9.584   9.297  1.00  0.00     0.016 A 
HETATM    5  C12 UNL     1      51.467  -8.422   9.364  1.00  0.00     0.025 A 
HETATM    6  C20 UNL     1      51.919  -7.305   8.708  1.00  0.00     0.089 A 
ENDROOT
BRANCH   1   7
HETATM    7  C7  UNL     1      53.581  -6.116   7.256  1.00  0.00    -0.023 A 
HETATM    8  C6  UNL     1      52.749  -5.449   6.379  1.00  0.00     0.012 A 
HETATM    9  C5  UNL     1      53.239  -4.341   5.704  1.00  0.00     0.001 A 
HETATM   10  C4  UNL     1      54.528  -3.919   5.907  1.00  0.00     0.009 A 
HETATM   11  C3  UNL     1      55.390  -4.557   6.772  1.00  0.00    -0.040 A 
HETATM   12  C21 UNL     1      54.886  -5.653   7.432  1.00  0.00     0.021 A 
BRANCH  11  13
HETATM   13  C2  UNL     1      56.770  -4.050   6.935  1.00  0.00     0.162 C 
BRANCH  13  14
HETATM   14  N2  UNL     1      57.241  -4.453   8.244  1.00  0.00    -0.341 N 
HETATM   15  C1  UNL     1      58.144  -5.528   8.456  1.00  0.00     0.328 C 
HETATM   16  N1  UNL     1      58.578  -5.889   9.777  1.00  0.00    -0.040 NA
HETATM   17  O1  UNL     1      58.558  -6.160   7.443  1.00  0.00    -0.251 OA
ATOM     18  H2  UNL     1      56.905  -3.937   9.058  1.00  0.00     0.164 HD
ENDBRANCH  13  14
ENDBRANCH  11  13
ENDBRANCH   1   7
BRANCH   6  19
HETATM   19  O2  UNL     1      51.174  -6.168   8.769  1.00  0.00    -0.359 OA
ATOM     20  H2  UNL     1      51.583  -5.382   9.110  1.00  0.00     0.217 HD
ENDBRANCH   6  19
BRANCH   5  21
HETATM   21  C13 UNL     1      50.224  -8.456  10.121  1.00  0.00     0.046 A 
HETATM   22  C14 UNL     1      49.712  -9.582  10.770  1.00  0.00     0.045 A 
HETATM   23  C15 UNL     1      48.519  -9.281  11.395  1.00  0.00     0.008 A 
HETATM   24  C16 UNL     1      47.619 -10.007  12.155  1.00  0.00     0.101 A 
HETATM   25  C19 UNL     1      48.300  -7.952  11.124  1.00  0.00     0.045 A 
HETATM   26  N3  UNL     1      46.518  -9.406  12.634  1.00  0.00    -0.374 N 
HETATM   27  C17 UNL     1      46.288  -8.105  12.378  1.00  0.00     0.090 A 
ATOM     28  H3  UNL     1      45.852  -9.938  13.194  1.00  0.00     0.164 HD
HETATM   29  C18 UNL     1      47.167  -7.347  11.620  1.00  0.00     0.047 A 
HETATM   30  N4  UNL     1      49.333  -7.500  10.366  1.00  0.00    -0.355 N 
ATOM     31  H4  UNL     1      49.415  -6.542  10.027  1.00  0.00     0.166 HD
ENDBRANCH   5  21
TORSDOF 5
ENDMDL
