MODEL 3
REMARK VINA RESULT: -8.918510204      1.570      2.386
REMARK  4 active torsions:
REMARK  status: ('A' for Active; 'I' for Inactive)
REMARK    1  A    between atoms: C7_7  and  C8_8 
REMARK    2  A    between atoms: C11_11  and  O1_12 
REMARK    3  A    between atoms: O1_12  and  C12_13 
REMARK    4  A    between atoms: C18_21  and  O2_22 
ROOT
HETATM    1  C8  UNL     1      48.077  91.705  36.876  1.00  0.00    -0.023 A 
HETATM    2  C9  UNL     1      48.673  90.800  36.022  1.00  0.00     0.015 A 
HETATM    3  C10 UNL     1      49.161  89.623  36.514  1.00  0.00     0.041 A 
HETATM    4  C11 UNL     1      49.078  89.285  37.902  1.00  0.00     0.109 A 
HETATM    5  C18 UNL     1      48.486  90.189  38.737  1.00  0.00     0.100 A 
HETATM    6  C19 UNL     1      47.998  91.380  38.206  1.00  0.00     0.051 A 
ENDROOT
BRANCH   4   7
HETATM    7  O1  UNL     1      49.578  88.150  38.225  1.00  0.00    -0.306 OA
BRANCH   7   8
HETATM    8  C12 UNL     1      50.073  87.026  38.543  1.00  0.00     0.098 A 
HETATM    9  C13 UNL     1      50.896  86.376  37.547  1.00  0.00     0.041 A 
HETATM   10  C14 UNL     1      51.470  85.170  37.790  1.00  0.00     0.026 A 
HETATM   11  C15 UNL     1      51.296  84.518  38.988  1.00  0.00     0.035 A 
HETATM   12 CL1  UNL     1      52.061  82.968  39.246  1.00  0.00    -0.084 Cl
HETATM   13  C16 UNL     1      50.532  85.090  39.955  1.00  0.00     0.050 A 
HETATM   14  C17 UNL     1      49.934  86.331  39.717  1.00  0.00     0.069 A 
HETATM   15 CL2  UNL     1      48.971  86.981  41.005  1.00  0.00    -0.081 Cl
ENDBRANCH   7   8
ENDBRANCH   4   7
BRANCH   5  16
HETATM   16  O2  UNL     1      48.349  89.965  40.121  1.00  0.00    -0.358 OA
ATOM     17  H2  UNL     1      49.088  89.992  40.718  1.00  0.00     0.217 HD
ENDBRANCH   5  16
BRANCH   1  18
HETATM   18  C7  UNL     1      47.552  92.964  36.356  1.00  0.00    -0.020 A 
HETATM   19  C2  UNL     1      46.320  93.105  35.789  1.00  0.00    -0.051 A 
HETATM   20  C1  UNL     1      45.429  91.927  35.706  1.00  0.00     0.049 C 
HETATM   21  C3  UNL     1      45.894  94.329  35.305  1.00  0.00     0.007 A 
HETATM   22  C4  UNL     1      46.724  95.423  35.395  1.00  0.00     0.001 A 
HETATM   23  C5  UNL     1      47.967  95.311  35.959  1.00  0.00     0.001 A 
HETATM   24  C6  UNL     1      48.367  94.093  36.432  1.00  0.00     0.013 A 
ENDBRANCH   1  18
TORSDOF 4
ENDMDL
