MODEL 2
REMARK VINA RESULT: -9.003943157      0.863      1.557
REMARK  4 active torsions:
REMARK  status: ('A' for Active; 'I' for Inactive)
REMARK    1  A    between atoms: C7_7  and  C8_8 
REMARK    2  A    between atoms: C11_11  and  O1_12 
REMARK    3  A    between atoms: O1_12  and  C12_13 
REMARK    4  A    between atoms: C18_21  and  O2_22 
ROOT
HETATM    1  C8  UNL     1      48.034  89.945  37.132  1.00  0.00    -0.023 A 
HETATM    2  C9  UNL     1      47.987  89.652  38.480  1.00  0.00     0.015 A 
HETATM    3  C10 UNL     1      48.765  88.649  38.983  1.00  0.00     0.041 A 
HETATM    4  C11 UNL     1      49.640  87.875  38.156  1.00  0.00     0.109 A 
HETATM    5  C18 UNL     1      49.677  88.175  36.825  1.00  0.00     0.100 A 
HETATM    6  C19 UNL     1      48.873  89.204  36.341  1.00  0.00     0.051 A 
ENDROOT
BRANCH   4   7
HETATM    7  O1  UNL     1      50.309  86.965  38.761  1.00  0.00    -0.306 OA
BRANCH   7   8
HETATM    8  C12 UNL     1      50.973  86.065  39.359  1.00  0.00     0.098 A 
HETATM    9  C13 UNL     1      50.684  84.696  38.990  1.00  0.00     0.041 A 
HETATM   10  C14 UNL     1      51.339  83.660  39.573  1.00  0.00     0.026 A 
HETATM   11  C15 UNL     1      52.303  83.864  40.533  1.00  0.00     0.035 A 
HETATM   12 CL1  UNL     1      53.114  82.492  41.247  1.00  0.00    -0.084 Cl
HETATM   13  C16 UNL     1      52.608  85.133  40.911  1.00  0.00     0.050 A 
HETATM   14  C17 UNL     1      51.940  86.209  40.320  1.00  0.00     0.069 A 
HETATM   15 CL2  UNL     1      52.392  87.791  40.869  1.00  0.00    -0.081 Cl
ENDBRANCH   7   8
ENDBRANCH   4   7
BRANCH   5  16
HETATM   16  O2  UNL     1      50.499  87.482  35.915  1.00  0.00    -0.358 OA
ATOM     17  H2  UNL     1      51.445  87.564  35.917  1.00  0.00     0.217 HD
ENDBRANCH   5  16
BRANCH   1  18
HETATM   18  C7  UNL     1      47.206  91.018  36.589  1.00  0.00    -0.020 A 
HETATM   19  C2  UNL     1      47.604  92.318  36.489  1.00  0.00    -0.051 A 
HETATM   20  C1  UNL     1      48.966  92.688  36.933  1.00  0.00     0.049 C 
HETATM   21  C3  UNL     1      46.759  93.285  35.975  1.00  0.00     0.007 A 
HETATM   22  C4  UNL     1      45.497  92.932  35.556  1.00  0.00     0.001 A 
HETATM   23  C5  UNL     1      45.070  91.634  35.642  1.00  0.00     0.001 A 
HETATM   24  C6  UNL     1      45.920  90.695  36.154  1.00  0.00     0.013 A 
ENDBRANCH   1  18
TORSDOF 4
ENDMDL
