MODEL 1
REMARK VINA RESULT: -9.145986231      0.000      0.000
REMARK  4 active torsions:
REMARK  status: ('A' for Active; 'I' for Inactive)
REMARK    1  A    between atoms: C7_7  and  C8_8 
REMARK    2  A    between atoms: C11_11  and  O1_12 
REMARK    3  A    between atoms: O1_12  and  C12_13 
REMARK    4  A    between atoms: C18_21  and  O2_22 
ROOT
HETATM    1  C8  UNL     1      47.730  90.089  37.337  1.00  0.00    -0.023 A 
HETATM    2  C9  UNL     1      48.898  89.604  36.786  1.00  0.00     0.015 A 
HETATM    3  C10 UNL     1      49.601  88.628  37.434  1.00  0.00     0.041 A 
HETATM    4  C11 UNL     1      49.167  88.079  38.682  1.00  0.00     0.109 A 
HETATM    5  C18 UNL     1      48.010  88.567  39.218  1.00  0.00     0.100 A 
HETATM    6  C19 UNL     1      47.316  89.562  38.533  1.00  0.00     0.051 A 
ENDROOT
BRANCH   4   7
HETATM    7  O1  UNL     1      49.924  87.172  39.178  1.00  0.00    -0.306 OA
BRANCH   7   8
HETATM    8  C12 UNL     1      50.673  86.273  39.668  1.00  0.00     0.098 A 
HETATM    9  C13 UNL     1      50.475  84.927  39.178  1.00  0.00     0.041 A 
HETATM   10  C14 UNL     1      51.226  83.895  39.640  1.00  0.00     0.026 A 
HETATM   11  C15 UNL     1      52.204  84.083  40.590  1.00  0.00     0.035 A 
HETATM   12 CL1  UNL     1      53.140  82.718  41.147  1.00  0.00    -0.084 Cl
HETATM   13  C16 UNL     1      52.426  85.330  41.080  1.00  0.00     0.050 A 
HETATM   14  C17 UNL     1      51.659  86.402  40.613  1.00  0.00     0.069 A 
HETATM   15 CL2  UNL     1      52.009  87.956  41.299  1.00  0.00    -0.081 Cl
ENDBRANCH   7   8
ENDBRANCH   4   7
BRANCH   5  16
HETATM   16  O2  UNL     1      47.487  88.104  40.440  1.00  0.00    -0.358 OA
ATOM     17  H2  UNL     1      47.913  88.269  41.273  1.00  0.00     0.217 HD
ENDBRANCH   5  16
BRANCH   1  18
HETATM   18  C7  UNL     1      46.974  91.130  36.649  1.00  0.00    -0.020 A 
HETATM   19  C2  UNL     1      47.337  92.444  36.610  1.00  0.00    -0.051 A 
HETATM   20  C1  UNL     1      48.587  92.862  37.283  1.00  0.00     0.049 C 
HETATM   21  C3  UNL     1      46.563  93.379  35.949  1.00  0.00     0.007 A 
HETATM   22  C4  UNL     1      45.406  92.981  35.318  1.00  0.00     0.001 A 
HETATM   23  C5  UNL     1      45.016  91.668  35.338  1.00  0.00     0.001 A 
HETATM   24  C6  UNL     1      45.796  90.761  35.998  1.00  0.00     0.013 A 
ENDBRANCH   1  18
TORSDOF 4
ENDMDL
