MODEL 1
REMARK VINA RESULT: -5.564924976      0.000      0.000
REMARK  0 active torsions:
REMARK  status: ('A' for Active; 'I' for Inactive)
ROOT
HETATM    1  N1  UNL     1      34.164  22.383  83.254  1.00  0.00    -0.063 NA
HETATM    2  C1  UNL     1      32.849  22.073  83.719  1.00  0.00     0.193 A 
HETATM    3  N2  UNL     1      32.005  22.888  84.371  1.00  0.00    -0.329 N 
ATOM      4  H2  UNL     1      32.204  23.856  84.622  1.00  0.00     0.168 HD
HETATM    5  C2  UNL     1      30.849  22.238  84.648  1.00  0.00     0.061 A 
HETATM    6  C3  UNL     1      29.670  22.563  85.274  1.00  0.00     0.032 A 
HETATM    7  C4  UNL     1      28.619  21.661  85.418  1.00  0.00     0.002 A 
HETATM    8  C5  UNL     1      28.784  20.391  84.903  1.00  0.00     0.002 A 
HETATM    9  C6  UNL     1      29.949  20.027  84.267  1.00  0.00     0.032 A 
HETATM   10  C7  UNL     1      30.981  20.960  84.143  1.00  0.00     0.061 A 
HETATM   11  N3  UNL     1      32.211  20.900  83.586  1.00  0.00    -0.329 N 
ATOM     12  H3  UNL     1      32.600  20.076  83.128  1.00  0.00     0.168 HD
ENDROOT
TORSDOF 0
ENDMDL
