MODEL 12
REMARK VINA RESULT: -4.605514323      4.498      5.380
REMARK  0 active torsions:
REMARK  status: ('A' for Active; 'I' for Inactive)
ROOT
HETATM    1  N1  UNL     1      28.287  21.114  85.362  1.00  0.00    -0.063 NA
HETATM    2  C1  UNL     1      27.708  20.941  84.068  1.00  0.00     0.193 A 
HETATM    3  N2  UNL     1      26.468  21.279  83.681  1.00  0.00    -0.329 N 
ATOM      4  H2  UNL     1      25.766  21.713  84.281  1.00  0.00     0.168 HD
HETATM    5  C2  UNL     1      26.282  20.960  82.377  1.00  0.00     0.061 A 
HETATM    6  C3  UNL     1      25.247  21.073  81.481  1.00  0.00     0.032 A 
HETATM    7  C4  UNL     1      25.344  20.645  80.159  1.00  0.00     0.002 A 
HETATM    8  C5  UNL     1      26.538  20.087  79.748  1.00  0.00     0.002 A 
HETATM    9  C6  UNL     1      27.599  19.957  80.615  1.00  0.00     0.032 A 
HETATM   10  C7  UNL     1      27.462  20.399  81.934  1.00  0.00     0.061 A 
HETATM   11  N3  UNL     1      28.303  20.405  82.991  1.00  0.00    -0.329 N 
ATOM     12  H3  UNL     1      29.260  20.051  82.973  1.00  0.00     0.168 HD
ENDROOT
TORSDOF 0
ENDMDL
