MODEL 14
REMARK VINA RESULT: -4.269806759      4.809      5.567
REMARK  0 active torsions:
REMARK  status: ('A' for Active; 'I' for Inactive)
ROOT
HETATM    1  N1  UNL     1      29.871  19.976  82.865  1.00  0.00    -0.063 NA
HETATM    2  C1  UNL     1      28.594  20.158  82.252  1.00  0.00     0.193 A 
HETATM    3  N2  UNL     1      27.475  20.624  82.827  1.00  0.00    -0.329 N 
ATOM      4  H2  UNL     1      27.397  20.915  83.802  1.00  0.00     0.168 HD
HETATM    5  C2  UNL     1      26.464  20.654  81.926  1.00  0.00     0.061 A 
HETATM    6  C3  UNL     1      25.142  21.026  81.952  1.00  0.00     0.032 A 
HETATM    7  C4  UNL     1      24.314  20.946  80.835  1.00  0.00     0.002 A 
HETATM    8  C5  UNL     1      24.861  20.472  79.660  1.00  0.00     0.002 A 
HETATM    9  C6  UNL     1      26.181  20.090  79.592  1.00  0.00     0.032 A 
HETATM   10  C7  UNL     1      26.979  20.185  80.735  1.00  0.00     0.061 A 
HETATM   11  N3  UNL     1      28.277  19.894  80.974  1.00  0.00    -0.329 N 
ATOM     12  H3  UNL     1      28.927  19.525  80.280  1.00  0.00     0.168 HD
ENDROOT
TORSDOF 0
ENDMDL
