MODEL 10
REMARK VINA RESULT: -4.624312003      4.459      5.509
REMARK  0 active torsions:
REMARK  status: ('A' for Active; 'I' for Inactive)
ROOT
HETATM    1  N1  UNL     1      28.309  21.147  85.391  1.00  0.00    -0.063 NA
HETATM    2  C1  UNL     1      27.756  20.952  84.088  1.00  0.00     0.193 A 
HETATM    3  N2  UNL     1      28.364  20.414  83.019  1.00  0.00    -0.329 N 
ATOM      4  H2  UNL     1      29.324  20.068  83.006  1.00  0.00     0.168 HD
HETATM    5  C2  UNL     1      27.519  20.396  81.961  1.00  0.00     0.061 A 
HETATM    6  C3  UNL     1      27.595  19.976  80.656  1.00  0.00     0.032 A 
HETATM    7  C4  UNL     1      26.531  20.085  79.764  1.00  0.00     0.002 A 
HETATM    8  C5  UNL     1      25.357  20.643  80.228  1.00  0.00     0.002 A 
HETATM    9  C6  UNL     1      25.239  21.076  81.529  1.00  0.00     0.032 A 
HETATM   10  C7  UNL     1      26.330  20.948  82.393  1.00  0.00     0.061 A 
HETATM   11  N3  UNL     1      26.515  21.273  83.691  1.00  0.00    -0.329 N 
ATOM     12  H3  UNL     1      25.808  21.703  84.288  1.00  0.00     0.168 HD
ENDROOT
TORSDOF 0
ENDMDL
