MODEL 4
REMARK VINA RESULT: -5.539906088      0.059      1.786
REMARK  0 active torsions:
REMARK  status: ('A' for Active; 'I' for Inactive)
ROOT
HETATM    1  N1  UNL     1      34.144  22.381  83.293  1.00  0.00    -0.063 NA
HETATM    2  C1  UNL     1      32.827  22.052  83.737  1.00  0.00     0.193 A 
HETATM    3  N2  UNL     1      32.200  20.871  83.618  1.00  0.00    -0.329 N 
ATOM      4  H2  UNL     1      32.599  20.040  83.182  1.00  0.00     0.168 HD
HETATM    5  C2  UNL     1      30.961  20.944  84.160  1.00  0.00     0.061 A 
HETATM    6  C3  UNL     1      29.911  20.072  84.319  1.00  0.00     0.032 A 
HETATM    7  C4  UNL     1      28.716  20.435  84.937  1.00  0.00     0.002 A 
HETATM    8  C5  UNL     1      28.600  21.728  85.404  1.00  0.00     0.002 A 
HETATM    9  C6  UNL     1      29.629  22.631  85.265  1.00  0.00     0.032 A 
HETATM   10  C7  UNL     1      30.811  22.228  84.640  1.00  0.00     0.061 A 
HETATM   11  N3  UNL     1      31.968  22.871  84.363  1.00  0.00    -0.329 N 
ATOM     12  H3  UNL     1      32.160  23.845  84.598  1.00  0.00     0.168 HD
ENDROOT
TORSDOF 0
ENDMDL
