MODEL 9
REMARK VINA RESULT: -4.801646700      1.419      2.303
REMARK  0 active torsions:
REMARK  status: ('A' for Active; 'I' for Inactive)
ROOT
HETATM    1  N1  UNL     1      33.187  22.187  84.808  1.00  0.00    -0.063 NA
HETATM    2  C1  UNL     1      31.857  21.789  84.474  1.00  0.00     0.193 A 
HETATM    3  N2  UNL     1      31.484  20.900  83.540  1.00  0.00    -0.329 N 
ATOM      4  H2  UNL     1      32.125  20.384  82.936  1.00  0.00     0.168 HD
HETATM    5  C2  UNL     1      30.135  20.786  83.515  1.00  0.00     0.061 A 
HETATM    6  C3  UNL     1      29.229  20.052  82.788  1.00  0.00     0.032 A 
HETATM    7  C4  UNL     1      27.853  20.142  82.986  1.00  0.00     0.002 A 
HETATM    8  C5  UNL     1      27.397  21.010  83.957  1.00  0.00     0.002 A 
HETATM    9  C6  UNL     1      28.272  21.763  84.707  1.00  0.00     0.032 A 
HETATM   10  C7  UNL     1      29.645  21.643  84.479  1.00  0.00     0.061 A 
HETATM   11  N3  UNL     1      30.724  22.235  85.040  1.00  0.00    -0.329 N 
ATOM     12  H3  UNL     1      30.682  22.925  85.790  1.00  0.00     0.168 HD
ENDROOT
TORSDOF 0
ENDMDL
