MODEL 5
REMARK VINA RESULT: -6.741765539      2.748      5.622
REMARK  5 active torsions:
REMARK  status: ('A' for Active; 'I' for Inactive)
REMARK    1  A    between atoms: N4_13  and  C6_14 
REMARK    2  A    between atoms: C7_16  and  C8_17 
REMARK    3  A    between atoms: C8_17  and  O3_18 
REMARK    4  A    between atoms: C9_20  and  O4_21 
REMARK    5  A    between atoms: C10_23  and  O5_24 
ROOT
HETATM    1  O1  UNL     1      32.378  62.832  12.620  1.00  0.00    -0.266 OA
HETATM    2  C1  UNL     1      33.017  61.772  12.464  1.00  0.00     0.277 A 
HETATM    3  N1  UNL     1      33.061  60.815  13.420  1.00  0.00    -0.318 N 
ATOM      4  H1  UNL     1      32.558  60.964  14.294  1.00  0.00     0.169 HD
HETATM    5  C2  UNL     1      33.753  59.670  13.249  1.00  0.00     0.185 A 
HETATM    6  N2  UNL     1      34.419  59.469  12.096  1.00  0.00    -0.336 N 
ATOM      7  H2  UNL     1      34.940  58.600  11.975  1.00  0.00     0.168 HD
HETATM    8  C3  UNL     1      34.422  60.373  11.098  1.00  0.00     0.144 A 
HETATM    9  C4  UNL     1      33.708  61.544  11.289  1.00  0.00     0.146 A 
HETATM   10  N3  UNL     1      33.867  62.268  10.166  1.00  0.00    -0.345 N 
ATOM     11  H3  UNL     1      33.467  63.189   9.985  1.00  0.00     0.167 HD
HETATM   12  C5  UNL     1      34.652  61.563   9.319  1.00  0.00     0.188 A 
HETATM   13  N4  UNL     1      35.007  60.392   9.868  1.00  0.00    -0.297 N 
ENDROOT
BRANCH  13  14
HETATM   14  C6  UNL     1      35.838  59.333   9.316  1.00  0.00     0.262 C 
HETATM   15  O2  UNL     1      36.420  59.743   8.148  1.00  0.00    -0.353 OA
HETATM   16  C7  UNL     1      36.137  58.835   7.156  1.00  0.00     0.179 C 
HETATM   17  C9  UNL     1      34.746  58.363   7.522  1.00  0.00     0.182 C 
HETATM   18  C10 UNL     1      34.956  58.143   9.006  1.00  0.00     0.198 C 
BRANCH  16  19
HETATM   19  C8  UNL     1      36.180  59.434   5.772  1.00  0.00     0.198 C 
BRANCH  19  20
HETATM   20  O3  UNL     1      35.690  60.733   5.871  1.00  0.00    -0.398 OA
ATOM     21  H3  UNL     1      36.189  61.170   6.551  1.00  0.00     0.209 HD
ENDBRANCH  19  20
ENDBRANCH  16  19
BRANCH  17  22
HETATM   22  O4  UNL     1      34.389  57.204   6.859  1.00  0.00    -0.390 OA
ATOM     23  H4  UNL     1      35.087  56.871   6.308  1.00  0.00     0.210 HD
ENDBRANCH  17  22
BRANCH  18  24
HETATM   24  O5  UNL     1      35.694  56.990   9.168  1.00  0.00    -0.388 OA
ATOM     25  H5  UNL     1      35.122  56.241   9.047  1.00  0.00     0.210 HD
ENDBRANCH  18  24
ENDBRANCH  13  14
TORSDOF 5
ENDMDL
