MODEL 3
REMARK VINA RESULT: -7.173628479      3.444      5.177
REMARK  5 active torsions:
REMARK  status: ('A' for Active; 'I' for Inactive)
REMARK    1  A    between atoms: N4_13  and  C6_14 
REMARK    2  A    between atoms: C7_16  and  C8_17 
REMARK    3  A    between atoms: C8_17  and  O3_18 
REMARK    4  A    between atoms: C9_20  and  O4_21 
REMARK    5  A    between atoms: C10_23  and  O5_24 
ROOT
HETATM    1  O1  UNL     1      33.639  63.543  10.454  1.00  0.00    -0.266 OA
HETATM    2  C1  UNL     1      34.317  62.934   9.602  1.00  0.00     0.277 A 
HETATM    3  N1  UNL     1      34.902  63.573   8.563  1.00  0.00    -0.318 N 
ATOM      4  H1  UNL     1      34.785  64.582   8.472  1.00  0.00     0.169 HD
HETATM    5  C2  UNL     1      35.635  62.913   7.643  1.00  0.00     0.185 A 
HETATM    6  N2  UNL     1      35.792  61.580   7.759  1.00  0.00    -0.336 N 
ATOM      7  H2  UNL     1      36.348  61.088   7.059  1.00  0.00     0.168 HD
HETATM    8  C3  UNL     1      35.242  60.875   8.766  1.00  0.00     0.144 A 
HETATM    9  C4  UNL     1      34.492  61.567   9.702  1.00  0.00     0.146 A 
HETATM   10  N3  UNL     1      34.060  60.651  10.588  1.00  0.00    -0.345 N 
ATOM     11  H3  UNL     1      33.478  60.837  11.406  1.00  0.00     0.167 HD
HETATM   12  C5  UNL     1      34.530  59.442  10.206  1.00  0.00     0.188 A 
HETATM   13  N4  UNL     1      35.261  59.551   9.087  1.00  0.00    -0.297 N 
ENDROOT
BRANCH  13  14
HETATM   14  C6  UNL     1      35.949  58.514   8.334  1.00  0.00     0.262 C 
HETATM   15  O2  UNL     1      35.474  58.462   7.051  1.00  0.00    -0.353 OA
HETATM   16  C7  UNL     1      35.076  57.178   6.764  1.00  0.00     0.179 C 
HETATM   17  C9  UNL     1      34.547  56.688   8.096  1.00  0.00     0.182 C 
HETATM   18  C10 UNL     1      35.668  57.178   8.989  1.00  0.00     0.198 C 
BRANCH  16  19
HETATM   19  C8  UNL     1      34.027  57.109   5.683  1.00  0.00     0.198 C 
BRANCH  19  20
HETATM   20  O3  UNL     1      32.821  56.789   6.301  1.00  0.00    -0.398 OA
ATOM     21  H3  UNL     1      32.426  57.605   6.585  1.00  0.00     0.209 HD
ENDBRANCH  19  20
ENDBRANCH  16  19
BRANCH  17  22
HETATM   22  O4  UNL     1      34.401  55.314   8.133  1.00  0.00    -0.390 OA
ATOM     23  H4  UNL     1      34.787  54.929   8.911  1.00  0.00     0.210 HD
ENDBRANCH  17  22
BRANCH  18  24
HETATM   24  O5  UNL     1      36.757  56.354   8.800  1.00  0.00    -0.388 OA
ATOM     25  H5  UNL     1      36.580  55.515   9.209  1.00  0.00     0.210 HD
ENDBRANCH  18  24
ENDBRANCH  13  14
TORSDOF 5
ENDMDL
