MODEL 4
REMARK VINA RESULT: -6.844726887      2.722      5.309
REMARK  5 active torsions:
REMARK  status: ('A' for Active; 'I' for Inactive)
REMARK    1  A    between atoms: N4_13  and  C6_14 
REMARK    2  A    between atoms: C7_16  and  C8_17 
REMARK    3  A    between atoms: C8_17  and  O3_18 
REMARK    4  A    between atoms: C9_20  and  O4_21 
REMARK    5  A    between atoms: C10_23  and  O5_24 
ROOT
HETATM    1  O1  UNL     1      32.593  63.103  11.821  1.00  0.00    -0.266 OA
HETATM    2  C1  UNL     1      33.391  62.781  10.918  1.00  0.00     0.277 A 
HETATM    3  N1  UNL     1      33.807  63.664   9.982  1.00  0.00    -0.318 N 
ATOM      4  H1  UNL     1      33.459  64.622  10.015  1.00  0.00     0.169 HD
HETATM    5  C2  UNL     1      34.670  63.314   9.006  1.00  0.00     0.185 A 
HETATM    6  N2  UNL     1      35.134  62.051   8.959  1.00  0.00    -0.336 N 
ATOM      7  H2  UNL     1      35.786  61.794   8.218  1.00  0.00     0.168 HD
HETATM    8  C3  UNL     1      34.767  61.115   9.856  1.00  0.00     0.144 A 
HETATM    9  C4  UNL     1      33.879  61.490  10.851  1.00  0.00     0.146 A 
HETATM   10  N3  UNL     1      33.675  60.394  11.604  1.00  0.00    -0.345 N 
ATOM     11  H3  UNL     1      33.070  60.334  12.423  1.00  0.00     0.167 HD
HETATM   12  C5  UNL     1      34.413  59.385  11.087  1.00  0.00     0.188 A 
HETATM   13  N4  UNL     1      35.095  59.801  10.010  1.00  0.00    -0.297 N 
ENDROOT
BRANCH  13  14
HETATM   14  C6  UNL     1      36.002  59.056   9.151  1.00  0.00     0.262 C 
HETATM   15  O2  UNL     1      36.276  59.767   8.015  1.00  0.00    -0.353 OA
HETATM   16  C7  UNL     1      36.001  58.991   6.914  1.00  0.00     0.179 C 
HETATM   17  C9  UNL     1      34.814  58.170   7.374  1.00  0.00     0.182 C 
HETATM   18  C10 UNL     1      35.324  57.765   8.742  1.00  0.00     0.198 C 
BRANCH  16  19
HETATM   19  C8  UNL     1      35.680  59.800   5.682  1.00  0.00     0.198 C 
BRANCH  19  20
HETATM   20  O3  UNL     1      35.696  61.141   6.055  1.00  0.00    -0.398 OA
ATOM     21  H3  UNL     1      36.468  61.273   6.593  1.00  0.00     0.209 HD
ENDBRANCH  19  20
ENDBRANCH  16  19
BRANCH  17  22
HETATM   22  O4  UNL     1      34.575  57.083   6.555  1.00  0.00    -0.390 OA
ATOM     23  H4  UNL     1      34.563  57.317   5.634  1.00  0.00     0.210 HD
ENDBRANCH  17  22
BRANCH  18  24
HETATM   24  O5  UNL     1      36.288  56.795   8.570  1.00  0.00    -0.388 OA
ATOM     25  H5  UNL     1      37.025  56.992   9.136  1.00  0.00     0.210 HD
ENDBRANCH  18  24
ENDBRANCH  13  14
TORSDOF 5
ENDMDL
