MODEL 1
REMARK VINA RESULT: -8.880729766      0.000      0.000
REMARK  5 active torsions:
REMARK  status: ('A' for Active; 'I' for Inactive)
REMARK    1  A    between atoms: N4_13  and  C6_14 
REMARK    2  A    between atoms: C7_16  and  C8_17 
REMARK    3  A    between atoms: C8_17  and  O3_18 
REMARK    4  A    between atoms: C9_20  and  O4_21 
REMARK    5  A    between atoms: C10_23  and  O5_24 
ROOT
HETATM    1  O1  UNL     1      35.956  64.227   7.541  1.00  0.00    -0.266 OA
HETATM    2  C1  UNL     1      35.777  63.053   7.923  1.00  0.00     0.277 A 
HETATM    3  N1  UNL     1      36.404  62.006   7.340  1.00  0.00    -0.318 N 
ATOM      4  H1  UNL     1      37.043  62.181   6.564  1.00  0.00     0.169 HD
HETATM    5  C2  UNL     1      36.210  60.738   7.755  1.00  0.00     0.185 A 
HETATM    6  N2  UNL     1      35.368  60.502   8.779  1.00  0.00    -0.336 N 
ATOM      7  H2  UNL     1      35.226  59.540   9.087  1.00  0.00     0.168 HD
HETATM    8  C3  UNL     1      34.708  61.491   9.412  1.00  0.00     0.144 A 
HETATM    9  C4  UNL     1      34.918  62.788   8.973  1.00  0.00     0.146 A 
HETATM   10  N3  UNL     1      34.156  63.576   9.754  1.00  0.00    -0.345 N 
ATOM     11  H3  UNL     1      34.083  64.591   9.690  1.00  0.00     0.167 HD
HETATM   12  C5  UNL     1      33.504  62.787  10.638  1.00  0.00     0.188 A 
HETATM   13  N4  UNL     1      33.825  61.499  10.450  1.00  0.00    -0.297 N 
ENDROOT
BRANCH  13  14
HETATM   14  C6  UNL     1      33.362  60.321  11.167  1.00  0.00     0.262 C 
HETATM   15  O2  UNL     1      32.169  60.579  11.786  1.00  0.00    -0.353 OA
HETATM   16  C7  UNL     1      32.274  60.269  13.121  1.00  0.00     0.179 C 
HETATM   17  C9  UNL     1      33.712  60.622  13.434  1.00  0.00     0.182 C 
HETATM   18  C10 UNL     1      34.378  59.979  12.235  1.00  0.00     0.198 C 
BRANCH  16  19
HETATM   19  C8  UNL     1      31.306  61.037  13.987  1.00  0.00     0.198 C 
BRANCH  19  20
HETATM   20  O3  UNL     1      31.226  62.327  13.469  1.00  0.00    -0.398 OA
ATOM     21  H3  UNL     1      30.436  62.369  12.942  1.00  0.00     0.209 HD
ENDBRANCH  19  20
ENDBRANCH  16  19
BRANCH  17  22
HETATM   22  O4  UNL     1      34.141  60.083  14.632  1.00  0.00    -0.390 OA
ATOM     23  H4  UNL     1      33.518  59.463  14.995  1.00  0.00     0.210 HD
ENDBRANCH  17  22
BRANCH  18  24
HETATM   24  O5  UNL     1      34.377  58.614  12.426  1.00  0.00    -0.388 OA
ATOM     25  H5  UNL     1      33.498  58.338  12.657  1.00  0.00     0.210 HD
ENDBRANCH  18  24
ENDBRANCH  13  14
TORSDOF 5
ENDMDL
