MODEL 2
REMARK VINA RESULT: -8.252700167      3.412      5.267
REMARK  5 active torsions:
REMARK  status: ('A' for Active; 'I' for Inactive)
REMARK    1  A    between atoms: N4_10  and  C5_11 
REMARK    2  A    between atoms: C6_13  and  C7_14 
REMARK    3  A    between atoms: C7_14  and  O2_15 
REMARK    4  A    between atoms: C8_17  and  O3_18 
REMARK    5  A    between atoms: C9_20  and  O4_21 
ROOT
HETATM    1  N1  UNL     1      36.307  59.544   7.032  1.00  0.00    -0.063 NA
HETATM    2  C1  UNL     1      35.683  60.619   7.705  1.00  0.00     0.196 A 
HETATM    3  N2  UNL     1      34.951  60.438   8.819  1.00  0.00    -0.314 N 
ATOM      4  H2  UNL     1      34.851  59.490   9.181  1.00  0.00     0.170 HD
HETATM    5  C2  UNL     1      34.346  61.436   9.482  1.00  0.00     0.146 A 
HETATM    6  C3  UNL     1      34.453  62.715   9.036  1.00  0.00     0.146 A 
HETATM    7  N3  UNL     1      33.758  63.501   9.877  1.00  0.00    -0.345 N 
ATOM      8  H3  UNL     1      33.646  64.513   9.811  1.00  0.00     0.167 HD
HETATM    9  C4  UNL     1      33.240  62.694  10.820  1.00  0.00     0.188 A 
HETATM   10  N4  UNL     1      33.583  61.414  10.605  1.00  0.00    -0.297 N 
HETATM   11  C10 UNL     1      35.201  62.936   7.890  1.00  0.00     0.278 A 
HETATM   12  O5  UNL     1      35.307  64.119   7.469  1.00  0.00    -0.265 OA
HETATM   13  N5  UNL     1      35.789  61.905   7.260  1.00  0.00    -0.295 N 
ATOM     14  H5  UNL     1      36.336  62.090   6.419  1.00  0.00     0.171 HD
ENDROOT
BRANCH  10  15
HETATM   15  C5  UNL     1      33.232  60.256  11.379  1.00  0.00     0.262 C 
HETATM   16  O1  UNL     1      31.919  60.244  11.751  1.00  0.00    -0.353 OA
HETATM   17  C6  UNL     1      31.803  59.890  13.066  1.00  0.00     0.179 C 
HETATM   18  C8  UNL     1      33.125  59.277  13.483  1.00  0.00     0.182 C 
HETATM   19  C9  UNL     1      34.065  60.170  12.661  1.00  0.00     0.198 C 
BRANCH  17  20
HETATM   20  C7  UNL     1      31.512  61.138  13.909  1.00  0.00     0.198 C 
BRANCH  20  21
HETATM   21  O2  UNL     1      30.652  61.969  13.193  1.00  0.00    -0.398 OA
ATOM     22  H2  UNL     1      30.893  62.872  13.360  1.00  0.00     0.209 HD
ENDBRANCH  20  21
ENDBRANCH  17  20
BRANCH  18  23
HETATM   23  O3  UNL     1      33.175  57.984  12.999  1.00  0.00    -0.390 OA
ATOM     24  H3  UNL     1      33.146  57.388  13.738  1.00  0.00     0.210 HD
ENDBRANCH  18  23
BRANCH  19  25
HETATM   25  O4  UNL     1      35.279  59.572  12.435  1.00  0.00    -0.388 OA
ATOM     26  H4  UNL     1      35.410  59.387  11.512  1.00  0.00     0.210 HD
ENDBRANCH  19  25
ENDBRANCH  10  15
TORSDOF 5
ENDMDL
