MODEL 5
REMARK VINA RESULT: -7.424873953      2.514      5.884
REMARK  5 active torsions:
REMARK  status: ('A' for Active; 'I' for Inactive)
REMARK    1  A    between atoms: N4_10  and  C5_11 
REMARK    2  A    between atoms: C6_13  and  C7_14 
REMARK    3  A    between atoms: C7_14  and  O2_15 
REMARK    4  A    between atoms: C8_17  and  O3_18 
REMARK    5  A    between atoms: C9_20  and  O4_21 
ROOT
HETATM    1  N1  UNL     1      34.056  55.892   4.933  1.00  0.00    -0.063 NA
HETATM    2  C1  UNL     1      34.327  56.143   6.297  1.00  0.00     0.196 A 
HETATM    3  N2  UNL     1      34.539  57.385   6.768  1.00  0.00    -0.314 N 
ATOM      4  H2  UNL     1      34.500  58.163   6.110  1.00  0.00     0.170 HD
HETATM    5  C2  UNL     1      34.800  57.658   8.056  1.00  0.00     0.146 A 
HETATM    6  C3  UNL     1      34.861  56.652   8.968  1.00  0.00     0.146 A 
HETATM    7  N3  UNL     1      35.133  57.200  10.165  1.00  0.00    -0.345 N 
ATOM      8  H3  UNL     1      35.243  56.705  11.050  1.00  0.00     0.167 HD
HETATM    9  C4  UNL     1      35.233  58.528   9.968  1.00  0.00     0.188 A 
HETATM   10  N4  UNL     1      35.033  58.842   8.677  1.00  0.00    -0.297 N 
HETATM   11  C10 UNL     1      34.646  55.360   8.514  1.00  0.00     0.278 A 
HETATM   12  O5  UNL     1      34.700  54.420   9.352  1.00  0.00    -0.265 OA
HETATM   13  N5  UNL     1      34.389  55.135   7.215  1.00  0.00    -0.295 N 
ATOM     14  H5  UNL     1      34.233  54.177   6.903  1.00  0.00     0.171 HD
ENDROOT
BRANCH  10  15
HETATM   15  C5  UNL     1      35.057  60.141   8.064  1.00  0.00     0.262 C 
HETATM   16  O1  UNL     1      36.066  60.280   7.154  1.00  0.00    -0.353 OA
HETATM   17  C6  UNL     1      36.695  61.481   7.327  1.00  0.00     0.179 C 
HETATM   18  C8  UNL     1      35.791  62.342   8.186  1.00  0.00     0.182 C 
HETATM   19  C9  UNL     1      35.235  61.247   9.107  1.00  0.00     0.198 C 
BRANCH  17  20
HETATM   20  C7  UNL     1      38.038  61.259   8.034  1.00  0.00     0.198 C 
BRANCH  20  21
HETATM   21  O2  UNL     1      39.034  61.917   7.315  1.00  0.00    -0.398 OA
ATOM     22  H2  UNL     1      39.074  61.546   6.441  1.00  0.00     0.209 HD
ENDBRANCH  20  21
ENDBRANCH  17  20
BRANCH  18  23
HETATM   23  O3  UNL     1      34.775  62.834   7.390  1.00  0.00    -0.390 OA
ATOM     24  H3  UNL     1      34.492  63.667   7.748  1.00  0.00     0.210 HD
ENDBRANCH  18  23
BRANCH  19  25
HETATM   25  O4  UNL     1      34.036  61.605   9.672  1.00  0.00    -0.388 OA
ATOM     26  H4  UNL     1      33.556  62.208   9.117  1.00  0.00     0.210 HD
ENDBRANCH  19  25
ENDBRANCH  10  15
TORSDOF 5
ENDMDL
