MODEL 1
REMARK VINA RESULT: -8.293245101      0.000      0.000
REMARK  5 active torsions:
REMARK  status: ('A' for Active; 'I' for Inactive)
REMARK    1  A    between atoms: N4_10  and  C5_11 
REMARK    2  A    between atoms: C6_13  and  C7_14 
REMARK    3  A    between atoms: C7_14  and  O2_15 
REMARK    4  A    between atoms: C8_17  and  O3_18 
REMARK    5  A    between atoms: C9_20  and  O4_21 
ROOT
HETATM    1  N1  UNL     1      33.057  60.038  11.987  1.00  0.00    -0.063 NA
HETATM    2  C1  UNL     1      33.704  60.566  10.847  1.00  0.00     0.196 A 
HETATM    3  N2  UNL     1      34.307  59.780   9.937  1.00  0.00    -0.314 N 
ATOM      4  H2  UNL     1      34.289  58.771  10.085  1.00  0.00     0.170 HD
HETATM    5  C2  UNL     1      34.931  60.249   8.845  1.00  0.00     0.146 A 
HETATM    6  C3  UNL     1      34.978  61.587   8.607  1.00  0.00     0.146 A 
HETATM    7  N3  UNL     1      35.654  61.775   7.461  1.00  0.00    -0.345 N 
ATOM      8  H3  UNL     1      35.860  62.670   7.015  1.00  0.00     0.167 HD
HETATM    9  C4  UNL     1      36.008  60.556   7.016  1.00  0.00     0.188 A 
HETATM   10  N4  UNL     1      35.576  59.593   7.847  1.00  0.00    -0.297 N 
HETATM   11  C10 UNL     1      34.366  62.425   9.527  1.00  0.00     0.278 A 
HETATM   12  O5  UNL     1      34.404  63.666   9.315  1.00  0.00    -0.265 OA
HETATM   13  N5  UNL     1      33.754  61.909  10.606  1.00  0.00    -0.295 N 
ATOM     14  H5  UNL     1      33.309  62.543  11.269  1.00  0.00     0.171 HD
ENDROOT
BRANCH  10  15
HETATM   15  C5  UNL     1      35.749  58.172   7.729  1.00  0.00     0.262 C 
HETATM   16  O1  UNL     1      35.526  57.713   6.462  1.00  0.00    -0.353 OA
HETATM   17  C6  UNL     1      34.758  56.583   6.497  1.00  0.00     0.179 C 
HETATM   18  C8  UNL     1      34.784  56.067   7.922  1.00  0.00     0.182 C 
HETATM   19  C9  UNL     1      34.795  57.415   8.657  1.00  0.00     0.198 C 
BRANCH  17  20
HETATM   20  C7  UNL     1      33.321  56.928   6.088  1.00  0.00     0.198 C 
BRANCH  20  21
HETATM   21  O2  UNL     1      32.507  55.826   6.347  1.00  0.00    -0.398 OA
ATOM     22  H2  UNL     1      32.429  55.313   5.552  1.00  0.00     0.209 HD
ENDBRANCH  20  21
ENDBRANCH  17  20
BRANCH  18  23
HETATM   23  O3  UNL     1      35.987  55.420   8.127  1.00  0.00    -0.390 OA
ATOM     24  H3  UNL     1      36.178  55.434   9.058  1.00  0.00     0.210 HD
ENDBRANCH  18  23
BRANCH  19  25
HETATM   25  O4  UNL     1      35.305  57.308   9.926  1.00  0.00    -0.388 OA
ATOM     26  H4  UNL     1      34.699  56.867  10.510  1.00  0.00     0.210 HD
ENDBRANCH  19  25
ENDBRANCH  10  15
TORSDOF 5
ENDMDL
