MODEL 4
REMARK VINA RESULT: -7.827452677      1.307      2.598
REMARK  5 active torsions:
REMARK  status: ('A' for Active; 'I' for Inactive)
REMARK    1  A    between atoms: N4_10  and  C5_11 
REMARK    2  A    between atoms: C6_13  and  C7_14 
REMARK    3  A    between atoms: C7_14  and  O2_15 
REMARK    4  A    between atoms: C8_17  and  O3_18 
REMARK    5  A    between atoms: C9_20  and  O4_21 
ROOT
HETATM    1  N1  UNL     1      35.410  62.720   7.335  1.00  0.00    -0.063 NA
HETATM    2  C1  UNL     1      34.909  62.048   8.473  1.00  0.00     0.196 A 
HETATM    3  N2  UNL     1      35.105  60.732   8.672  1.00  0.00    -0.314 N 
ATOM      4  H2  UNL     1      35.634  60.213   7.972  1.00  0.00     0.170 HD
HETATM    5  C2  UNL     1      34.642  60.064   9.740  1.00  0.00     0.146 A 
HETATM    6  C3  UNL     1      33.932  60.716  10.698  1.00  0.00     0.146 A 
HETATM    7  N3  UNL     1      33.595  59.819  11.641  1.00  0.00    -0.345 N 
ATOM      8  H3  UNL     1      33.059  60.000  12.490  1.00  0.00     0.167 HD
HETATM    9  C4  UNL     1      34.104  58.637  11.248  1.00  0.00     0.188 A 
HETATM   10  N4  UNL     1      34.755  58.754  10.079  1.00  0.00    -0.297 N 
HETATM   11  C10 UNL     1      33.712  62.074  10.522  1.00  0.00     0.278 A 
HETATM   12  O5  UNL     1      33.055  62.688  11.405  1.00  0.00    -0.265 OA
HETATM   13  N5  UNL     1      34.195  62.700   9.436  1.00  0.00    -0.295 N 
ATOM     14  H5  UNL     1      34.023  63.699   9.328  1.00  0.00     0.171 HD
ENDROOT
BRANCH  10  15
HETATM   15  C5  UNL     1      35.431  57.732   9.330  1.00  0.00     0.262 C 
HETATM   16  O1  UNL     1      35.482  57.999   7.992  1.00  0.00    -0.353 OA
HETATM   17  C6  UNL     1      35.166  56.880   7.274  1.00  0.00     0.179 C 
HETATM   18  C8  UNL     1      35.266  55.698   8.217  1.00  0.00     0.182 C 
HETATM   19  C9  UNL     1      34.741  56.374   9.492  1.00  0.00     0.198 C 
BRANCH  17  20
HETATM   20  C7  UNL     1      33.735  57.005   6.734  1.00  0.00     0.198 C 
BRANCH  20  21
HETATM   21  O2  UNL     1      33.275  55.734   6.395  1.00  0.00    -0.398 OA
ATOM     22  H2  UNL     1      32.331  55.714   6.501  1.00  0.00     0.209 HD
ENDBRANCH  20  21
ENDBRANCH  17  20
BRANCH  18  23
HETATM   23  O3  UNL     1      36.601  55.383   8.378  1.00  0.00    -0.390 OA
ATOM     24  H3  UNL     1      36.908  55.790   9.180  1.00  0.00     0.210 HD
ENDBRANCH  18  23
BRANCH  19  25
HETATM   25  O4  UNL     1      35.158  55.729  10.629  1.00  0.00    -0.388 OA
ATOM     26  H4  UNL     1      34.706  54.902  10.746  1.00  0.00     0.210 HD
ENDBRANCH  19  25
ENDBRANCH  10  15
TORSDOF 5
ENDMDL
