MODEL 6
REMARK VINA RESULT: -5.551320497      3.206      5.425
REMARK  5 active torsions:
REMARK  status: ('A' for Active; 'I' for Inactive)
REMARK    1  A    between atoms: N5_13  and  C6_14 
REMARK    2  A    between atoms: C7_16  and  C8_17 
REMARK    3  A    between atoms: C8_17  and  O2_18 
REMARK    4  A    between atoms: C9_20  and  O3_21 
REMARK    5  A    between atoms: C10_23  and  O4_24 
ROOT
HETATM    1  N1  UNL     1      31.838  58.871  12.589  1.00  0.00    -0.080 NA
HETATM    2  C1  UNL     1      32.229  60.178  12.220  1.00  0.00     0.148 A 
HETATM    3  N2  UNL     1      31.758  61.279  12.860  1.00  0.00    -0.339 N 
ATOM      4  H2  UNL     1      31.101  61.179  13.635  1.00  0.00     0.167 HD
HETATM    5  C2  UNL     1      32.160  62.500  12.470  1.00  0.00     0.183 A 
HETATM    6  N3  UNL     1      33.027  62.621  11.448  1.00  0.00    -0.336 N 
ATOM      7  H3  UNL     1      33.324  63.554  11.163  1.00  0.00     0.168 HD
HETATM    8  C3  UNL     1      33.522  61.539  10.781  1.00  0.00     0.142 A 
HETATM    9  C4  UNL     1      33.117  60.298  11.172  1.00  0.00     0.119 A 
HETATM   10  N4  UNL     1      33.742  59.415  10.364  1.00  0.00    -0.346 N 
ATOM     11  H4  UNL     1      33.645  58.401  10.404  1.00  0.00     0.167 HD
HETATM   12  C5  UNL     1      34.516  60.097   9.495  1.00  0.00     0.188 A 
HETATM   13  N5  UNL     1      34.376  61.405   9.755  1.00  0.00    -0.297 N 
ENDROOT
BRANCH  13  14
HETATM   14  C6  UNL     1      35.005  62.501   9.088  1.00  0.00     0.262 C 
HETATM   15  O1  UNL     1      34.485  63.705   9.549  1.00  0.00    -0.353 OA
HETATM   16  C7  UNL     1      34.761  64.676   8.626  1.00  0.00     0.179 C 
HETATM   17  C9  UNL     1      35.144  64.005   7.332  1.00  0.00     0.182 C 
HETATM   18  C10 UNL     1      34.698  62.565   7.618  1.00  0.00     0.198 C 
BRANCH  16  19
HETATM   19  C8  UNL     1      33.561  65.562   8.345  1.00  0.00     0.198 C 
BRANCH  19  20
HETATM   20  O2  UNL     1      33.722  66.355   7.233  1.00  0.00    -0.398 OA
ATOM     21  H2  UNL     1      33.186  66.082   6.498  1.00  0.00     0.209 HD
ENDBRANCH  19  20
ENDBRANCH  16  19
BRANCH  17  22
HETATM   22  O3  UNL     1      36.541  63.992   7.231  1.00  0.00    -0.390 OA
ATOM     23  H3  UNL     1      36.840  64.877   7.057  1.00  0.00     0.210 HD
ENDBRANCH  17  22
BRANCH  18  24
HETATM   24  O4  UNL     1      35.439  61.653   6.879  1.00  0.00    -0.388 OA
ATOM     25  H4  UNL     1      35.153  61.599   5.975  1.00  0.00     0.210 HD
ENDBRANCH  18  24
ENDBRANCH  13  14
TORSDOF 5
ENDMDL
