MODEL 3
REMARK VINA RESULT: -6.848518835      3.237      6.081
REMARK  5 active torsions:
REMARK  status: ('A' for Active; 'I' for Inactive)
REMARK    1  A    between atoms: N5_13  and  C6_14 
REMARK    2  A    between atoms: C7_16  and  C8_17 
REMARK    3  A    between atoms: C8_17  and  O2_18 
REMARK    4  A    between atoms: C9_20  and  O3_21 
REMARK    5  A    between atoms: C10_23  and  O4_24 
ROOT
HETATM    1  N1  UNL     1      32.885  59.314  13.416  1.00  0.00    -0.080 NA
HETATM    2  C1  UNL     1      33.404  59.628  12.141  1.00  0.00     0.148 A 
HETATM    3  N2  UNL     1      34.025  58.700  11.367  1.00  0.00    -0.339 N 
ATOM      4  H2  UNL     1      34.129  57.742  11.701  1.00  0.00     0.167 HD
HETATM    5  C2  UNL     1      34.502  59.049  10.161  1.00  0.00     0.183 A 
HETATM    6  N3  UNL     1      34.360  60.315   9.729  1.00  0.00    -0.336 N 
ATOM      7  H3  UNL     1      34.726  60.567   8.811  1.00  0.00     0.168 HD
HETATM    8  C3  UNL     1      33.742  61.276  10.477  1.00  0.00     0.142 A 
HETATM    9  C4  UNL     1      33.257  60.927  11.702  1.00  0.00     0.119 A 
HETATM   10  N4  UNL     1      32.702  62.040  12.229  1.00  0.00    -0.346 N 
ATOM     11  H4  UNL     1      32.253  62.105  13.141  1.00  0.00     0.167 HD
HETATM   12  C5  UNL     1      32.842  63.051  11.347  1.00  0.00     0.188 A 
HETATM   13  N5  UNL     1      33.484  62.576  10.271  1.00  0.00    -0.297 N 
ENDROOT
BRANCH  13  14
HETATM   14  C6  UNL     1      33.850  63.287   9.086  1.00  0.00     0.262 C 
HETATM   15  O1  UNL     1      34.862  62.609   8.414  1.00  0.00    -0.353 OA
HETATM   16  C7  UNL     1      35.480  63.488   7.567  1.00  0.00     0.179 C 
HETATM   17  C9  UNL     1      35.107  64.889   7.981  1.00  0.00     0.182 C 
HETATM   18  C10 UNL     1      34.490  64.620   9.360  1.00  0.00     0.198 C 
BRANCH  16  19
HETATM   19  C8  UNL     1      36.993  63.380   7.629  1.00  0.00     0.198 C 
BRANCH  19  20
HETATM   20  O2  UNL     1      37.635  64.323   6.862  1.00  0.00    -0.398 OA
ATOM     21  H2  UNL     1      37.358  64.318   5.954  1.00  0.00     0.209 HD
ENDBRANCH  19  20
ENDBRANCH  16  19
BRANCH  17  22
HETATM   22  O3  UNL     1      34.077  65.342   7.148  1.00  0.00    -0.390 OA
ATOM     23  H3  UNL     1      33.560  64.594   6.872  1.00  0.00     0.210 HD
ENDBRANCH  17  22
BRANCH  18  24
HETATM   24  O4  UNL     1      33.561  65.596   9.693  1.00  0.00    -0.388 OA
ATOM     25  H4  UNL     1      33.860  66.158  10.398  1.00  0.00     0.210 HD
ENDBRANCH  18  24
ENDBRANCH  13  14
TORSDOF 5
ENDMDL
