MODEL 5
REMARK VINA RESULT: -6.126832240      2.924      5.615
REMARK  5 active torsions:
REMARK  status: ('A' for Active; 'I' for Inactive)
REMARK    1  A    between atoms: N5_13  and  C6_14 
REMARK    2  A    between atoms: C7_16  and  C8_17 
REMARK    3  A    between atoms: C8_17  and  O2_18 
REMARK    4  A    between atoms: C9_20  and  O3_21 
REMARK    5  A    between atoms: C10_23  and  O4_24 
ROOT
HETATM    1  N1  UNL     1      33.364  58.175  12.799  1.00  0.00    -0.080 NA
HETATM    2  C1  UNL     1      33.044  59.478  12.357  1.00  0.00     0.148 A 
HETATM    3  N2  UNL     1      32.154  60.264  13.016  1.00  0.00    -0.339 N 
ATOM      4  H2  UNL     1      31.693  59.920  13.858  1.00  0.00     0.167 HD
HETATM    5  C2  UNL     1      31.883  61.496  12.555  1.00  0.00     0.183 A 
HETATM    6  N3  UNL     1      32.497  61.941  11.443  1.00  0.00    -0.336 N 
ATOM      7  H3  UNL     1      32.283  62.879  11.104  1.00  0.00     0.168 HD
HETATM    8  C3  UNL     1      33.397  61.181  10.753  1.00  0.00     0.142 A 
HETATM    9  C4  UNL     1      33.675  59.930  11.217  1.00  0.00     0.119 A 
HETATM   10  N4  UNL     1      34.580  59.396  10.369  1.00  0.00    -0.346 N 
ATOM     11  H4  UNL     1      34.989  58.465  10.445  1.00  0.00     0.167 HD
HETATM   12  C5  UNL     1      34.855  60.299   9.406  1.00  0.00     0.188 A 
HETATM   13  N5  UNL     1      34.123  61.396   9.646  1.00  0.00    -0.297 N 
ENDROOT
BRANCH  13  14
HETATM   14  C6  UNL     1      34.088  62.607   8.888  1.00  0.00     0.262 C 
HETATM   15  O1  UNL     1      34.953  62.519   7.803  1.00  0.00    -0.353 OA
HETATM   16  C7  UNL     1      35.230  63.787   7.369  1.00  0.00     0.179 C 
HETATM   17  C9  UNL     1      34.833  64.757   8.453  1.00  0.00     0.182 C 
HETATM   18  C10 UNL     1      34.631  63.796   9.631  1.00  0.00     0.198 C 
BRANCH  16  19
HETATM   19  C8  UNL     1      36.709  63.991   7.092  1.00  0.00     0.198 C 
BRANCH  19  20
HETATM   20  O2  UNL     1      37.512  63.093   7.755  1.00  0.00    -0.398 OA
ATOM     21  H2  UNL     1      38.418  63.121   7.471  1.00  0.00     0.209 HD
ENDBRANCH  19  20
ENDBRANCH  16  19
BRANCH  17  22
HETATM   22  O3  UNL     1      33.578  65.291   8.135  1.00  0.00    -0.390 OA
ATOM     23  H3  UNL     1      33.627  66.238   8.199  1.00  0.00     0.210 HD
ENDBRANCH  17  22
BRANCH  18  24
HETATM   24  O4  UNL     1      33.724  64.309  10.549  1.00  0.00    -0.388 OA
ATOM     25  H4  UNL     1      32.856  63.940  10.447  1.00  0.00     0.210 HD
ENDBRANCH  18  24
ENDBRANCH  13  14
TORSDOF 5
ENDMDL
