MODEL 2
REMARK VINA RESULT: -7.372989646      0.975      2.119
REMARK  5 active torsions:
REMARK  status: ('A' for Active; 'I' for Inactive)
REMARK    1  A    between atoms: N5_13  and  C6_14 
REMARK    2  A    between atoms: C7_16  and  C8_17 
REMARK    3  A    between atoms: C8_17  and  O2_18 
REMARK    4  A    between atoms: C9_20  and  O3_21 
REMARK    5  A    between atoms: C10_23  and  O4_24 
ROOT
HETATM    1  N1  UNL     1      35.573  63.667   7.129  1.00  0.00    -0.080 NA
HETATM    2  C1  UNL     1      35.356  62.395   7.705  1.00  0.00     0.148 A 
HETATM    3  N2  UNL     1      35.931  61.270   7.206  1.00  0.00    -0.339 N 
ATOM      4  H2  UNL     1      36.543  61.326   6.391  1.00  0.00     0.167 HD
HETATM    5  C2  UNL     1      35.693  60.084   7.789  1.00  0.00     0.183 A 
HETATM    6  N3  UNL     1      34.885  60.020   8.863  1.00  0.00    -0.336 N 
ATOM      7  H3  UNL     1      34.712  59.113   9.296  1.00  0.00     0.168 HD
HETATM    8  C3  UNL     1      34.288  61.128   9.394  1.00  0.00     0.142 A 
HETATM    9  C4  UNL     1      34.527  62.333   8.805  1.00  0.00     0.119 A 
HETATM   10  N4  UNL     1      33.830  63.251   9.509  1.00  0.00    -0.346 N 
ATOM     11  H4  UNL     1      33.802  64.252   9.316  1.00  0.00     0.167 HD
HETATM   12  C5  UNL     1      33.178  62.625  10.510  1.00  0.00     0.188 A 
HETATM   13  N5  UNL     1      33.462  61.317  10.434  1.00  0.00    -0.297 N 
ENDROOT
BRANCH  13  14
HETATM   14  C6  UNL     1      32.995  60.269  11.286  1.00  0.00     0.262 C 
HETATM   15  O1  UNL     1      31.764  60.611  11.835  1.00  0.00    -0.353 OA
HETATM   16  C7  UNL     1      31.556  59.835  12.943  1.00  0.00     0.179 C 
HETATM   17  C9  UNL     1      32.874  59.229  13.353  1.00  0.00     0.182 C 
HETATM   18  C10 UNL     1      33.844  60.070  12.511  1.00  0.00     0.198 C 
BRANCH  16  19
HETATM   19  C8  UNL     1      31.035  60.639  14.120  1.00  0.00     0.198 C 
BRANCH  19  20
HETATM   20  O2  UNL     1      30.555  61.876  13.760  1.00  0.00    -0.398 OA
ATOM     21  H2  UNL     1      30.565  62.503  14.474  1.00  0.00     0.209 HD
ENDBRANCH  19  20
ENDBRANCH  16  19
BRANCH  17  22
HETATM   22  O3  UNL     1      32.935  57.918  12.866  1.00  0.00    -0.390 OA
ATOM     23  H3  UNL     1      32.822  57.319  13.595  1.00  0.00     0.210 HD
ENDBRANCH  17  22
BRANCH  18  24
HETATM   24  O4  UNL     1      35.011  59.369  12.241  1.00  0.00    -0.388 OA
ATOM     25  H4  UNL     1      35.552  59.251  13.013  1.00  0.00     0.210 HD
ENDBRANCH  18  24
ENDBRANCH  13  14
TORSDOF 5
ENDMDL
