MODEL 3
REMARK VINA RESULT: -5.268395608      1.639      1.823
REMARK  3 active torsions:
REMARK  status: ('A' for Active; 'I' for Inactive)
REMARK    1  A    between atoms: C2_2  and  C3_3 
REMARK    2  A    between atoms: C2_2  and  C4_5 
REMARK       I    between atoms: C4_5  and  N1_7 
REMARK    3  A    between atoms: C8_11  and  C9_12 
ROOT
HETATM    1  C4  UNL     1      11.253  28.799  32.725  1.00  0.00     0.225 C 
HETATM    2  O1  UNL     1      10.966  29.958  33.096  1.00  0.00    -0.273 OA
HETATM    3  N1  UNL     1      12.092  28.618  31.605  1.00  0.00    -0.337 N 
HETATM    4  C5  UNL     1      12.480  27.325  31.086  1.00  0.00     0.127 C 
HETATM    5  C6  UNL     1      13.918  27.561  30.694  1.00  0.00     0.022 C 
HETATM    6  C7  UNL     1      13.738  28.861  29.889  1.00  0.00     0.038 C 
HETATM    7  C8  UNL     1      12.720  29.610  30.761  1.00  0.00     0.188 C 
ENDROOT
BRANCH   1   8
HETATM    8  C2  UNL     1      10.704  27.662  33.473  1.00  0.00     0.084 C 
HETATM    9  C1  UNL     1       9.276  27.902  33.908  1.00  0.00     0.020 C 
BRANCH   8  10
HETATM   10  C3  UNL     1      11.551  27.327  34.682  1.00  0.00     0.099 C 
HETATM   11  S1  UNL     1      11.663  25.538  34.932  1.00  0.00    -0.097 SA
ENDBRANCH   8  10
ENDBRANCH   1   8
BRANCH   7  12
HETATM   12  C9  UNL     1      13.374  30.700  31.488  1.00  0.00     0.196 C 
HETATM   13  O2  UNL     1      14.471  30.482  32.056  1.00  0.00    -0.646 OA
HETATM   14  O3  UNL     1      12.839  31.969  31.584  1.00  0.00    -0.646 OA
ENDBRANCH   7  12
TORSDOF 3
ENDMDL
