MODEL 2
REMARK VINA RESULT: -5.402413943      0.879      1.219
REMARK  3 active torsions:
REMARK  status: ('A' for Active; 'I' for Inactive)
REMARK    1  A    between atoms: C2_2  and  C3_3 
REMARK    2  A    between atoms: C2_2  and  C4_5 
REMARK       I    between atoms: C4_5  and  N1_7 
REMARK    3  A    between atoms: C8_11  and  C9_12 
ROOT
HETATM    1  C4  UNL     1      11.429  29.193  33.134  1.00  0.00     0.225 C 
HETATM    2  O1  UNL     1      11.216  30.419  33.007  1.00  0.00    -0.273 OA
HETATM    3  N1  UNL     1      12.270  28.537  32.210  1.00  0.00    -0.337 N 
HETATM    4  C5  UNL     1      12.577  27.125  32.258  1.00  0.00     0.127 C 
HETATM    5  C6  UNL     1      14.033  27.105  31.862  1.00  0.00     0.022 C 
HETATM    6  C7  UNL     1      13.952  27.988  30.604  1.00  0.00     0.038 C 
HETATM    7  C8  UNL     1      12.975  29.077  31.069  1.00  0.00     0.188 C 
ENDROOT
BRANCH   1   8
HETATM    8  C2  UNL     1      10.794  28.478  34.247  1.00  0.00     0.084 C 
HETATM    9  C1  UNL     1       9.306  28.732  34.312  1.00  0.00     0.020 C 
BRANCH   8  10
HETATM   10  C3  UNL     1      11.427  28.836  35.575  1.00  0.00     0.099 C 
HETATM   11  S1  UNL     1      11.746  27.360  36.572  1.00  0.00    -0.097 SA
ENDBRANCH   8  10
ENDBRANCH   1   8
BRANCH   7  12
HETATM   12  C9  UNL     1      13.691  30.327  31.333  1.00  0.00     0.196 C 
HETATM   13  O2  UNL     1      14.594  30.340  32.204  1.00  0.00    -0.646 OA
HETATM   14  O3  UNL     1      13.419  31.505  30.668  1.00  0.00    -0.646 OA
ENDBRANCH   7  12
TORSDOF 3
ENDMDL
