MODEL 1
REMARK VINA RESULT: -5.653939828      0.000      0.000
REMARK  3 active torsions:
REMARK  status: ('A' for Active; 'I' for Inactive)
REMARK    1  A    between atoms: C2_2  and  C3_3 
REMARK    2  A    between atoms: C2_2  and  C4_5 
REMARK       I    between atoms: C4_5  and  N1_7 
REMARK    3  A    between atoms: C8_11  and  C9_12 
ROOT
HETATM    1  C4  UNL     1      11.439  29.203  33.023  1.00  0.00     0.225 C 
HETATM    2  O1  UNL     1      11.255  30.431  32.869  1.00  0.00    -0.273 OA
HETATM    3  N1  UNL     1      12.277  28.511  32.123  1.00  0.00    -0.337 N 
HETATM    4  C5  UNL     1      12.551  27.093  32.202  1.00  0.00     0.127 C 
HETATM    5  C6  UNL     1      14.011  27.033  31.825  1.00  0.00     0.022 C 
HETATM    6  C7  UNL     1      13.965  27.892  30.549  1.00  0.00     0.038 C 
HETATM    7  C8  UNL     1      13.007  29.012  30.980  1.00  0.00     0.188 C 
ENDROOT
BRANCH   1   8
HETATM    8  C2  UNL     1      10.775  28.524  34.141  1.00  0.00     0.084 C 
HETATM    9  C1  UNL     1       9.269  28.620  34.053  1.00  0.00     0.020 C 
BRANCH   8  10
HETATM   10  C3  UNL     1      11.238  29.064  35.477  1.00  0.00     0.099 C 
HETATM   11  S1  UNL     1       9.926  30.003  36.299  1.00  0.00    -0.097 SA
ENDBRANCH   8  10
ENDBRANCH   1   8
BRANCH   7  12
HETATM   12  C9  UNL     1      13.748  30.251  31.230  1.00  0.00     0.196 C 
HETATM   13  O2  UNL     1      13.580  31.228  30.461  1.00  0.00    -0.646 OA
HETATM   14  O3  UNL     1      14.632  30.401  32.278  1.00  0.00    -0.646 OA
ENDBRANCH   7  12
TORSDOF 3
ENDMDL
