MODEL 1
REMARK VINA RESULT: -12.169991288      0.000      0.000
REMARK  7 active torsions:
REMARK  status: ('A' for Active; 'I' for Inactive)
REMARK    1  A    between atoms: C4_4  and  C5_5 
REMARK    2  A    between atoms: C5_5  and  O1_6 
REMARK    3  A    between atoms: O1_6  and  C6_7 
REMARK    4  A    between atoms: C9_10  and  C10_11 
REMARK    5  A    between atoms: N1_15  and  C14_16 
REMARK    6  A    between atoms: C14_16  and  C16_18 
REMARK       I    between atoms: C16_18  and  N2_20 
REMARK    7  A    between atoms: N2_20  and  O3_22 
ROOT
HETATM    1  C6  UNL     1       7.836   8.385  28.901  1.00  0.00     0.069 A 
HETATM    2  C7  UNL     1       6.615   8.905  28.591  1.00  0.00     0.037 A 
HETATM    3  C8  UNL     1       6.234   8.870  27.209  1.00  0.00     0.011 A 
HETATM    4  C9  UNL     1       7.069   8.329  26.308  1.00  0.00    -0.040 A 
HETATM    5  C18 UNL     1       8.335   7.878  26.639  1.00  0.00     0.011 A 
HETATM    6  C19 UNL     1       8.712   7.913  28.001  1.00  0.00     0.037 A 
ENDROOT
BRANCH   4   7
HETATM    7  C10 UNL     1       6.390   7.798  25.060  1.00  0.00     0.066 C 
HETATM    8  C11 UNL     1       5.741   6.424  25.337  1.00  0.00     0.031 C 
HETATM    9  C12 UNL     1       7.266   7.627  23.881  1.00  0.00     0.044 C 
HETATM   10  C13 UNL     1       7.377   9.135  23.486  1.00  0.00     0.128 C 
HETATM   11  N1  UNL     1       5.949   9.468  23.517  1.00  0.00    -0.338 N 
HETATM   12  C17 UNL     1       5.337   8.681  24.576  1.00  0.00     0.233 C 
HETATM   13  O4  UNL     1       4.196   8.728  24.970  1.00  0.00    -0.272 OA
BRANCH  11  14
HETATM   14  C14 UNL     1       5.282  10.332  22.554  1.00  0.00     0.177 C 
HETATM   15  C15 UNL     1       5.545  10.017  21.174  1.00  0.00     0.042 C 
BRANCH  14  16
HETATM   16  C16 UNL     1       5.977  11.728  22.905  1.00  0.00     0.263 C 
HETATM   17  O2  UNL     1       6.683  12.269  22.013  1.00  0.00    -0.269 OA
HETATM   18  N2  UNL     1       5.803  12.279  24.144  1.00  0.00    -0.236 N 
ATOM     19  H2  UNL     1       5.328  11.740  24.868  1.00  0.00     0.197 HD
BRANCH  18  20
HETATM   20  O3  UNL     1       6.261  13.567  24.439  1.00  0.00    -0.287 OA
ATOM     21  H3  UNL     1       6.657  13.770  25.279  1.00  0.00     0.244 HD
ENDBRANCH  18  20
ENDBRANCH  14  16
ENDBRANCH  11  14
ENDBRANCH   4   7
BRANCH   1  22
HETATM   22  O1  UNL     1       8.211   8.311  30.274  1.00  0.00    -0.347 OA
BRANCH  22  23
HETATM   23  C5  UNL     1       9.672   7.968  30.248  1.00  0.00     0.215 C 
BRANCH  23  24
HETATM   24  C4  UNL     1       9.855   6.761  31.022  1.00  0.00    -0.020 A 
HETATM   25  C3  UNL     1       8.701   5.985  31.337  1.00  0.00     0.034 A 
HETATM   26  C2  UNL     1       8.875   4.732  31.690  1.00  0.00     0.006 A 
HETATM   27  C1  UNL     1       7.638   4.115  32.398  1.00  0.00     0.068 C 
HETATM   28  N3  UNL     1       9.984   3.998  31.770  1.00  0.00    -0.359 N 
HETATM   29  C25 UNL     1      11.122   4.716  31.510  1.00  0.00     0.043 A 
ATOM     30  H3  UNL     1       9.985   3.005  32.001  1.00  0.00     0.166 HD
HETATM   31  C20 UNL     1      11.028   6.086  31.158  1.00  0.00    -0.001 A 
HETATM   32  C24 UNL     1      12.401   4.194  31.512  1.00  0.00     0.030 A 
HETATM   33  C21 UNL     1      12.162   6.789  30.882  1.00  0.00     0.014 A 
HETATM   34  C22 UNL     1      13.408   6.272  30.877  1.00  0.00     0.001 A 
HETATM   35  C23 UNL     1      13.493   4.910  31.208  1.00  0.00     0.002 A 
ENDBRANCH  23  24
ENDBRANCH  22  23
ENDBRANCH   1  22
TORSDOF 7
ENDMDL
