MODEL 15
REMARK VINA RESULT: -9.935194849      4.988      7.739
REMARK  7 active torsions:
REMARK  status: ('A' for Active; 'I' for Inactive)
REMARK    1  A    between atoms: C4_4  and  C5_5 
REMARK    2  A    between atoms: C5_5  and  O1_6 
REMARK    3  A    between atoms: O1_6  and  C6_7 
REMARK    4  A    between atoms: C9_10  and  C10_11 
REMARK    5  A    between atoms: N1_15  and  C14_16 
REMARK    6  A    between atoms: C14_16  and  C16_18 
REMARK       I    between atoms: C16_18  and  N2_20 
REMARK    7  A    between atoms: N2_20  and  O3_22 
ROOT
HETATM    1  C6  UNL     1       6.553   2.903  31.505  1.00  0.00     0.069 A 
HETATM    2  C7  UNL     1       7.476   1.902  31.578  1.00  0.00     0.037 A 
HETATM    3  C8  UNL     1       7.041   0.596  31.175  1.00  0.00     0.011 A 
HETATM    4  C9  UNL     1       5.781   0.424  30.745  1.00  0.00    -0.040 A 
HETATM    5  C18 UNL     1       4.842   1.441  30.755  1.00  0.00     0.011 A 
HETATM    6  C19 UNL     1       5.271   2.729  31.152  1.00  0.00     0.037 A 
ENDROOT
BRANCH   4   7
HETATM    7  C10 UNL     1       5.589  -0.759  29.815  1.00  0.00     0.066 C 
HETATM    8  C11 UNL     1       5.042  -1.977  30.591  1.00  0.00     0.031 C 
HETATM    9  C12 UNL     1       6.803  -1.214  29.103  1.00  0.00     0.044 C 
HETATM   10  C13 UNL     1       6.863  -0.067  28.044  1.00  0.00     0.128 C 
HETATM   11  N1  UNL     1       5.470  -0.123  27.592  1.00  0.00    -0.338 N 
HETATM   12  C17 UNL     1       4.648  -0.478  28.738  1.00  0.00     0.233 C 
HETATM   13  O4  UNL     1       3.444  -0.545  28.795  1.00  0.00    -0.272 OA
BRANCH  11  14
HETATM   14  C14 UNL     1       5.045   0.024  26.207  1.00  0.00     0.177 C 
HETATM   15  C15 UNL     1       5.915  -0.592  25.239  1.00  0.00     0.042 C 
BRANCH  14  16
HETATM   16  C16 UNL     1       5.145   1.612  26.052  1.00  0.00     0.263 C 
HETATM   17  O2  UNL     1       4.788   2.318  27.032  1.00  0.00    -0.269 OA
HETATM   18  N2  UNL     1       5.591   2.150  24.877  1.00  0.00    -0.236 N 
ATOM     19  H2  UNL     1       5.746   1.540  24.075  1.00  0.00     0.197 HD
BRANCH  18  20
HETATM   20  O3  UNL     1       5.841   3.521  24.754  1.00  0.00    -0.287 OA
ATOM     21  H3  UNL     1       5.132   4.149  24.690  1.00  0.00     0.244 HD
ENDBRANCH  18  20
ENDBRANCH  14  16
ENDBRANCH  11  14
ENDBRANCH   4   7
BRANCH   1  22
HETATM   22  O1  UNL     1       6.972   4.232  31.802  1.00  0.00    -0.347 OA
BRANCH  22  23
HETATM   23  C5  UNL     1       8.458   4.128  31.980  1.00  0.00     0.215 C 
BRANCH  23  24
HETATM   24  C4  UNL     1       9.064   5.239  31.282  1.00  0.00    -0.020 A 
HETATM   25  C3  UNL     1       8.218   6.304  30.854  1.00  0.00     0.034 A 
HETATM   26  C2  UNL     1       8.772   7.461  30.573  1.00  0.00     0.006 A 
HETATM   27  C1  UNL     1       7.855   8.397  29.738  1.00  0.00     0.068 C 
HETATM   28  N3  UNL     1      10.040   7.861  30.662  1.00  0.00    -0.359 N 
HETATM   29  C25 UNL     1      10.894   6.857  31.035  1.00  0.00     0.043 A 
ATOM     30  H3  UNL     1      10.343   8.816  30.471  1.00  0.00     0.166 HD
HETATM   31  C20 UNL     1      10.385   5.566  31.321  1.00  0.00    -0.001 A 
HETATM   32  C24 UNL     1      12.255   7.006  31.214  1.00  0.00     0.030 A 
HETATM   33  C21 UNL     1      11.237   4.577  31.710  1.00  0.00     0.014 A 
HETATM   34  C22 UNL     1      12.565   4.730  31.892  1.00  0.00     0.001 A 
HETATM   35  C23 UNL     1      13.061   6.016  31.626  1.00  0.00     0.002 A 
ENDBRANCH  23  24
ENDBRANCH  22  23
ENDBRANCH   1  22
TORSDOF 7
ENDMDL
