MODEL 13
REMARK VINA RESULT: -10.330923703      5.740      9.761
REMARK  7 active torsions:
REMARK  status: ('A' for Active; 'I' for Inactive)
REMARK    1  A    between atoms: C4_4  and  C5_5 
REMARK    2  A    between atoms: C5_5  and  O1_6 
REMARK    3  A    between atoms: O1_6  and  C6_7 
REMARK    4  A    between atoms: C9_10  and  C10_11 
REMARK    5  A    between atoms: N1_15  and  C14_16 
REMARK    6  A    between atoms: C14_16  and  C16_18 
REMARK       I    between atoms: C16_18  and  N2_20 
REMARK    7  A    between atoms: N2_20  and  O3_22 
ROOT
HETATM    1  C6  UNL     1       7.230   3.374  31.907  1.00  0.00     0.069 A 
HETATM    2  C7  UNL     1       7.916   2.201  31.794  1.00  0.00     0.037 A 
HETATM    3  C8  UNL     1       7.194   1.084  31.258  1.00  0.00     0.011 A 
HETATM    4  C9  UNL     1       5.913   1.242  30.889  1.00  0.00    -0.040 A 
HETATM    5  C18 UNL     1       5.218   2.423  31.086  1.00  0.00     0.011 A 
HETATM    6  C19 UNL     1       5.930   3.526  31.615  1.00  0.00     0.037 A 
ENDROOT
BRANCH   4   7
HETATM    7  C10 UNL     1       5.437   0.265  29.831  1.00  0.00     0.066 C 
HETATM    8  C11 UNL     1       6.548   0.009  28.789  1.00  0.00     0.031 C 
HETATM    9  C12 UNL     1       4.231   0.675  29.079  1.00  0.00     0.044 C 
HETATM   10  C13 UNL     1       3.180   0.372  30.195  1.00  0.00     0.128 C 
HETATM   11  N1  UNL     1       3.620  -0.984  30.537  1.00  0.00    -0.338 N 
HETATM   12  C17 UNL     1       5.066  -1.028  30.390  1.00  0.00     0.233 C 
HETATM   13  O4  UNL     1       5.811  -1.942  30.654  1.00  0.00    -0.272 OA
BRANCH  11  14
HETATM   14  C14 UNL     1       2.724  -2.092  30.834  1.00  0.00     0.177 C 
HETATM   15  C15 UNL     1       1.984  -2.592  29.704  1.00  0.00     0.042 C 
BRANCH  14  16
HETATM   16  C16 UNL     1       1.709  -1.370  31.836  1.00  0.00     0.263 C 
HETATM   17  O2  UNL     1       2.145  -1.038  32.970  1.00  0.00    -0.269 OA
HETATM   18  N2  UNL     1       0.417  -1.149  31.448  1.00  0.00    -0.236 N 
ATOM     19  H2  UNL     1       0.083  -1.550  30.571  1.00  0.00     0.197 HD
BRANCH  18  20
HETATM   20  O3  UNL     1      -0.457  -0.385  32.227  1.00  0.00    -0.287 OA
ATOM     21  H3  UNL     1      -1.122  -0.793  32.770  1.00  0.00     0.244 HD
ENDBRANCH  18  20
ENDBRANCH  14  16
ENDBRANCH  11  14
ENDBRANCH   4   7
BRANCH   1  22
HETATM   22  O1  UNL     1       7.938   4.532  32.342  1.00  0.00    -0.347 OA
BRANCH  22  23
HETATM   23  C5  UNL     1       7.388   5.648  31.504  1.00  0.00     0.215 C 
BRANCH  23  24
HETATM   24  C4  UNL     1       8.502   6.304  30.858  1.00  0.00    -0.020 A 
HETATM   25  C3  UNL     1       9.820   5.879  31.199  1.00  0.00     0.034 A 
HETATM   26  C2  UNL     1      10.798   6.176  30.375  1.00  0.00     0.006 A 
HETATM   27  C1  UNL     1      12.206   6.046  31.020  1.00  0.00     0.068 C 
HETATM   28  N3  UNL     1      10.783   6.793  29.195  1.00  0.00    -0.359 N 
HETATM   29  C25 UNL     1       9.540   7.251  28.845  1.00  0.00     0.043 A 
ATOM     30  H3  UNL     1      11.612   6.913  28.612  1.00  0.00     0.166 HD
HETATM   31  C20 UNL     1       8.433   7.008  29.695  1.00  0.00    -0.001 A 
HETATM   32  C24 UNL     1       9.246   7.912  27.669  1.00  0.00     0.030 A 
HETATM   33  C21 UNL     1       7.196   7.449  29.332  1.00  0.00     0.014 A 
HETATM   34  C22 UNL     1       6.912   8.086  28.178  1.00  0.00     0.001 A 
HETATM   35  C23 UNL     1       8.010   8.308  27.331  1.00  0.00     0.002 A 
ENDBRANCH  23  24
ENDBRANCH  22  23
ENDBRANCH   1  22
TORSDOF 7
ENDMDL
