MODEL 12
REMARK VINA RESULT: -10.377795365      2.769      4.896
REMARK  7 active torsions:
REMARK  status: ('A' for Active; 'I' for Inactive)
REMARK    1  A    between atoms: C4_4  and  C5_5 
REMARK    2  A    between atoms: C5_5  and  O1_6 
REMARK    3  A    between atoms: O1_6  and  C6_7 
REMARK    4  A    between atoms: C9_10  and  C10_11 
REMARK    5  A    between atoms: N1_15  and  C14_16 
REMARK    6  A    between atoms: C14_16  and  C16_18 
REMARK       I    between atoms: C16_18  and  N2_20 
REMARK    7  A    between atoms: N2_20  and  O3_22 
ROOT
HETATM    1  C6  UNL     1       8.437   8.466  28.216  1.00  0.00     0.069 A 
HETATM    2  C7  UNL     1       7.090   8.619  28.362  1.00  0.00     0.037 A 
HETATM    3  C8  UNL     1       6.290   8.416  27.190  1.00  0.00     0.011 A 
HETATM    4  C9  UNL     1       6.886   8.082  26.034  1.00  0.00    -0.040 A 
HETATM    5  C18 UNL     1       8.261   8.009  25.896  1.00  0.00     0.011 A 
HETATM    6  C19 UNL     1       9.051   8.209  27.051  1.00  0.00     0.037 A 
ENDROOT
BRANCH   4   7
HETATM    7  C10 UNL     1       5.997   7.328  25.063  1.00  0.00     0.066 C 
HETATM    8  C11 UNL     1       4.918   8.264  24.474  1.00  0.00     0.031 C 
HETATM    9  C12 UNL     1       5.289   6.157  25.624  1.00  0.00     0.044 C 
HETATM   10  C13 UNL     1       6.507   5.179  25.664  1.00  0.00     0.128 C 
HETATM   11  N1  UNL     1       6.986   5.380  24.294  1.00  0.00    -0.338 N 
HETATM   12  C17 UNL     1       6.741   6.770  23.941  1.00  0.00     0.233 C 
HETATM   13  O4  UNL     1       7.065   7.347  22.930  1.00  0.00    -0.272 OA
BRANCH  11  14
HETATM   14  C14 UNL     1       7.485   4.320  23.430  1.00  0.00     0.177 C 
HETATM   15  C15 UNL     1       6.899   4.284  22.115  1.00  0.00     0.042 C 
BRANCH  14  16
HETATM   16  C16 UNL     1       6.993   3.039  24.249  1.00  0.00     0.263 C 
HETATM   17  O2  UNL     1       7.843   2.435  24.955  1.00  0.00    -0.269 OA
HETATM   18  N2  UNL     1       5.692   2.631  24.151  1.00  0.00    -0.236 N 
ATOM     19  H2  UNL     1       5.079   3.077  23.468  1.00  0.00     0.197 HD
BRANCH  18  20
HETATM   20  O3  UNL     1       5.184   1.616  24.966  1.00  0.00    -0.287 OA
ATOM     21  H3  UNL     1       4.457   1.071  24.684  1.00  0.00     0.244 HD
ENDBRANCH  18  20
ENDBRANCH  14  16
ENDBRANCH  11  14
ENDBRANCH   4   7
BRANCH   1  22
HETATM   22  O1  UNL     1       9.259   8.561  29.377  1.00  0.00    -0.347 OA
BRANCH  22  23
HETATM   23  C5  UNL     1       8.524   7.779  30.424  1.00  0.00     0.215 C 
BRANCH  23  24
HETATM   24  C4  UNL     1       9.195   6.508  30.576  1.00  0.00    -0.020 A 
HETATM   25  C3  UNL     1      10.620   6.489  30.510  1.00  0.00     0.034 A 
HETATM   26  C2  UNL     1      11.249   5.452  31.011  1.00  0.00     0.006 A 
HETATM   27  C1  UNL     1      12.721   5.332  30.526  1.00  0.00     0.068 C 
HETATM   28  N3  UNL     1      10.785   4.377  31.646  1.00  0.00    -0.359 N 
HETATM   29  C25 UNL     1       9.416   4.337  31.701  1.00  0.00     0.043 A 
ATOM     30  H3  UNL     1      11.386   3.658  32.050  1.00  0.00     0.166 HD
HETATM   31  C20 UNL     1       8.655   5.398  31.149  1.00  0.00    -0.001 A 
HETATM   32  C24 UNL     1       8.681   3.340  32.313  1.00  0.00     0.030 A 
HETATM   33  C21 UNL     1       7.296   5.361  31.225  1.00  0.00     0.014 A 
HETATM   34  C22 UNL     1       6.583   4.390  31.831  1.00  0.00     0.001 A 
HETATM   35  C23 UNL     1       7.342   3.351  32.392  1.00  0.00     0.002 A 
ENDBRANCH  23  24
ENDBRANCH  22  23
ENDBRANCH   1  22
TORSDOF 7
ENDMDL
