MODEL 11
REMARK VINA RESULT: -10.447124334      1.268      1.706
REMARK  7 active torsions:
REMARK  status: ('A' for Active; 'I' for Inactive)
REMARK    1  A    between atoms: C4_4  and  C5_5 
REMARK    2  A    between atoms: C5_5  and  O1_6 
REMARK    3  A    between atoms: O1_6  and  C6_7 
REMARK    4  A    between atoms: C9_10  and  C10_11 
REMARK    5  A    between atoms: N1_15  and  C14_16 
REMARK    6  A    between atoms: C14_16  and  C16_18 
REMARK       I    between atoms: C16_18  and  N2_20 
REMARK    7  A    between atoms: N2_20  and  O3_22 
ROOT
HETATM    1  C6  UNL     1       7.498   8.009  28.965  1.00  0.00     0.069 A 
HETATM    2  C7  UNL     1       7.802   6.863  28.293  1.00  0.00     0.037 A 
HETATM    3  C8  UNL     1       7.158   6.670  27.026  1.00  0.00     0.011 A 
HETATM    4  C9  UNL     1       6.315   7.608  26.565  1.00  0.00    -0.040 A 
HETATM    5  C18 UNL     1       5.965   8.726  27.303  1.00  0.00     0.011 A 
HETATM    6  C19 UNL     1       6.600   8.916  28.552  1.00  0.00     0.037 A 
ENDROOT
BRANCH   4   7
HETATM    7  C10 UNL     1       6.166   7.634  25.056  1.00  0.00     0.066 C 
HETATM    8  C11 UNL     1       5.292   6.455  24.575  1.00  0.00     0.031 C 
HETATM    9  C12 UNL     1       7.430   7.571  24.289  1.00  0.00     0.044 C 
HETATM   10  C13 UNL     1       7.886   9.047  24.524  1.00  0.00     0.128 C 
HETATM   11  N1  UNL     1       6.634   9.717  24.159  1.00  0.00    -0.338 N 
HETATM   12  C17 UNL     1       5.538   8.858  24.576  1.00  0.00     0.233 C 
HETATM   13  O4  UNL     1       4.353   9.090  24.525  1.00  0.00    -0.272 OA
BRANCH  11  14
HETATM   14  C14 UNL     1       6.553  10.955  23.397  1.00  0.00     0.177 C 
HETATM   15  C15 UNL     1       5.790  12.003  24.023  1.00  0.00     0.042 C 
BRANCH  14  16
HETATM   16  C16 UNL     1       5.758  10.437  22.110  1.00  0.00     0.263 C 
HETATM   17  O2  UNL     1       6.394   9.749  21.269  1.00  0.00    -0.269 OA
HETATM   18  N2  UNL     1       4.439  10.763  21.953  1.00  0.00    -0.236 N 
ATOM     19  H2  UNL     1       4.009  11.426  22.597  1.00  0.00     0.197 HD
BRANCH  18  20
HETATM   20  O3  UNL     1       3.669  10.204  20.928  1.00  0.00    -0.287 OA
ATOM     21  H3  UNL     1       3.722   9.279  20.718  1.00  0.00     0.244 HD
ENDBRANCH  18  20
ENDBRANCH  14  16
ENDBRANCH  11  14
ENDBRANCH   4   7
BRANCH   1  22
HETATM   22  O1  UNL     1       8.190   8.285  30.179  1.00  0.00    -0.347 OA
BRANCH  22  23
HETATM   23  C5  UNL     1       9.590   7.807  29.932  1.00  0.00     0.215 C 
BRANCH  23  24
HETATM   24  C4  UNL     1       9.839   6.694  30.821  1.00  0.00    -0.020 A 
HETATM   25  C3  UNL     1       8.720   5.932  31.271  1.00  0.00     0.034 A 
HETATM   26  C2  UNL     1       8.942   4.729  31.748  1.00  0.00     0.006 A 
HETATM   27  C1  UNL     1       7.754   4.166  32.575  1.00  0.00     0.068 C 
HETATM   28  N3  UNL     1      10.072   4.032  31.853  1.00  0.00    -0.359 N 
HETATM   29  C25 UNL     1      11.179   4.741  31.465  1.00  0.00     0.043 A 
ATOM     30  H3  UNL     1      10.110   3.069  32.189  1.00  0.00     0.166 HD
HETATM   31  C20 UNL     1      11.034   6.062  30.973  1.00  0.00    -0.001 A 
HETATM   32  C24 UNL     1      12.469   4.249  31.464  1.00  0.00     0.030 A 
HETATM   33  C21 UNL     1      12.136   6.755  30.571  1.00  0.00     0.014 A 
HETATM   34  C22 UNL     1      13.393   6.267  30.563  1.00  0.00     0.001 A 
HETATM   35  C23 UNL     1      13.528   4.951  31.034  1.00  0.00     0.002 A 
ENDBRANCH  23  24
ENDBRANCH  22  23
ENDBRANCH   1  22
TORSDOF 7
ENDMDL
