MODEL 2
REMARK VINA RESULT: -8.654708334      5.028     10.377
REMARK  6 active torsions:
REMARK  status: ('A' for Active; 'I' for Inactive)
REMARK    1  A    between atoms: O1_2  and  C2_3 
REMARK    2  A    between atoms: C7_10  and  C8_11 
REMARK    3  A    between atoms: C8_11  and  C9_13 
REMARK    4  A    between atoms: C11_17  and  N2_18 
REMARK    5  A    between atoms: N2_18  and  C12_20 
REMARK    6  A    between atoms: N3_23  and  S1_24 
ROOT
HETATM    1  C9  UNL     1       3.170  27.856   8.682  1.00  0.00     0.073 A 
HETATM    2  C10 UNL     1       3.222  26.916   9.662  1.00  0.00     0.125 A 
HETATM    3  N1  UNL     1       2.159  26.744  10.465  1.00  0.00    -0.201 N 
ATOM      4  H1  UNL     1       2.223  26.031  11.192  1.00  0.00     0.183 HD
HETATM    5  C11 UNL     1       1.035  27.435  10.375  1.00  0.00     0.679 A 
HETATM    6  N4  UNL     1       0.982  28.378   9.397  1.00  0.00    -0.178 N 
ATOM      7  H4  UNL     1       0.134  28.935   9.297  1.00  0.00     0.185 HD
HETATM    8  C18 UNL     1       2.012  28.605   8.555  1.00  0.00     0.147 A 
HETATM    9  N5  UNL     1       1.961  29.585   7.536  1.00  0.00    -0.081 NA
ENDROOT
BRANCH   1  10
HETATM   10  C8  UNL     1       4.259  28.095   7.756  1.00  0.00     0.203 C 
HETATM   11  O2  UNL     1       4.995  29.129   7.874  1.00  0.00    -0.286 OA
BRANCH  10  12
HETATM   12  C7  UNL     1       4.576  27.201   6.666  1.00  0.00     0.090 A 
HETATM   13  C2  UNL     1       5.569  26.269   6.761  1.00  0.00     0.085 A 
HETATM   14  C3  UNL     1       5.906  25.396   5.735  1.00  0.00     0.041 A 
HETATM   15  C4  UNL     1       5.209  25.462   4.550  1.00  0.00     0.048 A 
HETATM   16  C5  UNL     1       4.203  26.395   4.435  1.00  0.00     0.156 A 
HETATM   17  F1  UNL     1       3.484  26.496   3.265  1.00  0.00    -0.203 F 
HETATM   18  C6  UNL     1       3.877  27.264   5.472  1.00  0.00     0.171 A 
HETATM   19  F2  UNL     1       2.883  28.131   5.270  1.00  0.00    -0.202 F 
BRANCH  13  20
HETATM   20  O1  UNL     1       6.257  26.233   7.991  1.00  0.00    -0.355 OA
HETATM   21  C1  UNL     1       7.263  25.268   8.141  1.00  0.00     0.210 C 
ENDBRANCH  13  20
ENDBRANCH  10  12
ENDBRANCH   1  10
BRANCH   5  22
HETATM   22  N2  UNL     1      -0.107  27.222  11.184  1.00  0.00    -0.221 N 
ATOM     23  H2  UNL     1      -0.209  27.738  12.058  1.00  0.00     0.178 HD
BRANCH  22  24
HETATM   24  C12 UNL     1      -1.131  26.279  10.782  1.00  0.00     0.101 C 
HETATM   25  C13 UNL     1      -0.736  24.849  11.043  1.00  0.00     0.041 C 
HETATM   26  C14 UNL     1      -1.750  24.099  11.873  1.00  0.00     0.109 C 
HETATM   27  N3  UNL     1      -1.877  24.821  13.116  1.00  0.00    -0.211 NA
HETATM   28  C16 UNL     1      -2.272  26.174  12.963  1.00  0.00     0.109 C 
HETATM   29  C17 UNL     1      -2.444  26.584  11.504  1.00  0.00     0.041 C 
BRANCH  27  30
HETATM   30  S1  UNL     1      -2.696  23.931  14.323  1.00  0.00     0.207 S 
HETATM   31  C15 UNL     1      -4.426  24.253  14.393  1.00  0.00     0.180 C 
HETATM   32  O3  UNL     1      -2.525  22.447  14.153  1.00  0.00    -0.212 OA
HETATM   33  O4  UNL     1      -2.093  24.303  15.665  1.00  0.00    -0.212 OA
ENDBRANCH  27  30
ENDBRANCH  22  24
ENDBRANCH   5  22
TORSDOF 6
ENDMDL
