MODEL 1
REMARK VINA RESULT: -8.698540176      0.000      0.000
REMARK  6 active torsions:
REMARK  status: ('A' for Active; 'I' for Inactive)
REMARK    1  A    between atoms: O1_2  and  C2_3 
REMARK    2  A    between atoms: C7_10  and  C8_11 
REMARK    3  A    between atoms: C8_11  and  C9_13 
REMARK    4  A    between atoms: C11_17  and  N2_18 
REMARK    5  A    between atoms: N2_18  and  C12_20 
REMARK    6  A    between atoms: N3_23  and  S1_24 
ROOT
HETATM    1  C9  UNL     1      -3.789  26.452  11.889  1.00  0.00     0.073 A 
HETATM    2  C10 UNL     1      -4.552  27.450  11.370  1.00  0.00     0.125 A 
HETATM    3  N1  UNL     1      -3.992  28.646  11.127  1.00  0.00    -0.201 N 
ATOM      4  H1  UNL     1      -4.586  29.379  10.736  1.00  0.00     0.183 HD
HETATM    5  C11 UNL     1      -2.724  28.939  11.360  1.00  0.00     0.679 A 
HETATM    6  N4  UNL     1      -1.960  27.943  11.884  1.00  0.00    -0.178 N 
ATOM      7  H4  UNL     1      -0.977  28.129  12.081  1.00  0.00     0.185 HD
HETATM    8  C18 UNL     1      -2.456  26.717  12.152  1.00  0.00     0.147 A 
HETATM    9  N5  UNL     1      -1.665  25.678  12.696  1.00  0.00    -0.081 NA
ENDROOT
BRANCH   1  10
HETATM   10  C8  UNL     1      -4.303  25.124  12.162  1.00  0.00     0.203 C 
HETATM   11  O2  UNL     1      -3.898  24.121  11.488  1.00  0.00    -0.286 OA
BRANCH  10  12
HETATM   12  C7  UNL     1      -5.283  24.855  13.189  1.00  0.00     0.090 A 
HETATM   13  C2  UNL     1      -4.922  24.501  14.458  1.00  0.00     0.085 A 
HETATM   14  C3  UNL     1      -5.833  24.230  15.469  1.00  0.00     0.041 A 
HETATM   15  C4  UNL     1      -7.179  24.320  15.195  1.00  0.00     0.048 A 
HETATM   16  C5  UNL     1      -7.563  24.678  13.921  1.00  0.00     0.156 A 
HETATM   17  F1  UNL     1      -8.899  24.774  13.604  1.00  0.00    -0.203 F 
HETATM   18  C6  UNL     1      -6.637  24.945  12.917  1.00  0.00     0.171 A 
HETATM   19  F2  UNL     1      -7.104  25.288  11.715  1.00  0.00    -0.202 F 
BRANCH  13  20
HETATM   20  O1  UNL     1      -3.535  24.422  14.698  1.00  0.00    -0.355 OA
HETATM   21  C1  UNL     1      -3.010  23.168  15.044  1.00  0.00     0.210 C 
ENDBRANCH  13  20
ENDBRANCH  10  12
ENDBRANCH   1  10
BRANCH   5  22
HETATM   22  N2  UNL     1      -2.116  30.181  11.058  1.00  0.00    -0.221 N 
ATOM     23  H2  UNL     1      -1.536  30.643  11.759  1.00  0.00     0.178 HD
BRANCH  22  24
HETATM   24  C12 UNL     1      -2.310  30.802   9.763  1.00  0.00     0.101 C 
HETATM   25  C13 UNL     1      -1.341  31.928   9.510  1.00  0.00     0.041 C 
HETATM   26  C14 UNL     1      -0.567  31.761   8.224  1.00  0.00     0.109 C 
HETATM   27  N3  UNL     1       0.136  30.506   8.328  1.00  0.00    -0.211 NA
HETATM   28  C16 UNL     1      -0.706  29.385   8.542  1.00  0.00     0.109 C 
HETATM   29  C17 UNL     1      -2.181  29.760   8.651  1.00  0.00     0.041 C 
BRANCH  27  30
HETATM   30  S1  UNL     1       1.346  30.320   7.136  1.00  0.00     0.207 S 
HETATM   31  C15 UNL     1       2.698  29.312   7.645  1.00  0.00     0.180 C 
HETATM   32  O3  UNL     1       0.808  29.733   5.862  1.00  0.00    -0.212 OA
HETATM   33  O4  UNL     1       1.888  31.699   6.803  1.00  0.00    -0.212 OA
ENDBRANCH  27  30
ENDBRANCH  22  24
ENDBRANCH   5  22
TORSDOF 6
ENDMDL
