MODEL 3
REMARK VINA RESULT: -8.621093376      5.256      9.599
REMARK  6 active torsions:
REMARK  status: ('A' for Active; 'I' for Inactive)
REMARK    1  A    between atoms: O1_2  and  C2_3 
REMARK    2  A    between atoms: C7_10  and  C8_11 
REMARK    3  A    between atoms: C8_11  and  C9_13 
REMARK    4  A    between atoms: C11_17  and  N2_18 
REMARK    5  A    between atoms: N2_18  and  C12_20 
REMARK    6  A    between atoms: N3_23  and  S1_24 
ROOT
HETATM    1  C9  UNL     1       3.192  27.413   8.606  1.00  0.00     0.073 A 
HETATM    2  C10 UNL     1       3.340  26.411   9.512  1.00  0.00     0.125 A 
HETATM    3  N1  UNL     1       2.286  26.036  10.254  1.00  0.00    -0.201 N 
ATOM      4  H1  UNL     1       2.422  25.280  10.927  1.00  0.00     0.183 HD
HETATM    5  C11 UNL     1       1.083  26.580  10.173  1.00  0.00     0.679 A 
HETATM    6  N4  UNL     1       0.934  27.585   9.270  1.00  0.00    -0.178 N 
ATOM      7  H4  UNL     1       0.023  28.034   9.178  1.00  0.00     0.185 HD
HETATM    8  C18 UNL     1       1.949  28.012   8.490  1.00  0.00     0.147 A 
HETATM    9  N5  UNL     1       1.799  29.058   7.549  1.00  0.00    -0.081 NA
ENDROOT
BRANCH   1  10
HETATM   10  C8  UNL     1       4.267  27.867   7.747  1.00  0.00     0.203 C 
HETATM   11  O2  UNL     1       4.863  28.970   7.980  1.00  0.00    -0.286 OA
BRANCH  10  12
HETATM   12  C7  UNL     1       4.724  27.121   6.596  1.00  0.00     0.090 A 
HETATM   13  C2  UNL     1       5.798  26.279   6.662  1.00  0.00     0.085 A 
HETATM   14  C3  UNL     1       6.270  25.549   5.579  1.00  0.00     0.041 A 
HETATM   15  C4  UNL     1       5.631  25.670   4.366  1.00  0.00     0.048 A 
HETATM   16  C5  UNL     1       4.545  26.513   4.281  1.00  0.00     0.156 A 
HETATM   17  F1  UNL     1       3.881  26.666   3.085  1.00  0.00    -0.203 F 
HETATM   18  C6  UNL     1       4.085  27.239   5.375  1.00  0.00     0.171 A 
HETATM   19  F2  UNL     1       3.023  28.028   5.197  1.00  0.00    -0.202 F 
BRANCH  13  20
HETATM   20  O1  UNL     1       6.423  26.182   7.922  1.00  0.00    -0.355 OA
HETATM   21  C1  UNL     1       7.182  25.032   8.180  1.00  0.00     0.210 C 
ENDBRANCH  13  20
ENDBRANCH  10  12
ENDBRANCH   1  10
BRANCH   5  22
HETATM   22  N2  UNL     1      -0.045  26.155  10.916  1.00  0.00    -0.221 N 
ATOM     23  H2  UNL     1      -0.463  25.245  10.722  1.00  0.00     0.178 HD
BRANCH  22  24
HETATM   24  C12 UNL     1      -0.609  26.999  11.949  1.00  0.00     0.101 C 
HETATM   25  C13 UNL     1       0.062  28.346  12.027  1.00  0.00     0.041 C 
HETATM   26  C14 UNL     1      -0.911  29.496  11.922  1.00  0.00     0.109 C 
HETATM   27  N3  UNL     1      -1.590  29.345  10.659  1.00  0.00    -0.211 NA
HETATM   28  C16 UNL     1      -2.272  28.111  10.511  1.00  0.00     0.109 C 
HETATM   29  C17 UNL     1      -2.109  27.191  11.717  1.00  0.00     0.041 C 
BRANCH  27  30
HETATM   30  S1  UNL     1      -2.457  30.743  10.197  1.00  0.00     0.207 S 
HETATM   31  C15 UNL     1      -1.433  32.131   9.844  1.00  0.00     0.180 C 
HETATM   32  O3  UNL     1      -3.321  30.507   8.990  1.00  0.00    -0.212 OA
HETATM   33  O4  UNL     1      -3.379  31.118  11.344  1.00  0.00    -0.212 OA
ENDBRANCH  27  30
ENDBRANCH  22  24
ENDBRANCH   5  22
TORSDOF 6
ENDMDL
