MODEL 20
REMARK VINA RESULT: -8.137131880      4.994      7.676
REMARK  6 active torsions:
REMARK  status: ('A' for Active; 'I' for Inactive)
REMARK    1  A    between atoms: O1_2  and  C2_3 
REMARK    2  A    between atoms: C7_10  and  C8_11 
REMARK    3  A    between atoms: C8_11  and  C9_13 
REMARK    4  A    between atoms: C11_17  and  N2_18 
REMARK    5  A    between atoms: N2_18  and  C12_20 
REMARK    6  A    between atoms: N3_23  and  S1_24 
ROOT
HETATM    1  C9  UNL     1       0.452  29.971   7.802  1.00  0.00     0.073 A 
HETATM    2  C10 UNL     1       0.544  28.615   7.848  1.00  0.00     0.125 A 
HETATM    3  N1  UNL     1       1.496  27.997   7.130  1.00  0.00    -0.201 N 
ATOM      4  H1  UNL     1       1.545  26.979   7.181  1.00  0.00     0.183 HD
HETATM    5  C11 UNL     1       2.373  28.619   6.360  1.00  0.00     0.679 A 
HETATM    6  N4  UNL     1       2.280  29.975   6.310  1.00  0.00    -0.178 N 
ATOM      7  H4  UNL     1       2.937  30.492   5.726  1.00  0.00     0.185 HD
HETATM    8  C18 UNL     1       1.350  30.661   7.006  1.00  0.00     0.147 A 
HETATM    9  N5  UNL     1       1.249  32.072   6.957  1.00  0.00    -0.081 NA
ENDROOT
BRANCH   1  10
HETATM   10  C8  UNL     1      -0.528  30.723   8.560  1.00  0.00     0.203 C 
HETATM   11  O2  UNL     1      -0.523  31.997   8.544  1.00  0.00    -0.286 OA
BRANCH  10  12
HETATM   12  C7  UNL     1      -1.550  30.095   9.366  1.00  0.00     0.090 A 
HETATM   13  C2  UNL     1      -1.291  29.624  10.623  1.00  0.00     0.085 A 
HETATM   14  C3  UNL     1      -2.244  29.012  11.425  1.00  0.00     0.041 A 
HETATM   15  C4  UNL     1      -3.525  28.865  10.944  1.00  0.00     0.048 A 
HETATM   16  C5  UNL     1      -3.805  29.334   9.680  1.00  0.00     0.156 A 
HETATM   17  F1  UNL     1      -5.073  29.202   9.160  1.00  0.00    -0.203 F 
HETATM   18  C6  UNL     1      -2.839  29.945   8.886  1.00  0.00     0.171 A 
HETATM   19  F2  UNL     1      -3.206  30.373   7.677  1.00  0.00    -0.202 F 
BRANCH  13  20
HETATM   20  O1  UNL     1       0.032  29.796  11.079  1.00  0.00    -0.355 OA
HETATM   21  C1  UNL     1       0.694  28.666  11.579  1.00  0.00     0.210 C 
ENDBRANCH  13  20
ENDBRANCH  10  12
ENDBRANCH   1  10
BRANCH   5  22
HETATM   22  N2  UNL     1       3.411  27.977   5.642  1.00  0.00    -0.221 N 
ATOM     23  H2  UNL     1       3.249  27.678   4.680  1.00  0.00     0.178 HD
BRANCH  22  24
HETATM   24  C12 UNL     1       4.700  27.741   6.261  1.00  0.00     0.101 C 
HETATM   25  C13 UNL     1       4.592  27.472   7.740  1.00  0.00     0.041 C 
HETATM   26  C14 UNL     1       5.252  26.178   8.153  1.00  0.00     0.109 C 
HETATM   27  N3  UNL     1       4.604  25.130   7.403  1.00  0.00    -0.211 NA
HETATM   28  C16 UNL     1       4.681  25.291   5.996  1.00  0.00     0.109 C 
HETATM   29  C17 UNL     1       5.407  26.567   5.581  1.00  0.00     0.041 C 
BRANCH  27  30
HETATM   30  S1  UNL     1       4.957  23.568   8.001  1.00  0.00     0.207 S 
HETATM   31  C15 UNL     1       6.644  23.345   8.454  1.00  0.00     0.180 C 
HETATM   32  O3  UNL     1       4.122  23.213   9.199  1.00  0.00    -0.212 OA
HETATM   33  O4  UNL     1       4.628  22.567   6.908  1.00  0.00    -0.212 OA
ENDBRANCH  27  30
ENDBRANCH  22  24
ENDBRANCH   5  22
TORSDOF 6
ENDMDL
