MODEL 1
REMARK VINA RESULT: -7.016868287      0.000      0.000
REMARK  6 active torsions:
REMARK  status: ('A' for Active; 'I' for Inactive)
REMARK    1  A    between atoms: C1_2  and  C2_4 
REMARK    2  A    between atoms: C2_4  and  C3_5 
REMARK    3  A    between atoms: C3_5  and  O3_6 
REMARK    4  A    between atoms: C3_5  and  C4_8 
REMARK    5  A    between atoms: C3_5  and  C6_12 
REMARK    6  A    between atoms: C4_8  and  C5_9 
ROOT
HETATM    1  C3  UNL     1      35.951  65.131-151.120  1.00  0.00     0.164 C 
ENDROOT
BRANCH   1   2
HETATM    2  C2  UNL     1      35.942  64.896-152.581  1.00  0.00     0.163 C 
BRANCH   2   3
HETATM    3  C1  UNL     1      37.003  64.027-153.118  1.00  0.00     0.176 C 
HETATM    4  O1  UNL     1      37.992  64.559-153.673  1.00  0.00    -0.648 OA
HETATM    5  O2  UNL     1      36.999  62.642-153.060  1.00  0.00    -0.648 OA
ENDBRANCH   2   3
ENDBRANCH   1   2
BRANCH   1   6
HETATM    6  O3  UNL     1      36.342  63.944-150.492  1.00  0.00    -0.378 OA
ATOM      7  H3  UNL     1      37.288  63.876-150.552  1.00  0.00     0.211 HD
ENDBRANCH   1   6
BRANCH   1   8
HETATM    8  C4  UNL     1      34.704  65.649-150.500  1.00  0.00     0.163 C 
BRANCH   8   9
HETATM    9  C5  UNL     1      34.806  66.004-149.069  1.00  0.00     0.176 C 
HETATM   10  O4  UNL     1      34.857  67.202-148.731  1.00  0.00    -0.648 OA
HETATM   11  O5  UNL     1      34.842  64.968-148.149  1.00  0.00    -0.648 OA
ENDBRANCH   8   9
ENDBRANCH   1   8
BRANCH   1  12
HETATM   12  C6  UNL     1      37.005  66.146-150.853  1.00  0.00     0.210 C 
HETATM   13  O6  UNL     1      37.982  65.811-150.154  1.00  0.00    -0.646 OA
HETATM   14  O7  UNL     1      36.930  67.425-151.353  1.00  0.00    -0.646 OA
ENDBRANCH   1  12
TORSDOF 6
ENDMDL
