MODEL 2
REMARK VINA RESULT: -6.968820826      0.127      1.272
REMARK  6 active torsions:
REMARK  status: ('A' for Active; 'I' for Inactive)
REMARK    1  A    between atoms: C1_2  and  C2_4 
REMARK    2  A    between atoms: C2_4  and  C3_5 
REMARK    3  A    between atoms: C3_5  and  O3_6 
REMARK    4  A    between atoms: C3_5  and  C4_8 
REMARK    5  A    between atoms: C3_5  and  C6_12 
REMARK    6  A    between atoms: C4_8  and  C5_9 
ROOT
HETATM    1  C3  UNL     1      35.904  65.067-151.159  1.00  0.00     0.164 C 
ENDROOT
BRANCH   1   2
HETATM    2  C2  UNL     1      35.864  64.839-152.621  1.00  0.00     0.163 C 
BRANCH   2   3
HETATM    3  C1  UNL     1      36.957  64.035-153.194  1.00  0.00     0.176 C 
HETATM    4  O1  UNL     1      37.858  64.620-153.839  1.00  0.00    -0.648 OA
HETATM    5  O2  UNL     1      37.075  62.659-153.079  1.00  0.00    -0.648 OA
ENDBRANCH   2   3
ENDBRANCH   1   2
BRANCH   1   6
HETATM    6  O3  UNL     1      36.334  63.886-150.546  1.00  0.00    -0.378 OA
ATOM      7  H3  UNL     1      37.284  63.882-150.546  1.00  0.00     0.211 HD
ENDBRANCH   1   6
BRANCH   1   8
HETATM    8  C4  UNL     1      34.662  65.558-150.507  1.00  0.00     0.163 C 
BRANCH   8   9
HETATM    9  C5  UNL     1      34.781  65.871-149.068  1.00  0.00     0.176 C 
HETATM   10  O4  UNL     1      34.794  64.947-148.233  1.00  0.00    -0.648 OA
HETATM   11  O5  UNL     1      34.875  67.206-148.705  1.00  0.00    -0.648 OA
ENDBRANCH   8   9
ENDBRANCH   1   8
BRANCH   1  12
HETATM   12  C6  UNL     1      36.943  66.103-150.913  1.00  0.00     0.210 C 
HETATM   13  O6  UNL     1      36.797  67.222-151.444  1.00  0.00    -0.646 OA
HETATM   14  O7  UNL     1      38.044  65.859-150.126  1.00  0.00    -0.646 OA
ENDBRANCH   1  12
TORSDOF 6
ENDMDL
