MODEL 7
REMARK VINA RESULT: -6.602304240      1.409      4.273
REMARK  6 active torsions:
REMARK  status: ('A' for Active; 'I' for Inactive)
REMARK    1  A    between atoms: C1_2  and  C2_4 
REMARK    2  A    between atoms: C2_4  and  C3_5 
REMARK    3  A    between atoms: C3_5  and  O3_6 
REMARK    4  A    between atoms: C3_5  and  C4_8 
REMARK    5  A    between atoms: C3_5  and  C6_12 
REMARK    6  A    between atoms: C4_8  and  C5_9 
ROOT
HETATM    1  C3  UNL     1      36.145  65.510-151.001  1.00  0.00     0.164 C 
ENDROOT
BRANCH   1   2
HETATM    2  C2  UNL     1      35.501  64.868-149.833  1.00  0.00     0.163 C 
BRANCH   2   3
HETATM    3  C1  UNL     1      34.762  65.753-148.916  1.00  0.00     0.176 C 
HETATM    4  O1  UNL     1      33.748  66.351-149.346  1.00  0.00    -0.648 OA
HETATM    5  O2  UNL     1      35.100  65.985-147.592  1.00  0.00    -0.648 OA
ENDBRANCH   2   3
ENDBRANCH   1   2
BRANCH   1   6
HETATM    6  O3  UNL     1      35.169  66.237-151.690  1.00  0.00    -0.378 OA
ATOM      7  H3  UNL     1      35.484  67.127-151.796  1.00  0.00     0.211 HD
ENDBRANCH   1   6
BRANCH   1   8
HETATM    8  C4  UNL     1      36.887  64.633-151.944  1.00  0.00     0.163 C 
BRANCH   8   9
HETATM    9  C5  UNL     1      36.923  65.095-153.347  1.00  0.00     0.176 C 
HETATM   10  O4  UNL     1      36.012  64.765-154.130  1.00  0.00    -0.648 OA
HETATM   11  O5  UNL     1      37.990  65.890-153.736  1.00  0.00    -0.648 OA
ENDBRANCH   8   9
ENDBRANCH   1   8
BRANCH   1  12
HETATM   12  C6  UNL     1      37.134  66.484-150.467  1.00  0.00     0.210 C 
HETATM   13  O6  UNL     1      38.130  66.040-149.861  1.00  0.00    -0.646 OA
HETATM   14  O7  UNL     1      36.980  67.841-150.624  1.00  0.00    -0.646 OA
ENDBRANCH   1  12
TORSDOF 6
ENDMDL
