MODEL 6
REMARK VINA RESULT: -6.642254187      1.106      4.377
REMARK  6 active torsions:
REMARK  status: ('A' for Active; 'I' for Inactive)
REMARK    1  A    between atoms: C1_2  and  C2_4 
REMARK    2  A    between atoms: C2_4  and  C3_5 
REMARK    3  A    between atoms: C3_5  and  O3_6 
REMARK    4  A    between atoms: C3_5  and  C4_8 
REMARK    5  A    between atoms: C3_5  and  C6_12 
REMARK    6  A    between atoms: C4_8  and  C5_9 
ROOT
HETATM    1  C3  UNL     1      35.929  65.360-151.037  1.00  0.00     0.164 C 
ENDROOT
BRANCH   1   2
HETATM    2  C2  UNL     1      35.348  65.023-149.718  1.00  0.00     0.163 C 
BRANCH   2   3
HETATM    3  C1  UNL     1      35.098  66.146-148.799  1.00  0.00     0.176 C 
HETATM    4  O1  UNL     1      35.073  65.919-147.567  1.00  0.00    -0.648 OA
HETATM    5  O2  UNL     1      34.883  67.458-149.189  1.00  0.00    -0.648 OA
ENDBRANCH   2   3
ENDBRANCH   1   2
BRANCH   1   6
HETATM    6  O3  UNL     1      35.053  66.237-151.686  1.00  0.00    -0.378 OA
ATOM      7  H3  UNL     1      35.145  66.106-152.623  1.00  0.00     0.211 HD
ENDBRANCH   1   6
BRANCH   1   8
HETATM    8  C4  UNL     1      36.285  64.235-151.939  1.00  0.00     0.163 C 
BRANCH   8   9
HETATM    9  C5  UNL     1      36.885  64.623-153.233  1.00  0.00     0.176 C 
HETATM   10  O4  UNL     1      36.192  65.214-154.083  1.00  0.00    -0.648 OA
HETATM   11  O5  UNL     1      38.217  64.305-153.447  1.00  0.00    -0.648 OA
ENDBRANCH   8   9
ENDBRANCH   1   8
BRANCH   1  12
HETATM   12  C6  UNL     1      37.191  66.103-150.775  1.00  0.00     0.210 C 
HETATM   13  O6  UNL     1      37.340  67.219-151.314  1.00  0.00    -0.646 OA
HETATM   14  O7  UNL     1      38.181  65.599-149.965  1.00  0.00    -0.646 OA
ENDBRANCH   1  12
TORSDOF 6
ENDMDL
