MODEL 3
REMARK VINA RESULT: -6.304830279      1.284      2.961
REMARK  6 active torsions:
REMARK  status: ('A' for Active; 'I' for Inactive)
REMARK    1  A    between atoms: C1_2  and  C2_4 
REMARK    2  A    between atoms: C2_4  and  C3_5 
REMARK    3  A    between atoms: C3_5  and  O3_6 
REMARK    4  A    between atoms: C3_5  and  C4_8 
REMARK    5  A    between atoms: C3_5  and  C6_12 
REMARK    6  A    between atoms: C4_8  and  C5_9 
ROOT
HETATM    1  C3  UNL     1      36.023  65.100-150.965  1.00  0.00     0.164 C 
ENDROOT
BRANCH   1   2
HETATM    2  C2  UNL     1      35.992  64.822-152.418  1.00  0.00     0.163 C 
BRANCH   2   3
HETATM    3  C1  UNL     1      37.106  64.029-152.964  1.00  0.00     0.176 C 
HETATM    4  O1  UNL     1      37.015  62.779-152.956  1.00  0.00    -0.648 OA
HETATM    5  O2  UNL     1      38.270  64.559-153.499  1.00  0.00    -0.648 OA
ENDBRANCH   2   3
ENDBRANCH   1   2
BRANCH   1   6
HETATM    6  O3  UNL     1      36.485  63.952-150.313  1.00  0.00    -0.378 OA
ATOM      7  H3  UNL     1      37.429  63.914-150.415  1.00  0.00     0.211 HD
ENDBRANCH   1   6
BRANCH   1   8
HETATM    8  C4  UNL     1      34.768  65.578-150.329  1.00  0.00     0.163 C 
BRANCH   8   9
HETATM    9  C5  UNL     1      34.851  65.841-148.878  1.00  0.00     0.176 C 
HETATM   10  O4  UNL     1      34.874  64.887-148.077  1.00  0.00    -0.648 OA
HETATM   11  O5  UNL     1      34.900  67.163-148.464  1.00  0.00    -0.648 OA
ENDBRANCH   8   9
ENDBRANCH   1   8
BRANCH   1  12
HETATM   12  C6  UNL     1      37.034  66.171-150.753  1.00  0.00     0.210 C 
HETATM   13  O6  UNL     1      36.834  67.283-151.282  1.00  0.00    -0.646 OA
HETATM   14  O7  UNL     1      38.167  65.967-150.000  1.00  0.00    -0.646 OA
ENDBRANCH   1  12
TORSDOF 6
ENDMDL
