MODEL 5
REMARK VINA RESULT: -6.259279313      1.147      4.284
REMARK  6 active torsions:
REMARK  status: ('A' for Active; 'I' for Inactive)
REMARK    1  A    between atoms: C1_2  and  C2_4 
REMARK    2  A    between atoms: C2_4  and  C3_5 
REMARK    3  A    between atoms: C3_5  and  O3_6 
REMARK    4  A    between atoms: C3_5  and  C4_8 
REMARK    5  A    between atoms: C3_5  and  C6_12 
REMARK    6  A    between atoms: C4_8  and  C5_9 
ROOT
HETATM    1  C3  UNL     1      36.528  65.944-151.047  1.00  0.00     0.164 C 
ENDROOT
BRANCH   1   2
HETATM    2  C2  UNL     1      36.053  65.138-149.900  1.00  0.00     0.163 C 
BRANCH   2   3
HETATM    3  C1  UNL     1      35.072  65.775-149.005  1.00  0.00     0.176 C 
HETATM    4  O1  UNL     1      35.292  65.771-147.772  1.00  0.00    -0.648 OA
HETATM    5  O2  UNL     1      33.902  66.392-149.421  1.00  0.00    -0.648 OA
ENDBRANCH   2   3
ENDBRANCH   1   2
BRANCH   1   6
HETATM    6  O3  UNL     1      35.417  66.541-151.649  1.00  0.00    -0.378 OA
ATOM      7  H3  UNL     1      34.692  66.502-151.036  1.00  0.00     0.211 HD
ENDBRANCH   1   6
BRANCH   1   8
HETATM    8  C4  UNL     1      37.357  65.257-152.072  1.00  0.00     0.163 C 
BRANCH   8   9
HETATM    9  C5  UNL     1      36.619  64.367-152.992  1.00  0.00     0.176 C 
HETATM   10  O4  UNL     1      35.973  64.855-153.939  1.00  0.00    -0.648 OA
HETATM   11  O5  UNL     1      36.681  63.003-152.756  1.00  0.00    -0.648 OA
ENDBRANCH   8   9
ENDBRANCH   1   8
BRANCH   1  12
HETATM   12  C6  UNL     1      37.372  67.033-150.487  1.00  0.00     0.210 C 
HETATM   13  O6  UNL     1      36.939  68.202-150.543  1.00  0.00    -0.646 OA
HETATM   14  O7  UNL     1      38.599  66.787-149.916  1.00  0.00    -0.646 OA
ENDBRANCH   1  12
TORSDOF 6
ENDMDL
