MODEL 9
REMARK VINA RESULT: -6.115528420      1.172      3.310
REMARK  6 active torsions:
REMARK  status: ('A' for Active; 'I' for Inactive)
REMARK    1  A    between atoms: C1_2  and  C2_4 
REMARK    2  A    between atoms: C2_4  and  C3_5 
REMARK    3  A    between atoms: C3_5  and  O3_6 
REMARK    4  A    between atoms: C3_5  and  C4_8 
REMARK    5  A    between atoms: C3_5  and  C6_12 
REMARK    6  A    between atoms: C4_8  and  C5_9 
ROOT
HETATM    1  C3  UNL     1      37.132  65.664-150.530  1.00  0.00     0.164 C 
ENDROOT
BRANCH   1   2
HETATM    2  C2  UNL     1      37.671  64.951-151.710  1.00  0.00     0.163 C 
BRANCH   2   3
HETATM    3  C1  UNL     1      36.690  64.325-152.611  1.00  0.00     0.176 C 
HETATM    4  O1  UNL     1      36.286  63.168-152.349  1.00  0.00    -0.648 OA
HETATM    5  O2  UNL     1      36.162  64.920-153.747  1.00  0.00    -0.648 OA
ENDBRANCH   2   3
ENDBRANCH   1   2
BRANCH   1   6
HETATM    6  O3  UNL     1      37.596  65.015-149.381  1.00  0.00    -0.378 OA
ATOM      7  H3  UNL     1      37.150  65.389-148.630  1.00  0.00     0.211 HD
ENDBRANCH   1   6
BRANCH   1   8
HETATM    8  C4  UNL     1      35.659  65.848-150.453  1.00  0.00     0.163 C 
BRANCH   8   9
HETATM    9  C5  UNL     1      35.121  66.102-149.100  1.00  0.00     0.176 C 
HETATM   10  O4  UNL     1      34.857  67.268-148.748  1.00  0.00    -0.648 OA
HETATM   11  O5  UNL     1      34.931  65.011-148.267  1.00  0.00    -0.648 OA
ENDBRANCH   8   9
ENDBRANCH   1   8
BRANCH   1  12
HETATM   12  C6  UNL     1      37.725  67.028-150.542  1.00  0.00     0.210 C 
HETATM   13  O6  UNL     1      37.032  67.968-150.982  1.00  0.00    -0.646 OA
HETATM   14  O7  UNL     1      38.999  67.275-150.086  1.00  0.00    -0.646 OA
ENDBRANCH   1  12
TORSDOF 6
ENDMDL
