MODEL 4
REMARK VINA RESULT: -6.267749159      1.297      2.843
REMARK  6 active torsions:
REMARK  status: ('A' for Active; 'I' for Inactive)
REMARK    1  A    between atoms: C1_2  and  C2_4 
REMARK    2  A    between atoms: C2_4  and  C3_5 
REMARK    3  A    between atoms: C3_5  and  O3_6 
REMARK    4  A    between atoms: C3_5  and  C4_8 
REMARK    5  A    between atoms: C3_5  and  C6_12 
REMARK    6  A    between atoms: C4_8  and  C5_9 
ROOT
HETATM    1  C3  UNL     1      36.076  65.110-151.053  1.00  0.00     0.164 C 
ENDROOT
BRANCH   1   2
HETATM    2  C2  UNL     1      36.110  64.890-152.517  1.00  0.00     0.163 C 
BRANCH   2   3
HETATM    3  C1  UNL     1      37.209  64.059-153.036  1.00  0.00     0.176 C 
HETATM    4  O1  UNL     1      38.222  64.628-153.505  1.00  0.00    -0.648 OA
HETATM    5  O2  UNL     1      37.219  62.673-153.049  1.00  0.00    -0.648 OA
ENDBRANCH   2   3
ENDBRANCH   1   2
BRANCH   1   6
HETATM    6  O3  UNL     1      36.481  63.927-150.427  1.00  0.00    -0.378 OA
ATOM      7  H3  UNL     1      37.150  64.145-149.788  1.00  0.00     0.211 HD
ENDBRANCH   1   6
BRANCH   1   8
HETATM    8  C4  UNL     1      34.801  65.591-150.460  1.00  0.00     0.163 C 
BRANCH   8   9
HETATM    9  C5  UNL     1      34.867  65.965-149.032  1.00  0.00     0.176 C 
HETATM   10  O4  UNL     1      34.884  65.075-148.160  1.00  0.00    -0.648 OA
HETATM   11  O5  UNL     1      34.906  67.315-148.721  1.00  0.00    -0.648 OA
ENDBRANCH   8   9
ENDBRANCH   1   8
BRANCH   1  12
HETATM   12  C6  UNL     1      37.097  66.148-150.750  1.00  0.00     0.210 C 
HETATM   13  O6  UNL     1      38.052  65.837-150.011  1.00  0.00    -0.646 OA
HETATM   14  O7  UNL     1      37.016  67.423-151.259  1.00  0.00    -0.646 OA
ENDBRANCH   1  12
TORSDOF 6
ENDMDL
