MODEL 18
REMARK VINA RESULT: -4.262520944      1.435      2.399
REMARK  0 active torsions:
REMARK  status: ('A' for Active; 'I' for Inactive)
ROOT
HETATM    1  N1  UNL     1      43.284  -0.244  32.525  1.00  0.00    -0.063 NA
HETATM    2  C1  UNL     1      43.223  -1.091  31.377  1.00  0.00     0.193 A 
HETATM    3  N2  UNL     1      43.979  -1.016  30.271  1.00  0.00    -0.329 N 
ATOM      4  H2  UNL     1      44.712  -0.324  30.110  1.00  0.00     0.168 HD
HETATM    5  C2  UNL     1      43.630  -1.992  29.399  1.00  0.00     0.061 A 
HETATM    6  C3  UNL     1      44.049  -2.384  28.151  1.00  0.00     0.032 A 
HETATM    7  C4  UNL     1      43.487  -3.462  27.471  1.00  0.00     0.002 A 
HETATM    8  C5  UNL     1      42.468  -4.155  28.092  1.00  0.00     0.002 A 
HETATM    9  C6  UNL     1      42.020  -3.795  29.342  1.00  0.00     0.032 A 
HETATM   10  C7  UNL     1      42.610  -2.707  29.991  1.00  0.00     0.061 A 
HETATM   11  N3  UNL     1      42.391  -2.128  31.193  1.00  0.00    -0.329 N 
ATOM     12  H3  UNL     1      41.691  -2.437  31.867  1.00  0.00     0.168 HD
ENDROOT
TORSDOF 0
ENDMDL
