MODEL 4
REMARK VINA RESULT: -5.554203370      2.505      3.869
REMARK  0 active torsions:
REMARK  status: ('A' for Active; 'I' for Inactive)
ROOT
HETATM    1  N1  UNL     1      44.340  -3.585  24.464  1.00  0.00    -0.063 NA
HETATM    2  C1  UNL     1      43.984  -3.291  25.816  1.00  0.00     0.193 A 
HETATM    3  N2  UNL     1      43.178  -4.004  26.618  1.00  0.00    -0.329 N 
ATOM      4  H2  UNL     1      42.705  -4.868  26.352  1.00  0.00     0.168 HD
HETATM    5  C2  UNL     1      43.082  -3.410  27.831  1.00  0.00     0.061 A 
HETATM    6  C3  UNL     1      42.420  -3.682  29.004  1.00  0.00     0.032 A 
HETATM    7  C4  UNL     1      42.510  -2.866  30.129  1.00  0.00     0.002 A 
HETATM    8  C5  UNL     1      43.303  -1.739  30.044  1.00  0.00     0.002 A 
HETATM    9  C6  UNL     1      43.982  -1.431  28.888  1.00  0.00     0.032 A 
HETATM   10  C7  UNL     1      43.866  -2.276  27.782  1.00  0.00     0.061 A 
HETATM   11  N3  UNL     1      44.398  -2.239  26.540  1.00  0.00    -0.329 N 
ATOM     12  H3  UNL     1      45.027  -1.512  26.199  1.00  0.00     0.168 HD
ENDROOT
TORSDOF 0
ENDMDL
