MODEL 17
REMARK VINA RESULT: -4.276216574      2.513      4.181
REMARK  0 active torsions:
REMARK  status: ('A' for Active; 'I' for Inactive)
ROOT
HETATM    1  N1  UNL     1      44.429  -0.976  29.118  1.00  0.00    -0.063 NA
HETATM    2  C1  UNL     1      43.046  -1.163  29.423  1.00  0.00     0.193 A 
HETATM    3  N2  UNL     1      42.275  -2.211  29.093  1.00  0.00    -0.329 N 
ATOM      4  H2  UNL     1      42.592  -3.026  28.567  1.00  0.00     0.168 HD
HETATM    5  C2  UNL     1      41.016  -2.030  29.558  1.00  0.00     0.061 A 
HETATM    6  C3  UNL     1      39.846  -2.749  29.520  1.00  0.00     0.032 A 
HETATM    7  C4  UNL     1      38.665  -2.301  30.104  1.00  0.00     0.002 A 
HETATM    8  C5  UNL     1      38.687  -1.079  30.746  1.00  0.00     0.002 A 
HETATM    9  C6  UNL     1      39.839  -0.328  30.808  1.00  0.00     0.032 A 
HETATM   10  C7  UNL     1      41.004  -0.814  30.209  1.00  0.00     0.061 A 
HETATM   11  N3  UNL     1      42.257  -0.318  30.105  1.00  0.00    -0.329 N 
ATOM     12  H3  UNL     1      42.561   0.576  30.491  1.00  0.00     0.168 HD
ENDROOT
TORSDOF 0
ENDMDL
