MODEL 3
REMARK VINA RESULT: -5.575879814      2.490      4.229
REMARK  0 active torsions:
REMARK  status: ('A' for Active; 'I' for Inactive)
ROOT
HETATM    1  N1  UNL     1      44.324  -3.614  24.521  1.00  0.00    -0.063 NA
HETATM    2  C1  UNL     1      43.999  -3.277  25.870  1.00  0.00     0.193 A 
HETATM    3  N2  UNL     1      44.473  -2.246  26.587  1.00  0.00    -0.329 N 
ATOM      4  H2  UNL     1      45.144  -1.556  26.246  1.00  0.00     0.168 HD
HETATM    5  C2  UNL     1      43.933  -2.252  27.829  1.00  0.00     0.061 A 
HETATM    6  C3  UNL     1      44.047  -1.465  28.949  1.00  0.00     0.032 A 
HETATM    7  C4  UNL     1      43.347  -1.721  30.125  1.00  0.00     0.002 A 
HETATM    8  C5  UNL     1      42.506  -2.815  30.149  1.00  0.00     0.002 A 
HETATM    9  C6  UNL     1      42.362  -3.627  29.048  1.00  0.00     0.032 A 
HETATM   10  C7  UNL     1      43.083  -3.337  27.887  1.00  0.00     0.061 A 
HETATM   11  N3  UNL     1      43.151  -3.935  26.676  1.00  0.00    -0.329 N 
ATOM     12  H3  UNL     1      42.629  -4.770  26.411  1.00  0.00     0.168 HD
ENDROOT
TORSDOF 0
ENDMDL
