MODEL 16
REMARK VINA RESULT: -4.284867856      1.650      2.760
REMARK  0 active torsions:
REMARK  status: ('A' for Active; 'I' for Inactive)
ROOT
HETATM    1  N1  UNL     1      39.681   0.556  31.486  1.00  0.00    -0.063 NA
HETATM    2  C1  UNL     1      40.578  -0.273  30.746  1.00  0.00     0.193 A 
HETATM    3  N2  UNL     1      41.873  -0.036  30.481  1.00  0.00    -0.329 N 
ATOM      4  H2  UNL     1      42.390   0.789  30.785  1.00  0.00     0.168 HD
HETATM    5  C2  UNL     1      42.394  -1.053  29.753  1.00  0.00     0.061 A 
HETATM    6  C3  UNL     1      43.625  -1.339  29.215  1.00  0.00     0.032 A 
HETATM    7  C4  UNL     1      43.879  -2.499  28.488  1.00  0.00     0.002 A 
HETATM    8  C5  UNL     1      42.839  -3.389  28.309  1.00  0.00     0.002 A 
HETATM    9  C6  UNL     1      41.591  -3.139  28.833  1.00  0.00     0.032 A 
HETATM   10  C7  UNL     1      41.376  -1.963  29.557  1.00  0.00     0.061 A 
HETATM   11  N3  UNL     1      40.289  -1.453  30.176  1.00  0.00    -0.329 N 
ATOM     12  H3  UNL     1      39.374  -1.903  30.206  1.00  0.00     0.168 HD
ENDROOT
TORSDOF 0
ENDMDL
