MODEL 3
REMARK VINA RESULT: -6.975368448      1.662      3.138
REMARK  11 active torsions:
REMARK  status: ('A' for Active; 'I' for Inactive)
REMARK    1  A    between atoms: O1_2  and  C2_3 
REMARK    2  A    between atoms: C2_3  and  C3_5 
REMARK    3  A    between atoms: C4_6  and  O3_7 
REMARK    4  A    between atoms: C6_10  and  O4_11 
REMARK    5  A    between atoms: C8_15  and  C9_16 
REMARK    6  A    between atoms: C9_16  and  C10_17 
REMARK    7  A    between atoms: C10_17  and  C11_18 
REMARK       I    between atoms: C11_18  and  N1_20 
REMARK    8  A    between atoms: N1_20  and  C12_22 
REMARK    9  A    between atoms: C14_24  and  O6_25 
REMARK   10  A    between atoms: C15_27  and  O7_28 
REMARK   11  A    between atoms: C18_31  and  O8_32 
ROOT
HETATM    1  C10 UNL     1      21.296  33.569   4.060  1.00  0.00     0.108 C 
ENDROOT
BRANCH   1   2
HETATM    2  C9  UNL     1      20.668  32.952   5.261  1.00  0.00     0.051 C 
BRANCH   2   3
HETATM    3  C8  UNL     1      20.041  33.919   6.171  1.00  0.00    -0.014 A 
HETATM    4  C3  UNL     1      20.719  34.444   7.244  1.00  0.00     0.080 A 
HETATM    5  C4  UNL     1      20.032  35.314   8.090  1.00  0.00     0.085 A 
HETATM    6  C5  UNL     1      18.686  35.626   7.821  1.00  0.00     0.076 A 
HETATM    7  C6  UNL     1      18.010  35.109   6.756  1.00  0.00     0.090 A 
HETATM    8  C7  UNL     1      18.694  34.255   5.935  1.00  0.00     0.074 A 
HETATM    9 CL1  UNL     1      17.854  33.565   4.548  1.00  0.00    -0.081 Cl
BRANCH   4  10
HETATM   10  C2  UNL     1      22.118  34.101   7.446  1.00  0.00     0.296 C 
HETATM   11  O2  UNL     1      22.543  32.973   7.804  1.00  0.00    -0.259 OA
BRANCH  10  12
HETATM   12  O1  UNL     1      23.166  35.028   7.251  1.00  0.00    -0.322 OA
HETATM   13  C1  UNL     1      23.070  36.079   6.333  1.00  0.00     0.213 C 
ENDBRANCH  10  12
ENDBRANCH   4  10
BRANCH   5  14
HETATM   14  O3  UNL     1      20.643  35.861   9.162  1.00  0.00    -0.360 OA
ATOM     15  H3  UNL     1      20.161  36.026   9.964  1.00  0.00     0.217 HD
ENDBRANCH   5  14
BRANCH   7  16
HETATM   16  O4  UNL     1      16.671  35.432   6.505  1.00  0.00    -0.359 OA
ATOM     17  H4  UNL     1      16.166  34.987   5.834  1.00  0.00     0.217 HD
ENDBRANCH   7  16
ENDBRANCH   2   3
ENDBRANCH   1   2
BRANCH   1  18
HETATM   18  C11 UNL     1      22.685  33.020   3.894  1.00  0.00     0.222 C 
HETATM   19  O5  UNL     1      23.113  32.775   2.748  1.00  0.00    -0.273 OA
HETATM   20  N1  UNL     1      23.508  32.781   5.016  1.00  0.00    -0.325 N 
ATOM     21  H1  UNL     1      23.113  32.999   5.931  1.00  0.00     0.169 HD
BRANCH  20  22
HETATM   22  C12 UNL     1      24.829  32.270   4.999  1.00  0.00     0.071 A 
HETATM   23  C13 UNL     1      25.953  32.975   4.644  1.00  0.00     0.071 A 
HETATM   24  C14 UNL     1      27.237  32.411   4.646  1.00  0.00     0.101 A 
HETATM   25  C15 UNL     1      27.418  31.105   5.010  1.00  0.00     0.104 A 
HETATM   26  C17 UNL     1      26.324  30.375   5.368  1.00  0.00     0.078 A 
HETATM   27  C18 UNL     1      25.047  30.939   5.365  1.00  0.00     0.095 A 
BRANCH  24  28
HETATM   28  O6  UNL     1      28.316  33.185   4.276  1.00  0.00    -0.358 OA
ATOM     29  H6  UNL     1      29.179  32.790   4.230  1.00  0.00     0.217 HD
ENDBRANCH  24  28
BRANCH  25  30
HETATM   30  O7  UNL     1      28.693  30.567   5.006  1.00  0.00    -0.353 OA
HETATM   31  C16 UNL     1      29.014  29.253   5.366  1.00  0.00     0.210 C 
ENDBRANCH  25  30
BRANCH  27  32
HETATM   32  O8  UNL     1      24.028  30.133   5.737  1.00  0.00    -0.358 OA
ATOM     33  H8  UNL     1      23.998  29.218   5.478  1.00  0.00     0.217 HD
ENDBRANCH  27  32
ENDBRANCH  20  22
ENDBRANCH   1  18
TORSDOF 11
ENDMDL
