MODEL 2
REMARK VINA RESULT: -6.979719561      2.190      2.879
REMARK  11 active torsions:
REMARK  status: ('A' for Active; 'I' for Inactive)
REMARK    1  A    between atoms: O1_2  and  C2_3 
REMARK    2  A    between atoms: C2_3  and  C3_5 
REMARK    3  A    between atoms: C4_6  and  O3_7 
REMARK    4  A    between atoms: C6_10  and  O4_11 
REMARK    5  A    between atoms: C8_15  and  C9_16 
REMARK    6  A    between atoms: C9_16  and  C10_17 
REMARK    7  A    between atoms: C10_17  and  C11_18 
REMARK       I    between atoms: C11_18  and  N1_20 
REMARK    8  A    between atoms: N1_20  and  C12_22 
REMARK    9  A    between atoms: C14_24  and  O6_25 
REMARK   10  A    between atoms: C15_27  and  O7_28 
REMARK   11  A    between atoms: C18_31  and  O8_32 
ROOT
HETATM    1  C10 UNL     1      22.060  35.209   6.185  1.00  0.00     0.108 C 
ENDROOT
BRANCH   1   2
HETATM    2  C9  UNL     1      21.074  35.558   5.125  1.00  0.00     0.051 C 
BRANCH   2   3
HETATM    3  C8  UNL     1      19.758  34.932   5.302  1.00  0.00    -0.014 A 
HETATM    4  C3  UNL     1      19.223  34.096   4.352  1.00  0.00     0.080 A 
HETATM    5  C4  UNL     1      17.945  33.585   4.574  1.00  0.00     0.085 A 
HETATM    6  C5  UNL     1      17.252  33.934   5.749  1.00  0.00     0.076 A 
HETATM    7  C6  UNL     1      17.780  34.761   6.696  1.00  0.00     0.090 A 
HETATM    8  C7  UNL     1      19.034  35.257   6.465  1.00  0.00     0.074 A 
HETATM    9 CL1  UNL     1      19.749  36.330   7.665  1.00  0.00    -0.081 Cl
BRANCH   4  10
HETATM   10  C2  UNL     1      20.007  33.755   3.175  1.00  0.00     0.296 C 
HETATM   11  O2  UNL     1      20.779  32.767   3.079  1.00  0.00    -0.259 OA
BRANCH  10  12
HETATM   12  O1  UNL     1      19.973  34.521   1.988  1.00  0.00    -0.322 OA
HETATM   13  C1  UNL     1      18.799  34.697   1.248  1.00  0.00     0.213 C 
ENDBRANCH  10  12
ENDBRANCH   4  10
BRANCH   5  14
HETATM   14  O3  UNL     1      17.365  32.761   3.677  1.00  0.00    -0.360 OA
ATOM     15  H3  UNL     1      16.435  32.573   3.719  1.00  0.00     0.217 HD
ENDBRANCH   5  14
BRANCH   7  16
HETATM   16  O4  UNL     1      17.075  35.095   7.858  1.00  0.00    -0.359 OA
ATOM     17  H4  UNL     1      16.316  34.600   8.143  1.00  0.00     0.217 HD
ENDBRANCH   7  16
ENDBRANCH   2   3
ENDBRANCH   1   2
BRANCH   1  18
HETATM   18  C11 UNL     1      23.207  34.464   5.563  1.00  0.00     0.222 C 
HETATM   19  O5  UNL     1      24.334  34.997   5.525  1.00  0.00    -0.273 OA
HETATM   20  N1  UNL     1      23.025  33.171   5.026  1.00  0.00    -0.325 N 
ATOM     21  H1  UNL     1      22.085  32.778   5.083  1.00  0.00     0.169 HD
BRANCH  20  22
HETATM   22  C12 UNL     1      24.016  32.364   4.416  1.00  0.00     0.071 A 
HETATM   23  C13 UNL     1      24.385  32.417   3.093  1.00  0.00     0.071 A 
HETATM   24  C14 UNL     1      25.376  31.589   2.546  1.00  0.00     0.101 A 
HETATM   25  C15 UNL     1      26.024  30.676   3.330  1.00  0.00     0.104 A 
HETATM   26  C17 UNL     1      25.684  30.596   4.648  1.00  0.00     0.078 A 
HETATM   27  C18 UNL     1      24.697  31.421   5.190  1.00  0.00     0.095 A 
BRANCH  24  28
HETATM   28  O6  UNL     1      25.689  31.703   1.208  1.00  0.00    -0.358 OA
ATOM     29  H6  UNL     1      25.001  31.899   0.584  1.00  0.00     0.217 HD
ENDBRANCH  24  28
BRANCH  25  30
HETATM   30  O7  UNL     1      27.000  29.868   2.772  1.00  0.00    -0.353 OA
HETATM   31  C16 UNL     1      26.798  28.561   2.314  1.00  0.00     0.210 C 
ENDBRANCH  25  30
BRANCH  27  32
HETATM   32  O8  UNL     1      24.432  31.265   6.507  1.00  0.00    -0.358 OA
ATOM     33  H8  UNL     1      24.356  30.403   6.899  1.00  0.00     0.217 HD
ENDBRANCH  27  32
ENDBRANCH  20  22
ENDBRANCH   1  18
TORSDOF 11
ENDMDL
