MODEL 15
REMARK VINA RESULT: -6.668799205      3.831      5.523
REMARK  11 active torsions:
REMARK  status: ('A' for Active; 'I' for Inactive)
REMARK    1  A    between atoms: O1_2  and  C2_3 
REMARK    2  A    between atoms: C2_3  and  C3_5 
REMARK    3  A    between atoms: C4_6  and  O3_7 
REMARK    4  A    between atoms: C6_10  and  O4_11 
REMARK    5  A    between atoms: C8_15  and  C9_16 
REMARK    6  A    between atoms: C9_16  and  C10_17 
REMARK    7  A    between atoms: C10_17  and  C11_18 
REMARK       I    between atoms: C11_18  and  N1_20 
REMARK    8  A    between atoms: N1_20  and  C12_22 
REMARK    9  A    between atoms: C14_24  and  O6_25 
REMARK   10  A    between atoms: C15_27  and  O7_28 
REMARK   11  A    between atoms: C18_31  and  O8_32 
ROOT
HETATM    1  C10 UNL     1      22.268  33.688   4.912  1.00  0.00     0.108 C 
ENDROOT
BRANCH   1   2
HETATM    2  C9  UNL     1      21.278  34.583   4.250  1.00  0.00     0.051 C 
BRANCH   2   3
HETATM    3  C8  UNL     1      19.901  34.408   4.728  1.00  0.00    -0.014 A 
HETATM    4  C3  UNL     1      19.483  34.929   5.928  1.00  0.00     0.080 A 
HETATM    5  C4  UNL     1      18.174  34.671   6.333  1.00  0.00     0.085 A 
HETATM    6  C5  UNL     1      17.332  33.899   5.511  1.00  0.00     0.076 A 
HETATM    7  C6  UNL     1      17.741  33.383   4.317  1.00  0.00     0.090 A 
HETATM    8  C7  UNL     1      19.029  33.641   3.932  1.00  0.00     0.074 A 
HETATM    9 CL1  UNL     1      19.596  32.989   2.397  1.00  0.00    -0.081 Cl
BRANCH   4  10
HETATM   10  C2  UNL     1      20.397  35.742   6.715  1.00  0.00     0.296 C 
HETATM   11  O2  UNL     1      20.822  36.879   6.386  1.00  0.00    -0.259 OA
BRANCH  10  12
HETATM   12  O1  UNL     1      20.911  35.323   7.962  1.00  0.00    -0.322 OA
HETATM   13  C1  UNL     1      20.984  33.972   8.322  1.00  0.00     0.213 C 
ENDBRANCH  10  12
ENDBRANCH   4  10
BRANCH   5  14
HETATM   14  O3  UNL     1      17.705  35.153   7.503  1.00  0.00    -0.360 OA
ATOM     15  H3  UNL     1      18.109  34.909   8.327  1.00  0.00     0.217 HD
ENDBRANCH   5  14
BRANCH   7  16
HETATM   16  O4  UNL     1      16.889  32.618   3.513  1.00  0.00    -0.359 OA
ATOM     17  H4  UNL     1      17.181  31.818   3.093  1.00  0.00     0.217 HD
ENDBRANCH   7  16
ENDBRANCH   2   3
ENDBRANCH   1   2
BRANCH   1  18
HETATM   18  C11 UNL     1      23.423  34.513   5.406  1.00  0.00     0.222 C 
HETATM   19  O5  UNL     1      24.406  33.942   5.920  1.00  0.00    -0.273 OA
HETATM   20  N1  UNL     1      23.408  35.920   5.295  1.00  0.00    -0.325 N 
ATOM     21  H1  UNL     1      22.582  36.338   4.866  1.00  0.00     0.169 HD
BRANCH  20  22
HETATM   22  C12 UNL     1      24.426  36.810   5.718  1.00  0.00     0.071 A 
HETATM   23  C13 UNL     1      25.463  37.263   4.941  1.00  0.00     0.071 A 
HETATM   24  C14 UNL     1      26.444  38.146   5.419  1.00  0.00     0.101 A 
HETATM   25  C15 UNL     1      26.399  38.595   6.709  1.00  0.00     0.104 A 
HETATM   26  C17 UNL     1      25.382  38.165   7.510  1.00  0.00     0.078 A 
HETATM   27  C18 UNL     1      24.408  37.287   7.032  1.00  0.00     0.095 A 
BRANCH  24  28
HETATM   28  O6  UNL     1      27.454  38.555   4.575  1.00  0.00    -0.358 OA
ATOM     29  H6  UNL     1      28.330  38.210   4.696  1.00  0.00     0.217 HD
ENDBRANCH  24  28
BRANCH  25  30
HETATM   30  O7  UNL     1      27.375  39.465   7.163  1.00  0.00    -0.353 OA
HETATM   31  C16 UNL     1      27.214  40.847   7.315  1.00  0.00     0.210 C 
ENDBRANCH  25  30
BRANCH  27  32
HETATM   32  O8  UNL     1      23.443  36.920   7.903  1.00  0.00    -0.358 OA
ATOM     33  H8  UNL     1      23.039  37.548   8.492  1.00  0.00     0.217 HD
ENDBRANCH  27  32
ENDBRANCH  20  22
ENDBRANCH   1  18
TORSDOF 11
ENDMDL
