MODEL 1
REMARK VINA RESULT: -7.014293876      0.000      0.000
REMARK  11 active torsions:
REMARK  status: ('A' for Active; 'I' for Inactive)
REMARK    1  A    between atoms: O1_2  and  C2_3 
REMARK    2  A    between atoms: C2_3  and  C3_5 
REMARK    3  A    between atoms: C4_6  and  O3_7 
REMARK    4  A    between atoms: C6_10  and  O4_11 
REMARK    5  A    between atoms: C8_15  and  C9_16 
REMARK    6  A    between atoms: C9_16  and  C10_17 
REMARK    7  A    between atoms: C10_17  and  C11_18 
REMARK       I    between atoms: C11_18  and  N1_20 
REMARK    8  A    between atoms: N1_20  and  C12_22 
REMARK    9  A    between atoms: C14_24  and  O6_25 
REMARK   10  A    between atoms: C15_27  and  O7_28 
REMARK   11  A    between atoms: C18_31  and  O8_32 
ROOT
HETATM    1  C10 UNL     1      21.410  33.467   4.032  1.00  0.00     0.108 C 
ENDROOT
BRANCH   1   2
HETATM    2  C9  UNL     1      20.780  32.815   5.213  1.00  0.00     0.051 C 
BRANCH   2   3
HETATM    3  C8  UNL     1      19.995  33.728   6.052  1.00  0.00    -0.014 A 
HETATM    4  C3  UNL     1      18.669  33.983   5.796  1.00  0.00     0.080 A 
HETATM    5  C4  UNL     1      18.010  34.904   6.609  1.00  0.00     0.085 A 
HETATM    6  C5  UNL     1      18.712  35.534   7.654  1.00  0.00     0.076 A 
HETATM    7  C6  UNL     1      20.027  35.283   7.914  1.00  0.00     0.090 A 
HETATM    8  C7  UNL     1      20.663  34.379   7.107  1.00  0.00     0.074 A 
HETATM    9 CL1  UNL     1      22.362  34.028   7.410  1.00  0.00    -0.081 Cl
BRANCH   4  10
HETATM   10  C2  UNL     1      17.998  33.274   4.718  1.00  0.00     0.296 C 
HETATM   11  O2  UNL     1      17.605  33.794   3.643  1.00  0.00    -0.259 OA
BRANCH  10  12
HETATM   12  O1  UNL     1      17.718  31.890   4.773  1.00  0.00    -0.322 OA
HETATM   13  C1  UNL     1      17.416  31.145   3.628  1.00  0.00     0.213 C 
ENDBRANCH  10  12
ENDBRANCH   4  10
BRANCH   5  14
HETATM   14  O3  UNL     1      16.709  35.198   6.407  1.00  0.00    -0.360 OA
ATOM     15  H3  UNL     1      16.038  34.861   6.989  1.00  0.00     0.217 HD
ENDBRANCH   5  14
BRANCH   7  16
HETATM   16  O4  UNL     1      20.707  35.920   8.958  1.00  0.00    -0.359 OA
ATOM     17  H4  UNL     1      21.524  36.384   8.814  1.00  0.00     0.217 HD
ENDBRANCH   7  16
ENDBRANCH   2   3
ENDBRANCH   1   2
BRANCH   1  18
HETATM   18  C11 UNL     1      22.810  32.945   3.869  1.00  0.00     0.222 C 
HETATM   19  O5  UNL     1      23.259  32.745   2.722  1.00  0.00    -0.273 OA
HETATM   20  N1  UNL     1      23.620  32.682   4.995  1.00  0.00    -0.325 N 
ATOM     21  H1  UNL     1      23.207  32.863   5.910  1.00  0.00     0.169 HD
BRANCH  20  22
HETATM   22  C12 UNL     1      24.948  32.191   4.981  1.00  0.00     0.071 A 
HETATM   23  C13 UNL     1      26.064  32.919   4.648  1.00  0.00     0.071 A 
HETATM   24  C14 UNL     1      27.357  32.375   4.652  1.00  0.00     0.101 A 
HETATM   25  C15 UNL     1      27.555  31.066   4.996  1.00  0.00     0.104 A 
HETATM   26  C17 UNL     1      26.470  30.314   5.333  1.00  0.00     0.078 A 
HETATM   27  C18 UNL     1      25.184  30.857   5.328  1.00  0.00     0.095 A 
BRANCH  24  28
HETATM   28  O6  UNL     1      28.427  33.172   4.305  1.00  0.00    -0.358 OA
ATOM     29  H6  UNL     1      29.071  32.844   3.689  1.00  0.00     0.217 HD
ENDBRANCH  24  28
BRANCH  25  30
HETATM   30  O7  UNL     1      28.839  30.548   4.995  1.00  0.00    -0.353 OA
HETATM   31  C16 UNL     1      29.171  29.221   5.289  1.00  0.00     0.210 C 
ENDBRANCH  25  30
BRANCH  27  32
HETATM   32  O8  UNL     1      24.174  30.030   5.677  1.00  0.00    -0.358 OA
ATOM     33  H8  UNL     1      23.865  29.974   6.574  1.00  0.00     0.217 HD
ENDBRANCH  27  32
ENDBRANCH  20  22
ENDBRANCH   1  18
TORSDOF 11
ENDMDL
