MODEL 15
REMARK VINA RESULT: -8.636233714      2.795      3.877
REMARK  6 active torsions:
REMARK  status: ('A' for Active; 'I' for Inactive)
REMARK    1  A    between atoms: N4_10  and  C5_11 
REMARK    2  A    between atoms: C6_13  and  C7_14 
REMARK    3  A    between atoms: C7_14  and  O2_15 
REMARK    4  A    between atoms: O2_15  and  P1_16 
REMARK    5  A    between atoms: C8_20  and  O6_21 
REMARK    6  A    between atoms: C9_23  and  O7_24 
ROOT
HETATM    1  C5  UNL     1      15.726  18.264   4.917  1.00  0.00     0.262 C 
HETATM    2  O1  UNL     1      15.380  16.925   4.750  1.00  0.00    -0.353 OA
HETATM    3  C6  UNL     1      14.852  16.627   6.015  1.00  0.00     0.180 C 
HETATM    4  C8  UNL     1      13.795  17.697   6.137  1.00  0.00     0.182 C 
HETATM    5  C9  UNL     1      14.567  18.910   5.648  1.00  0.00     0.198 C 
ENDROOT
BRANCH   1   6
HETATM    6  N4  UNL     1      15.955  18.945   3.681  1.00  0.00    -0.297 N 
HETATM    7  C2  UNL     1      16.752  20.017   3.463  1.00  0.00     0.146 A 
HETATM    8  N2  UNL     1      17.502  20.681   4.345  1.00  0.00    -0.314 N 
HETATM    9  C3  UNL     1      16.667  20.337   2.123  1.00  0.00     0.146 A 
HETATM   10  C1  UNL     1      18.230  21.740   3.898  1.00  0.00     0.196 A 
ATOM     11  H2  UNL     1      17.528  20.403   5.327  1.00  0.00     0.170 HD
HETATM   12  N1  UNL     1      19.054  22.507   4.744  1.00  0.00    -0.063 NA
HETATM   13  N5  UNL     1      18.158  22.064   2.594  1.00  0.00    -0.295 N 
HETATM   14  C10 UNL     1      17.420  21.418   1.698  1.00  0.00     0.278 A 
ATOM     15  H5  UNL     1      18.708  22.861   2.271  1.00  0.00     0.171 HD
HETATM   16  O8  UNL     1      17.353  21.722   0.481  1.00  0.00    -0.265 OA
HETATM   17  N3  UNL     1      15.835  19.462   1.574  1.00  0.00    -0.345 N 
HETATM   18  C4  UNL     1      15.389  18.606   2.508  1.00  0.00     0.188 A 
ATOM     19  H3  UNL     1      15.572  19.443   0.589  1.00  0.00     0.167 HD
ENDBRANCH   1   6
BRANCH   5  20
HETATM   20  O7  UNL     1      15.030  19.600   6.773  1.00  0.00    -0.388 OA
ATOM     21  H7  UNL     1      14.310  19.780   7.366  1.00  0.00     0.210 HD
ENDBRANCH   5  20
BRANCH   3  22
HETATM   22  C7  UNL     1      14.290  15.239   6.078  1.00  0.00     0.217 C 
BRANCH  22  23
HETATM   23  O2  UNL     1      14.520  14.605   4.892  1.00  0.00    -0.280 OA
BRANCH  23  24
HETATM   24  P1  UNL     1      13.127  14.169   4.168  1.00  0.00     0.422 P 
HETATM   25  O3  UNL     1      13.058  15.432   3.323  1.00  0.00    -0.617 OA
HETATM   26  O4  UNL     1      13.093  13.147   2.872  1.00  0.00    -0.617 OA
HETATM   27  O5  UNL     1      11.658  14.558   4.879  1.00  0.00    -0.617 OA
ENDBRANCH  23  24
ENDBRANCH  22  23
ENDBRANCH   3  22
BRANCH   4  28
HETATM   28  O6  UNL     1      13.357  17.866   7.444  1.00  0.00    -0.390 OA
ATOM     29  H6  UNL     1      13.904  17.411   8.073  1.00  0.00     0.210 HD
ENDBRANCH   4  28
TORSDOF 6
ENDMDL
