MODEL 8
REMARK VINA RESULT: -8.910360916      2.302      3.294
REMARK  6 active torsions:
REMARK  status: ('A' for Active; 'I' for Inactive)
REMARK    1  A    between atoms: N4_10  and  C5_11 
REMARK    2  A    between atoms: C6_13  and  C7_14 
REMARK    3  A    between atoms: C7_14  and  O2_15 
REMARK    4  A    between atoms: O2_15  and  P1_16 
REMARK    5  A    between atoms: C8_20  and  O6_21 
REMARK    6  A    between atoms: C9_23  and  O7_24 
ROOT
HETATM    1  C5  UNL     1      14.083  17.775   7.957  1.00  0.00     0.262 C 
HETATM    2  O1  UNL     1      14.778  16.652   7.514  1.00  0.00    -0.353 OA
HETATM    3  C6  UNL     1      14.217  16.478   6.240  1.00  0.00     0.180 C 
HETATM    4  C8  UNL     1      14.465  17.839   5.636  1.00  0.00     0.182 C 
HETATM    5  C9  UNL     1      14.047  18.736   6.787  1.00  0.00     0.198 C 
ENDROOT
BRANCH   1   6
HETATM    6  N4  UNL     1      14.697  18.409   9.082  1.00  0.00    -0.297 N 
HETATM    7  C2  UNL     1      15.638  19.382   9.072  1.00  0.00     0.146 A 
HETATM    8  N2  UNL     1      16.208  19.967   8.016  1.00  0.00    -0.314 N 
HETATM    9  C3  UNL     1      15.937  19.690  10.383  1.00  0.00     0.146 A 
HETATM   10  C1  UNL     1      17.141  20.931   8.246  1.00  0.00     0.196 A 
ATOM     11  H2  UNL     1      15.951  19.701   7.065  1.00  0.00     0.170 HD
HETATM   12  N1  UNL     1      17.802  21.612   7.204  1.00  0.00    -0.063 NA
HETATM   13  N5  UNL     1      17.443  21.243   9.519  1.00  0.00    -0.295 N 
HETATM   14  C10 UNL     1      16.890  20.674  10.584  1.00  0.00     0.278 A 
ATOM     15  H5  UNL     1      18.146  21.966   9.677  1.00  0.00     0.171 HD
HETATM   16  O8  UNL     1      17.173  20.966  11.772  1.00  0.00    -0.265 OA
HETATM   17  N3  UNL     1      15.179  18.909  11.141  1.00  0.00    -0.345 N 
HETATM   18  C4  UNL     1      14.416  18.121  10.367  1.00  0.00     0.188 A 
ATOM     19  H3  UNL     1      15.175  18.908  12.161  1.00  0.00     0.167 HD
ENDBRANCH   1   6
BRANCH   5  20
HETATM   20  O7  UNL     1      12.734  19.153   6.545  1.00  0.00    -0.388 OA
ATOM     21  H7  UNL     1      12.655  19.490   5.660  1.00  0.00     0.210 HD
ENDBRANCH   5  20
BRANCH   3  22
HETATM   22  C7  UNL     1      14.879  15.370   5.479  1.00  0.00     0.217 C 
BRANCH  22  23
HETATM   23  O2  UNL     1      14.006  14.329   5.348  1.00  0.00    -0.280 OA
BRANCH  23  24
HETATM   24  P1  UNL     1      13.166  14.425   3.955  1.00  0.00     0.422 P 
HETATM   25  O3  UNL     1      11.831  14.147   4.628  1.00  0.00    -0.617 OA
HETATM   26  O4  UNL     1      12.688  15.869   3.315  1.00  0.00    -0.617 OA
HETATM   27  O5  UNL     1      12.975  13.059   3.000  1.00  0.00    -0.617 OA
ENDBRANCH  23  24
ENDBRANCH  22  23
ENDBRANCH   3  22
BRANCH   4  28
HETATM   28  O6  UNL     1      13.693  18.068   4.505  1.00  0.00    -0.390 OA
ATOM     29  H6  UNL     1      13.754  17.362   3.873  1.00  0.00     0.210 HD
ENDBRANCH   4  28
TORSDOF 6
ENDMDL
