MODEL 3
REMARK VINA RESULT: -9.190758784      1.891      3.425
REMARK  6 active torsions:
REMARK  status: ('A' for Active; 'I' for Inactive)
REMARK    1  A    between atoms: N4_10  and  C5_11 
REMARK    2  A    between atoms: C6_13  and  C7_14 
REMARK    3  A    between atoms: C7_14  and  O2_15 
REMARK    4  A    between atoms: O2_15  and  P1_16 
REMARK    5  A    between atoms: C8_20  and  O6_21 
REMARK    6  A    between atoms: C9_23  and  O7_24 
ROOT
HETATM    1  C5  UNL     1      16.594  18.293   6.311  1.00  0.00     0.262 C 
HETATM    2  O1  UNL     1      15.270  18.503   5.931  1.00  0.00    -0.353 OA
HETATM    3  C6  UNL     1      15.034  17.362   5.149  1.00  0.00     0.180 C 
HETATM    4  C8  UNL     1      15.403  16.271   6.125  1.00  0.00     0.182 C 
HETATM    5  C9  UNL     1      16.694  16.831   6.694  1.00  0.00     0.198 C 
ENDROOT
BRANCH   1   6
HETATM    6  N4  UNL     1      17.000  19.109   7.412  1.00  0.00    -0.297 N 
HETATM    7  C2  UNL     1      16.361  19.282   8.593  1.00  0.00     0.146 A 
HETATM    8  N2  UNL     1      15.212  18.736   8.997  1.00  0.00    -0.314 N 
HETATM    9  C3  UNL     1      17.113  20.154   9.353  1.00  0.00     0.146 A 
HETATM   10  C1  UNL     1      14.752  19.057  10.237  1.00  0.00     0.196 A 
ATOM     11  H2  UNL     1      14.693  18.097   8.394  1.00  0.00     0.170 HD
HETATM   12  N1  UNL     1      13.552  18.537  10.760  1.00  0.00    -0.063 NA
HETATM   13  N5  UNL     1      15.474  19.906  10.991  1.00  0.00    -0.295 N 
HETATM   14  C10 UNL     1      16.620  20.461  10.610  1.00  0.00     0.278 A 
ATOM     15  H5  UNL     1      15.118  20.139  11.918  1.00  0.00     0.171 HD
HETATM   16  O8  UNL     1      17.293  21.253  11.313  1.00  0.00    -0.265 OA
HETATM   17  N3  UNL     1      18.172  20.479   8.624  1.00  0.00    -0.345 N 
HETATM   18  C4  UNL     1      18.121  19.852   7.437  1.00  0.00     0.188 A 
ATOM     19  H3  UNL     1      18.916  21.111   8.921  1.00  0.00     0.167 HD
ENDBRANCH   1   6
BRANCH   5  20
HETATM   20  O7  UNL     1      17.755  16.225   6.013  1.00  0.00    -0.388 OA
ATOM     21  H7  UNL     1      18.091  15.492   6.516  1.00  0.00     0.210 HD
ENDBRANCH   5  20
BRANCH   3  22
HETATM   22  C7  UNL     1      13.610  17.279   4.689  1.00  0.00     0.217 C 
BRANCH  22  23
HETATM   23  O2  UNL     1      13.508  16.335   3.709  1.00  0.00    -0.280 OA
BRANCH  23  24
HETATM   24  P1  UNL     1      12.392  15.207   4.078  1.00  0.00     0.422 P 
HETATM   25  O3  UNL     1      12.587  14.448   2.775  1.00  0.00    -0.617 OA
HETATM   26  O4  UNL     1      12.740  13.908   5.036  1.00  0.00    -0.617 OA
HETATM   27  O5  UNL     1      10.780  15.468   3.692  1.00  0.00    -0.617 OA
ENDBRANCH  23  24
ENDBRANCH  22  23
ENDBRANCH   3  22
BRANCH   4  28
HETATM   28  O6  UNL     1      15.608  15.047   5.503  1.00  0.00    -0.390 OA
ATOM     29  H6  UNL     1      15.044  14.365   5.847  1.00  0.00     0.210 HD
ENDBRANCH   4  28
TORSDOF 6
ENDMDL
