MODEL 7
REMARK VINA RESULT: -8.941051445      2.582      3.418
REMARK  6 active torsions:
REMARK  status: ('A' for Active; 'I' for Inactive)
REMARK    1  A    between atoms: N4_10  and  C5_11 
REMARK    2  A    between atoms: C6_13  and  C7_14 
REMARK    3  A    between atoms: C7_14  and  O2_15 
REMARK    4  A    between atoms: O2_15  and  P1_16 
REMARK    5  A    between atoms: C8_20  and  O6_21 
REMARK    6  A    between atoms: C9_23  and  O7_24 
ROOT
HETATM    1  C5  UNL     1      14.094  17.706   7.972  1.00  0.00     0.262 C 
HETATM    2  O1  UNL     1      14.755  16.562   7.531  1.00  0.00    -0.353 OA
HETATM    3  C6  UNL     1      14.184  16.398   6.260  1.00  0.00     0.180 C 
HETATM    4  C8  UNL     1      14.468  17.749   5.649  1.00  0.00     0.182 C 
HETATM    5  C9  UNL     1      14.081  18.663   6.798  1.00  0.00     0.198 C 
ENDROOT
BRANCH   1   6
HETATM    6  N4  UNL     1      14.730  18.327   9.092  1.00  0.00    -0.297 N 
HETATM    7  C2  UNL     1      16.044  18.615   9.242  1.00  0.00     0.146 A 
HETATM    8  N2  UNL     1      17.042  18.386   8.386  1.00  0.00    -0.314 N 
HETATM    9  C3  UNL     1      16.205  19.210  10.477  1.00  0.00     0.146 A 
HETATM   10  C1  UNL     1      18.298  18.762   8.751  1.00  0.00     0.196 A 
ATOM     11  H2  UNL     1      16.869  17.941   7.484  1.00  0.00     0.170 HD
HETATM   12  N1  UNL     1      19.420  18.567   7.923  1.00  0.00    -0.063 NA
HETATM   13  N5  UNL     1      18.471  19.344   9.952  1.00  0.00    -0.295 N 
HETATM   14  C10 UNL     1      17.494  19.582  10.820  1.00  0.00     0.278 A 
ATOM     15  H5  UNL     1      19.418  19.620  10.214  1.00  0.00     0.171 HD
HETATM   16  O8  UNL     1      17.656  20.124  11.941  1.00  0.00    -0.265 OA
HETATM   17  N3  UNL     1      15.002  19.267  11.033  1.00  0.00    -0.345 N 
HETATM   18  C4  UNL     1      14.089  18.733  10.204  1.00  0.00     0.188 A 
ATOM     19  H3  UNL     1      14.800  19.658  11.952  1.00  0.00     0.167 HD
ENDBRANCH   1   6
BRANCH   5  20
HETATM   20  O7  UNL     1      12.779  19.115   6.559  1.00  0.00    -0.388 OA
ATOM     21  H7  UNL     1      12.418  18.686   5.793  1.00  0.00     0.210 HD
ENDBRANCH   5  20
BRANCH   3  22
HETATM   22  C7  UNL     1      14.811  15.269   5.501  1.00  0.00     0.217 C 
BRANCH  22  23
HETATM   23  O2  UNL     1      13.893  14.273   5.336  1.00  0.00    -0.280 OA
BRANCH  23  24
HETATM   24  P1  UNL     1      13.144  14.384   3.893  1.00  0.00     0.422 P 
HETATM   25  O3  UNL     1      11.761  14.162   4.485  1.00  0.00    -0.617 OA
HETATM   26  O4  UNL     1      12.760  15.837   3.212  1.00  0.00    -0.617 OA
HETATM   27  O5  UNL     1      12.962  13.015   2.939  1.00  0.00    -0.617 OA
ENDBRANCH  23  24
ENDBRANCH  22  23
ENDBRANCH   3  22
BRANCH   4  28
HETATM   28  O6  UNL     1      13.698  17.995   4.520  1.00  0.00    -0.390 OA
ATOM     29  H6  UNL     1      14.074  17.618   3.734  1.00  0.00     0.210 HD
ENDBRANCH   4  28
TORSDOF 6
ENDMDL
