MODEL 4
REMARK VINA RESULT: -7.633590629      1.534      8.679
REMARK  7 active torsions:
REMARK  status: ('A' for Active; 'I' for Inactive)
REMARK    1  A    between atoms: C1_2  and  C2_3 
REMARK       I    between atoms: C1_2  and  N1_8 
REMARK    2  A    between atoms: C2_3  and  P1_4 
REMARK    3  A    between atoms: N1_8  and  C3_10 
REMARK    4  A    between atoms: C3_10  and  C4_11 
REMARK    5  A    between atoms: C4_11  and  N2_12 
REMARK       I    between atoms: N2_12  and  C5_14 
REMARK    6  A    between atoms: C5_14  and  C6_16 
REMARK    7  A    between atoms: C6_16  and  P2_17 
ROOT
HETATM    1  C3  UNL     1      39.841  29.314  17.107  1.00  0.00     0.142 C 
ENDROOT
BRANCH   1   2
HETATM    2  N1  UNL     1      39.397  29.158  18.453  1.00  0.00    -0.359 N 
HETATM    3  C1  UNL     1      38.958  30.249  19.218  1.00  0.00     0.230 C 
HETATM    4  O1  UNL     1      38.971  31.389  18.665  1.00  0.00    -0.273 OA
ATOM      5  H1  UNL     1      39.398  28.227  18.871  1.00  0.00     0.162 HD
BRANCH   3   6
HETATM    6  C2  UNL     1      38.478  30.134  20.642  1.00  0.00     0.248 C 
BRANCH   6   7
HETATM    7  P1  UNL     1      36.916  29.633  20.782  1.00  0.00     0.268 P 
HETATM    8  O2  UNL     1      37.032  29.450  22.427  1.00  0.00    -0.639 OA
HETATM    9  O3  UNL     1      37.097  28.329  19.813  1.00  0.00    -0.639 OA
HETATM   10  O4  UNL     1      36.345  31.070  20.188  1.00  0.00    -0.639 OA
ENDBRANCH   6   7
ENDBRANCH   3   6
ENDBRANCH   1   2
BRANCH   1  11
HETATM   11  C4  UNL     1      41.308  29.290  16.903  1.00  0.00     0.142 C 
BRANCH  11  12
HETATM   12  N2  UNL     1      41.611  28.448  15.780  1.00  0.00    -0.359 N 
HETATM   13  C5  UNL     1      42.899  28.054  15.356  1.00  0.00     0.230 C 
HETATM   14  O5  UNL     1      43.888  28.476  16.012  1.00  0.00    -0.273 OA
ATOM     15  H2  UNL     1      40.821  28.101  15.236  1.00  0.00     0.162 HD
BRANCH  13  16
HETATM   16  C6  UNL     1      43.138  27.172  14.181  1.00  0.00     0.248 C 
BRANCH  16  17
HETATM   17  P2  UNL     1      43.699  27.896  12.708  1.00  0.00     0.268 P 
HETATM   18  O6  UNL     1      44.606  26.733  12.224  1.00  0.00    -0.639 OA
HETATM   19  O7  UNL     1      42.844  27.547  11.286  1.00  0.00    -0.639 OA
HETATM   20  O8  UNL     1      42.906  29.213  12.746  1.00  0.00    -0.639 OA
ENDBRANCH  16  17
ENDBRANCH  13  16
ENDBRANCH  11  12
ENDBRANCH   1  11
TORSDOF 7
ENDMDL
