MODEL 2
REMARK VINA RESULT: -7.653709949      1.532      8.618
REMARK  7 active torsions:
REMARK  status: ('A' for Active; 'I' for Inactive)
REMARK    1  A    between atoms: C1_2  and  C2_3 
REMARK       I    between atoms: C1_2  and  N1_8 
REMARK    2  A    between atoms: C2_3  and  P1_4 
REMARK    3  A    between atoms: N1_8  and  C3_10 
REMARK    4  A    between atoms: C3_10  and  C4_11 
REMARK    5  A    between atoms: C4_11  and  N2_12 
REMARK       I    between atoms: N2_12  and  C5_14 
REMARK    6  A    between atoms: C5_14  and  C6_16 
REMARK    7  A    between atoms: C6_16  and  P2_17 
ROOT
HETATM    1  C3  UNL     1      39.888  29.336  17.111  1.00  0.00     0.142 C 
ENDROOT
BRANCH   1   2
HETATM    2  N1  UNL     1      39.441  29.168  18.455  1.00  0.00    -0.359 N 
HETATM    3  C1  UNL     1      38.979  30.249  19.220  1.00  0.00     0.230 C 
HETATM    4  O1  UNL     1      38.973  31.391  18.670  1.00  0.00    -0.273 OA
ATOM      5  H1  UNL     1      39.458  28.237  18.870  1.00  0.00     0.162 HD
BRANCH   3   6
HETATM    6  C2  UNL     1      38.496  30.121  20.642  1.00  0.00     0.248 C 
BRANCH   6   7
HETATM    7  P1  UNL     1      36.911  29.692  20.773  1.00  0.00     0.268 P 
HETATM    8  O2  UNL     1      37.092  28.388  19.765  1.00  0.00    -0.639 OA
HETATM    9  O3  UNL     1      36.333  31.099  20.174  1.00  0.00    -0.639 OA
HETATM   10  O4  UNL     1      37.055  29.452  22.406  1.00  0.00    -0.639 OA
ENDBRANCH   6   7
ENDBRANCH   3   6
ENDBRANCH   1   2
BRANCH   1  11
HETATM   11  C4  UNL     1      41.354  29.295  16.907  1.00  0.00     0.142 C 
BRANCH  11  12
HETATM   12  N2  UNL     1      41.647  28.453  15.780  1.00  0.00    -0.359 N 
HETATM   13  C5  UNL     1      42.931  28.054  15.348  1.00  0.00     0.230 C 
HETATM   14  O5  UNL     1      43.926  28.471  15.998  1.00  0.00    -0.273 OA
ATOM     15  H2  UNL     1      40.852  28.110  15.242  1.00  0.00     0.162 HD
BRANCH  13  16
HETATM   16  C6  UNL     1      43.158  27.173  14.170  1.00  0.00     0.248 C 
BRANCH  16  17
HETATM   17  P2  UNL     1      43.682  27.901  12.685  1.00  0.00     0.268 P 
HETATM   18  O6  UNL     1      44.564  26.733  12.167  1.00  0.00    -0.639 OA
HETATM   19  O7  UNL     1      42.782  27.570  11.287  1.00  0.00    -0.639 OA
HETATM   20  O8  UNL     1      42.903  29.225  12.755  1.00  0.00    -0.639 OA
ENDBRANCH  16  17
ENDBRANCH  13  16
ENDBRANCH  11  12
ENDBRANCH   1  11
TORSDOF 7
ENDMDL
