MODEL 1
REMARK VINA RESULT: -7.808553248      0.000      0.000
REMARK  7 active torsions:
REMARK  status: ('A' for Active; 'I' for Inactive)
REMARK    1  A    between atoms: C1_2  and  C2_3 
REMARK       I    between atoms: C1_2  and  N1_8 
REMARK    2  A    between atoms: C2_3  and  P1_4 
REMARK    3  A    between atoms: N1_8  and  C3_10 
REMARK    4  A    between atoms: C3_10  and  C4_11 
REMARK    5  A    between atoms: C4_11  and  N2_12 
REMARK       I    between atoms: N2_12  and  C5_14 
REMARK    6  A    between atoms: C5_14  and  C6_16 
REMARK    7  A    between atoms: C6_16  and  P2_17 
ROOT
HETATM    1  C3  UNL     1      41.717  28.494  16.568  1.00  0.00     0.142 C 
ENDROOT
BRANCH   1   2
HETATM    2  N1  UNL     1      42.006  27.882  15.313  1.00  0.00    -0.359 N 
HETATM    3  C1  UNL     1      43.322  27.736  14.848  1.00  0.00     0.230 C 
HETATM    4  O1  UNL     1      44.253  28.171  15.590  1.00  0.00    -0.273 OA
ATOM      5  H1  UNL     1      41.236  27.542  14.738  1.00  0.00     0.162 HD
BRANCH   3   6
HETATM    6  C2  UNL     1      43.678  27.096  13.531  1.00  0.00     0.248 C 
BRANCH   6   7
HETATM    7  P1  UNL     1      42.856  27.714  12.244  1.00  0.00     0.268 P 
HETATM    8  O2  UNL     1      44.025  27.246  11.164  1.00  0.00    -0.639 OA
HETATM    9  O3  UNL     1      42.847  29.249  12.806  1.00  0.00    -0.639 OA
HETATM   10  O4  UNL     1      41.573  26.699  12.506  1.00  0.00    -0.639 OA
ENDBRANCH   6   7
ENDBRANCH   3   6
ENDBRANCH   1   2
BRANCH   1  11
HETATM   11  C4  UNL     1      40.289  28.519  16.961  1.00  0.00     0.142 C 
BRANCH  11  12
HETATM   12  N2  UNL     1      40.166  28.043  18.311  1.00  0.00    -0.359 N 
HETATM   13  C5  UNL     1      39.090  28.294  19.190  1.00  0.00     0.230 C 
HETATM   14  O5  UNL     1      38.140  29.005  18.767  1.00  0.00    -0.273 OA
ATOM     15  H2  UNL     1      40.930  27.469  18.669  1.00  0.00     0.162 HD
BRANCH  13  16
HETATM   16  C6  UNL     1      39.029  27.762  20.578  1.00  0.00     0.248 C 
BRANCH  16  17
HETATM   17  P2  UNL     1      37.573  28.003  21.490  1.00  0.00     0.268 P 
HETATM   18  O6  UNL     1      36.879  26.654  21.155  1.00  0.00    -0.639 OA
HETATM   19  O7  UNL     1      37.527  27.397  23.073  1.00  0.00    -0.639 OA
HETATM   20  O8  UNL     1      37.885  29.367  22.125  1.00  0.00    -0.639 OA
ENDBRANCH  16  17
ENDBRANCH  13  16
ENDBRANCH  11  12
ENDBRANCH   1  11
TORSDOF 7
ENDMDL
