MODEL 3
REMARK VINA RESULT: -8.273883535      1.155      1.216
REMARK  6 active torsions:
REMARK  status: ('A' for Active; 'I' for Inactive)
REMARK    1  A    between atoms: C1_2  and  C2_3 
REMARK       I    between atoms: C1_2  and  N1_8 
REMARK    2  A    between atoms: C2_3  and  P1_4 
REMARK    3  A    between atoms: N1_8  and  C3_10 
REMARK    4  A    between atoms: C7_14  and  N2_15 
REMARK       I    between atoms: N2_15  and  C8_17 
REMARK    5  A    between atoms: C8_17  and  C9_19 
REMARK    6  A    between atoms: C9_19  and  P2_20 
ROOT
HETATM    1  C3  UNL     1      37.396  28.277  21.761  1.00  0.00     0.036 A 
HETATM    2  C4  UNL     1      36.839  27.042  21.673  1.00  0.00     0.029 A 
HETATM    3  C5  UNL     1      37.331  26.114  20.751  1.00  0.00     0.004 A 
HETATM    4  C6  UNL     1      38.368  26.456  19.942  1.00  0.00     0.029 A 
HETATM    5  C7  UNL     1      38.970  27.718  19.998  1.00  0.00     0.036 A 
HETATM    6  C10 UNL     1      38.469  28.592  20.906  1.00  0.00     0.059 A 
ENDROOT
BRANCH   1   7
HETATM    7  N1  UNL     1      36.953  29.248  22.677  1.00  0.00    -0.327 N 
HETATM    8  C1  UNL     1      37.006  29.143  24.062  1.00  0.00     0.235 C 
HETATM    9  O1  UNL     1      37.477  28.137  24.620  1.00  0.00    -0.273 OA
ATOM     10  H1  UNL     1      36.556  30.105  22.290  1.00  0.00     0.169 HD
BRANCH   8  11
HETATM   11  C2  UNL     1      36.495  30.247  24.968  1.00  0.00     0.248 C 
BRANCH  11  12
HETATM   12  P1  UNL     1      36.784  31.872  24.502  1.00  0.00     0.268 P 
HETATM   13  O2  UNL     1      37.248  33.012  25.580  1.00  0.00    -0.639 OA
HETATM   14  O3  UNL     1      36.437  32.344  22.887  1.00  0.00    -0.639 OA
HETATM   15  O4  UNL     1      38.242  31.741  23.996  1.00  0.00    -0.639 OA
ENDBRANCH  11  12
ENDBRANCH   8  11
ENDBRANCH   1   7
BRANCH   5  16
HETATM   16  N2  UNL     1      40.030  27.960  19.110  1.00  0.00    -0.327 N 
HETATM   17  C8  UNL     1      39.956  28.541  17.820  1.00  0.00     0.235 C 
HETATM   18  O5  UNL     1      38.840  28.895  17.381  1.00  0.00    -0.273 OA
ATOM     19  H2  UNL     1      40.959  27.686  19.429  1.00  0.00     0.169 HD
BRANCH  17  20
HETATM   20  C9  UNL     1      41.166  28.746  16.964  1.00  0.00     0.248 C 
BRANCH  20  21
HETATM   21  P2  UNL     1      42.711  28.876  17.671  1.00  0.00     0.268 P 
HETATM   22  O6  UNL     1      42.392  29.729  18.917  1.00  0.00    -0.639 OA
HETATM   23  O7  UNL     1      43.273  27.701  18.754  1.00  0.00    -0.639 OA
HETATM   24  O8  UNL     1      43.792  30.046  17.204  1.00  0.00    -0.639 OA
ENDBRANCH  20  21
ENDBRANCH  17  20
ENDBRANCH   5  16
TORSDOF 6
ENDMDL
