MODEL 2
REMARK VINA RESULT: -8.335318261      1.551      7.428
REMARK  6 active torsions:
REMARK  status: ('A' for Active; 'I' for Inactive)
REMARK    1  A    between atoms: C1_2  and  C2_3 
REMARK       I    between atoms: C1_2  and  N1_8 
REMARK    2  A    between atoms: C2_3  and  P1_4 
REMARK    3  A    between atoms: N1_8  and  C3_10 
REMARK    4  A    between atoms: C7_14  and  N2_15 
REMARK       I    between atoms: N2_15  and  C8_17 
REMARK    5  A    between atoms: C8_17  and  C9_19 
REMARK    6  A    between atoms: C9_19  and  P2_20 
ROOT
HETATM    1  C3  UNL     1      39.203  27.679  20.106  1.00  0.00     0.036 A 
HETATM    2  C4  UNL     1      38.417  26.572  20.110  1.00  0.00     0.029 A 
HETATM    3  C5  UNL     1      37.419  26.423  21.077  1.00  0.00     0.004 A 
HETATM    4  C6  UNL     1      37.241  27.392  22.013  1.00  0.00     0.029 A 
HETATM    5  C7  UNL     1      38.028  28.547  22.046  1.00  0.00     0.036 A 
HETATM    6  C10 UNL     1      38.986  28.659  21.093  1.00  0.00     0.059 A 
ENDROOT
BRANCH   1   7
HETATM    7  N1  UNL     1      40.215  27.891  19.153  1.00  0.00    -0.327 N 
HETATM    8  C1  UNL     1      40.059  28.539  17.933  1.00  0.00     0.235 C 
HETATM    9  O1  UNL     1      38.962  29.005  17.580  1.00  0.00    -0.273 OA
ATOM     10  H1  UNL     1      41.146  27.537  19.376  1.00  0.00     0.169 HD
BRANCH   8  11
HETATM   11  C2  UNL     1      41.215  28.712  16.966  1.00  0.00     0.248 C 
BRANCH  11  12
HETATM   12  P1  UNL     1      42.791  28.898  17.617  1.00  0.00     0.268 P 
HETATM   13  O2  UNL     1      43.802  30.080  17.112  1.00  0.00    -0.639 OA
HETATM   14  O3  UNL     1      43.371  27.721  18.727  1.00  0.00    -0.639 OA
HETATM   15  O4  UNL     1      42.451  29.716  18.888  1.00  0.00    -0.639 OA
ENDBRANCH  11  12
ENDBRANCH   8  11
ENDBRANCH   1   7
BRANCH   5  16
HETATM   16  N2  UNL     1      37.757  29.476  23.064  1.00  0.00    -0.327 N 
HETATM   17  C8  UNL     1      37.081  30.715  22.941  1.00  0.00     0.235 C 
HETATM   18  O5  UNL     1      36.659  31.062  21.817  1.00  0.00    -0.273 OA
ATOM     19  H2  UNL     1      38.083  29.231  23.998  1.00  0.00     0.169 HD
BRANCH  17  20
HETATM   20  C9  UNL     1      36.854  31.622  24.109  1.00  0.00     0.248 C 
BRANCH  20  21
HETATM   21  P2  UNL     1      38.089  31.878  25.256  1.00  0.00     0.268 P 
HETATM   22  O6  UNL     1      37.481  31.193  26.498  1.00  0.00    -0.639 OA
HETATM   23  O7  UNL     1      39.370  30.780  25.413  1.00  0.00    -0.639 OA
HETATM   24  O8  UNL     1      38.190  33.282  26.136  1.00  0.00    -0.639 OA
ENDBRANCH  20  21
ENDBRANCH  17  20
ENDBRANCH   5  16
TORSDOF 6
ENDMDL
