MODEL 1
REMARK VINA RESULT: -8.412324185      0.000      0.000
REMARK  6 active torsions:
REMARK  status: ('A' for Active; 'I' for Inactive)
REMARK    1  A    between atoms: C1_2  and  C2_3 
REMARK       I    between atoms: C1_2  and  N1_8 
REMARK    2  A    between atoms: C2_3  and  P1_4 
REMARK    3  A    between atoms: N1_8  and  C3_10 
REMARK    4  A    between atoms: C7_14  and  N2_15 
REMARK       I    between atoms: N2_15  and  C8_17 
REMARK    5  A    between atoms: C8_17  and  C9_19 
REMARK    6  A    between atoms: C9_19  and  P2_20 
ROOT
HETATM    1  C3  UNL     1      37.498  28.214  21.979  1.00  0.00     0.036 A 
HETATM    2  C4  UNL     1      36.763  27.159  21.542  1.00  0.00     0.029 A 
HETATM    3  C5  UNL     1      37.336  26.207  20.695  1.00  0.00     0.004 A 
HETATM    4  C6  UNL     1      38.632  26.344  20.310  1.00  0.00     0.029 A 
HETATM    5  C7  UNL     1      39.425  27.415  20.735  1.00  0.00     0.036 A 
HETATM    6  C10 UNL     1      38.837  28.319  21.558  1.00  0.00     0.059 A 
ENDROOT
BRANCH   1   7
HETATM    7  N1  UNL     1      36.980  29.196  22.842  1.00  0.00    -0.327 N 
HETATM    8  C1  UNL     1      36.974  29.137  24.231  1.00  0.00     0.235 C 
HETATM    9  O1  UNL     1      37.452  28.166  24.842  1.00  0.00    -0.273 OA
ATOM     10  H1  UNL     1      36.573  30.027  22.410  1.00  0.00     0.169 HD
BRANCH   8  11
HETATM   11  C2  UNL     1      36.384  30.250  25.076  1.00  0.00     0.248 C 
BRANCH  11  12
HETATM   12  P1  UNL     1      36.705  31.870  24.615  1.00  0.00     0.268 P 
HETATM   13  O2  UNL     1      37.135  33.011  25.705  1.00  0.00    -0.639 OA
HETATM   14  O3  UNL     1      36.427  32.337  22.985  1.00  0.00    -0.639 OA
HETATM   15  O4  UNL     1      38.181  31.725  24.168  1.00  0.00    -0.639 OA
ENDBRANCH  11  12
ENDBRANCH   8  11
ENDBRANCH   1   7
BRANCH   5  16
HETATM   16  N2  UNL     1      40.748  27.455  20.268  1.00  0.00    -0.327 N 
HETATM   17  C8  UNL     1      41.263  28.240  19.207  1.00  0.00     0.235 C 
HETATM   18  O5  UNL     1      40.486  29.000  18.588  1.00  0.00    -0.273 OA
ATOM     19  H2  UNL     1      41.415  26.850  20.747  1.00  0.00     0.169 HD
BRANCH  17  20
HETATM   20  C9  UNL     1      42.702  28.192  18.801  1.00  0.00     0.248 C 
BRANCH  20  21
HETATM   21  P2  UNL     1      43.225  28.979  17.383  1.00  0.00     0.268 P 
HETATM   22  O6  UNL     1      44.404  29.812  17.929  1.00  0.00    -0.639 OA
HETATM   23  O7  UNL     1      44.358  28.253  16.354  1.00  0.00    -0.639 OA
HETATM   24  O8  UNL     1      42.530  30.392  16.857  1.00  0.00    -0.639 OA
ENDBRANCH  20  21
ENDBRANCH  17  20
ENDBRANCH   5  16
TORSDOF 6
ENDMDL
