MODEL 2
REMARK VINA RESULT: -7.658138261      4.136      5.873
REMARK  9 active torsions:
REMARK  status: ('A' for Active; 'I' for Inactive)
REMARK    1  A    between atoms: O1_2  and  C2_3 
REMARK    2  A    between atoms: C5_6  and  O2_7 
REMARK    3  A    between atoms: O2_7  and  C6_8 
REMARK    4  A    between atoms: C6_8  and  C7_9 
REMARK    5  A    between atoms: C7_9  and  C8_10 
REMARK    6  A    between atoms: C8_10  and  C9_11 
REMARK    7  A    between atoms: C9_11  and  C10_12 
REMARK    8  A    between atoms: C12_16  and  C13_17 
REMARK    9  A    between atoms: C13_17  and  C14_18 
ROOT
HETATM    1  C2  UNL     1      34.854   9.062  13.908  1.00  0.00     0.074 A 
HETATM    2  C3  UNL     1      35.608   9.076  15.072  1.00  0.00     0.040 A 
HETATM    3  C4  UNL     1      34.983   9.169  16.293  1.00  0.00     0.039 A 
HETATM    4  C5  UNL     1      33.618   9.254  16.409  1.00  0.00     0.069 A 
HETATM    5  C11 UNL     1      32.893   9.235  15.196  1.00  0.00     0.047 A 
HETATM    6  C12 UNL     1      33.485   9.142  13.984  1.00  0.00    -0.018 A 
ENDROOT
BRANCH   6   7
HETATM    7  C13 UNL     1      32.671   9.134  12.776  1.00  0.00     0.085 C 
BRANCH   7   8
HETATM    8  C14 UNL     1      31.653   8.092  12.686  1.00  0.00     0.003 A 
HETATM    9  C15 UNL     1      32.002   6.836  12.262  1.00  0.00     0.101 A 
HETATM   10  N1  UNL     1      31.059   5.874  12.172  1.00  0.00    -0.340 N 
HETATM   11  C16 UNL     1      29.770   6.120  12.490  1.00  0.00     0.193 A 
ATOM     12  H1  UNL     1      31.326   4.941  11.856  1.00  0.00     0.167 HD
HETATM   13  N2  UNL     1      28.780   5.113  12.394  1.00  0.00    -0.063 NA
HETATM   14  N3  UNL     1      29.452   7.352  12.901  1.00  0.00    -0.318 N 
HETATM   15  C17 UNL     1      30.345   8.344  13.010  1.00  0.00     0.126 A 
ATOM     16  H3  UNL     1      28.480   7.546  13.144  1.00  0.00     0.169 HD
HETATM   17  N4  UNL     1      29.908   9.629  13.457  1.00  0.00    -0.082 NA
ENDBRANCH   7   8
ENDBRANCH   6   7
BRANCH   1  18
HETATM   18  O1  UNL     1      35.438   8.969  12.661  1.00  0.00    -0.355 OA
HETATM   19  C1  UNL     1      36.784   9.380  12.527  1.00  0.00     0.210 C 
ENDBRANCH   1  18
BRANCH   4  20
HETATM   20  O2  UNL     1      32.921   9.353  17.577  1.00  0.00    -0.351 OA
BRANCH  20  21
HETATM   21  C6  UNL     1      32.091   8.526  18.281  1.00  0.00     0.175 C 
BRANCH  21  22
HETATM   22  C7  UNL     1      32.784   7.288  18.749  1.00  0.00     0.027 C 
BRANCH  22  23
HETATM   23  C8  UNL     1      32.205   6.020  18.110  1.00  0.00     0.013 C 
BRANCH  23  24
HETATM   24  C9  UNL     1      32.660   5.886  16.688  1.00  0.00     0.113 C 
BRANCH  24  25
HETATM   25  C10 UNL     1      31.473   5.696  15.803  1.00  0.00     0.172 C 
HETATM   26  O3  UNL     1      31.458   4.751  14.995  1.00  0.00    -0.648 OA
HETATM   27  O4  UNL     1      30.407   6.591  15.908  1.00  0.00    -0.648 OA
ENDBRANCH  24  25
ENDBRANCH  23  24
ENDBRANCH  22  23
ENDBRANCH  21  22
ENDBRANCH  20  21
ENDBRANCH   4  20
TORSDOF 9
ENDMDL
