MODEL 3
REMARK VINA RESULT: -7.594920152      3.862      5.659
REMARK  9 active torsions:
REMARK  status: ('A' for Active; 'I' for Inactive)
REMARK    1  A    between atoms: O1_2  and  C2_3 
REMARK    2  A    between atoms: C5_6  and  O2_7 
REMARK    3  A    between atoms: O2_7  and  C6_8 
REMARK    4  A    between atoms: C6_8  and  C7_9 
REMARK    5  A    between atoms: C7_9  and  C8_10 
REMARK    6  A    between atoms: C8_10  and  C9_11 
REMARK    7  A    between atoms: C9_11  and  C10_12 
REMARK    8  A    between atoms: C12_16  and  C13_17 
REMARK    9  A    between atoms: C13_17  and  C14_18 
ROOT
HETATM    1  C2  UNL     1      35.443   9.210  14.506  1.00  0.00     0.074 A 
HETATM    2  C3  UNL     1      36.126   8.857  15.660  1.00  0.00     0.040 A 
HETATM    3  C4  UNL     1      35.458   8.795  16.860  1.00  0.00     0.039 A 
HETATM    4  C5  UNL     1      34.119   9.076  16.965  1.00  0.00     0.069 A 
HETATM    5  C11 UNL     1      33.467   9.431  15.762  1.00  0.00     0.047 A 
HETATM    6  C12 UNL     1      34.102   9.497  14.571  1.00  0.00    -0.018 A 
ENDROOT
BRANCH   6   7
HETATM    7  C13 UNL     1      33.364   9.876  13.374  1.00  0.00     0.085 C 
BRANCH   7   8
HETATM    8  C14 UNL     1      32.298   8.971  12.954  1.00  0.00     0.003 A 
HETATM    9  C15 UNL     1      32.615   7.737  12.448  1.00  0.00     0.101 A 
HETATM   10  N1  UNL     1      31.629   6.903  12.054  1.00  0.00    -0.340 N 
HETATM   11  C16 UNL     1      30.329   7.256  12.145  1.00  0.00     0.193 A 
ATOM     12  H1  UNL     1      31.872   5.985  11.679  1.00  0.00     0.167 HD
HETATM   13  N2  UNL     1      29.295   6.383  11.730  1.00  0.00    -0.063 NA
HETATM   14  N3  UNL     1      30.044   8.464  12.642  1.00  0.00    -0.318 N 
HETATM   15  C17 UNL     1      30.978   9.332  13.049  1.00  0.00     0.126 A 
ATOM     16  H3  UNL     1      29.063   8.739  12.714  1.00  0.00     0.169 HD
HETATM   17  N4  UNL     1      30.575  10.601  13.564  1.00  0.00    -0.082 NA
ENDBRANCH   7   8
ENDBRANCH   6   7
BRANCH   1  18
HETATM   18  O1  UNL     1      36.073   9.285  13.280  1.00  0.00    -0.355 OA
HETATM   19  C1  UNL     1      37.463   9.038  13.233  1.00  0.00     0.210 C 
ENDBRANCH   1  18
BRANCH   4  20
HETATM   20  O2  UNL     1      33.384   9.043  18.113  1.00  0.00    -0.351 OA
BRANCH  20  21
HETATM   21  C6  UNL     1      32.481   8.173  18.658  1.00  0.00     0.175 C 
BRANCH  21  22
HETATM   22  C7  UNL     1      32.974   6.763  18.652  1.00  0.00     0.027 C 
BRANCH  22  23
HETATM   23  C8  UNL     1      32.072   5.835  17.829  1.00  0.00     0.013 C 
BRANCH  23  24
HETATM   24  C9  UNL     1      32.434   5.893  16.376  1.00  0.00     0.113 C 
BRANCH  24  25
HETATM   25  C10 UNL     1      31.210   6.175  15.570  1.00  0.00     0.172 C 
HETATM   26  O3  UNL     1      30.621   7.261  15.712  1.00  0.00    -0.648 OA
HETATM   27  O4  UNL     1      30.758   5.204  14.675  1.00  0.00    -0.648 OA
ENDBRANCH  24  25
ENDBRANCH  23  24
ENDBRANCH  22  23
ENDBRANCH  21  22
ENDBRANCH  20  21
ENDBRANCH   4  20
TORSDOF 9
ENDMDL
