MODEL 1
REMARK VINA RESULT: -7.902423993      0.000      0.000
REMARK  9 active torsions:
REMARK  status: ('A' for Active; 'I' for Inactive)
REMARK    1  A    between atoms: O1_2  and  C2_3 
REMARK    2  A    between atoms: C5_6  and  O2_7 
REMARK    3  A    between atoms: O2_7  and  C6_8 
REMARK    4  A    between atoms: C6_8  and  C7_9 
REMARK    5  A    between atoms: C7_9  and  C8_10 
REMARK    6  A    between atoms: C8_10  and  C9_11 
REMARK    7  A    between atoms: C9_11  and  C10_12 
REMARK    8  A    between atoms: C12_16  and  C13_17 
REMARK    9  A    between atoms: C13_17  and  C14_18 
ROOT
HETATM    1  C2  UNL     1      35.241   9.637  14.245  1.00  0.00     0.074 A 
HETATM    2  C3  UNL     1      34.433   9.005  13.312  1.00  0.00     0.040 A 
HETATM    3  C4  UNL     1      33.241   8.445  13.704  1.00  0.00     0.039 A 
HETATM    4  C5  UNL     1      32.810   8.483  15.007  1.00  0.00     0.069 A 
HETATM    5  C11 UNL     1      33.668   9.137  15.921  1.00  0.00     0.047 A 
HETATM    6  C12 UNL     1      34.844   9.697  15.558  1.00  0.00    -0.018 A 
ENDROOT
BRANCH   6   7
HETATM    7  C13 UNL     1      35.677  10.349  16.559  1.00  0.00     0.085 C 
BRANCH   7   8
HETATM    8  C14 UNL     1      36.304   9.480  17.549  1.00  0.00     0.003 A 
HETATM    9  C15 UNL     1      36.529   8.161  17.250  1.00  0.00     0.101 A 
HETATM   10  N1  UNL     1      37.103   7.355  18.169  1.00  0.00    -0.340 N 
HETATM   11  C16 UNL     1      37.463   7.819  19.385  1.00  0.00     0.193 A 
ATOM     12  H1  UNL     1      37.268   6.375  17.940  1.00  0.00     0.167 HD
HETATM   13  N2  UNL     1      38.063   6.974  20.350  1.00  0.00    -0.063 NA
HETATM   14  N3  UNL     1      37.235   9.108  19.655  1.00  0.00    -0.318 N 
HETATM   15  C17 UNL     1      36.670   9.953  18.783  1.00  0.00     0.126 A 
ATOM     16  H3  UNL     1      37.505   9.466  20.572  1.00  0.00     0.169 HD
HETATM   17  N4  UNL     1      36.465  11.314  19.164  1.00  0.00    -0.082 NA
ENDBRANCH   7   8
ENDBRANCH   6   7
BRANCH   1  18
HETATM   18  O1  UNL     1      36.446  10.214  13.897  1.00  0.00    -0.355 OA
HETATM   19  C1  UNL     1      37.275   9.517  12.988  1.00  0.00     0.210 C 
ENDBRANCH   1  18
BRANCH   4  20
HETATM   20  O2  UNL     1      31.648   7.950  15.479  1.00  0.00    -0.351 OA
BRANCH  20  21
HETATM   21  C6  UNL     1      31.170   6.684  15.668  1.00  0.00     0.175 C 
BRANCH  21  22
HETATM   22  C7  UNL     1      32.157   5.801  16.359  1.00  0.00     0.027 C 
BRANCH  22  23
HETATM   23  C8  UNL     1      32.102   5.949  17.885  1.00  0.00     0.013 C 
BRANCH  23  24
HETATM   24  C9  UNL     1      33.403   6.467  18.416  1.00  0.00     0.113 C 
BRANCH  24  25
HETATM   25  C10 UNL     1      33.156   7.705  19.215  1.00  0.00     0.172 C 
HETATM   26  O3  UNL     1      32.183   8.428  18.938  1.00  0.00    -0.648 OA
HETATM   27  O4  UNL     1      34.032   8.017  20.255  1.00  0.00    -0.648 OA
ENDBRANCH  24  25
ENDBRANCH  23  24
ENDBRANCH  22  23
ENDBRANCH  21  22
ENDBRANCH  20  21
ENDBRANCH   4  20
TORSDOF 9
ENDMDL
