MODEL 3
REMARK VINA RESULT: -9.051672242      1.228      6.976
REMARK  7 active torsions:
REMARK  status: ('A' for Active; 'I' for Inactive)
REMARK    1  A    between atoms: C1_2  and  C2_3 
REMARK       I    between atoms: C1_2  and  N1_8 
REMARK    2  A    between atoms: C2_3  and  P1_4 
REMARK    3  A    between atoms: N1_8  and  C3_10 
REMARK    4  A    between atoms: C5_12  and  N2_13 
REMARK       I    between atoms: N2_13  and  C6_15 
REMARK    5  A    between atoms: C6_15  and  C7_17 
REMARK    6  A    between atoms: C7_17  and  P2_18 
REMARK    7  A    between atoms: C9_23  and  C10_24 
ROOT
HETATM    1  C3  UNL     1      40.114  29.014  19.888  1.00  0.00     0.037 A 
HETATM    2  C4  UNL     1      39.998  30.212  20.588  1.00  0.00     0.059 A 
HETATM    3  C5  UNL     1      38.831  30.557  21.268  1.00  0.00     0.037 A 
HETATM    4  C8  UNL     1      37.798  29.672  21.222  1.00  0.00     0.048 A 
HETATM    5  C9  UNL     1      37.865  28.479  20.547  1.00  0.00     0.045 A 
HETATM    6  C11 UNL     1      39.040  28.160  19.877  1.00  0.00     0.048 A 
ENDROOT
BRANCH   1   7
HETATM    7  N1  UNL     1      41.324  28.677  19.224  1.00  0.00    -0.327 N 
HETATM    8  C1  UNL     1      41.630  29.024  17.913  1.00  0.00     0.235 C 
HETATM    9  O1  UNL     1      40.835  29.703  17.196  1.00  0.00    -0.273 OA
ATOM     10  H1  UNL     1      42.018  28.143  19.747  1.00  0.00     0.169 HD
BRANCH   8  11
HETATM   11  C2  UNL     1      42.941  28.607  17.246  1.00  0.00     0.248 C 
BRANCH  11  12
HETATM   12  P1  UNL     1      44.258  29.324  17.938  1.00  0.00     0.268 P 
HETATM   13  O2  UNL     1      44.405  28.094  19.027  1.00  0.00    -0.639 OA
HETATM   14  O3  UNL     1      45.152  29.182  16.547  1.00  0.00    -0.639 OA
HETATM   15  O4  UNL     1      45.440  30.061  18.581  1.00  0.00    -0.639 OA
ENDBRANCH  11  12
ENDBRANCH   8  11
ENDBRANCH   1   7
BRANCH   3  16
HETATM   16  N2  UNL     1      38.774  31.808  21.972  1.00  0.00    -0.327 N 
HETATM   17  C6  UNL     1      39.259  32.052  23.255  1.00  0.00     0.235 C 
HETATM   18  O5  UNL     1      39.817  31.135  23.904  1.00  0.00    -0.273 OA
ATOM     19  H2  UNL     1      38.338  32.592  21.487  1.00  0.00     0.169 HD
BRANCH  17  20
HETATM   20  C7  UNL     1      39.167  33.389  23.970  1.00  0.00     0.248 C 
BRANCH  20  21
HETATM   21  P2  UNL     1      39.020  34.668  22.963  1.00  0.00     0.268 P 
HETATM   22  O6  UNL     1      37.440  34.283  22.571  1.00  0.00    -0.639 OA
HETATM   23  O7  UNL     1      40.240  34.217  21.980  1.00  0.00    -0.639 OA
HETATM   24  O8  UNL     1      39.284  35.777  24.157  1.00  0.00    -0.639 OA
ENDBRANCH  20  21
ENDBRANCH  17  20
ENDBRANCH   3  16
BRANCH   5  25
HETATM   25  C10 UNL     1      36.733  27.568  20.527  1.00  0.00     0.209 C 
HETATM   26  O9  UNL     1      36.760  26.434  21.042  1.00  0.00    -0.644 OA
HETATM   27  O10 UNL     1      35.562  27.965  19.906  1.00  0.00    -0.644 OA
ENDBRANCH   5  25
TORSDOF 7
ENDMDL
