MODEL 1
REMARK VINA RESULT: -9.102210850      0.000      0.000
REMARK  7 active torsions:
REMARK  status: ('A' for Active; 'I' for Inactive)
REMARK    1  A    between atoms: C1_2  and  C2_3 
REMARK       I    between atoms: C1_2  and  N1_8 
REMARK    2  A    between atoms: C2_3  and  P1_4 
REMARK    3  A    between atoms: N1_8  and  C3_10 
REMARK    4  A    between atoms: C5_12  and  N2_13 
REMARK       I    between atoms: N2_13  and  C6_15 
REMARK    5  A    between atoms: C6_15  and  C7_17 
REMARK    6  A    between atoms: C7_17  and  P2_18 
REMARK    7  A    between atoms: C9_23  and  C10_24 
ROOT
HETATM    1  C3  UNL     1      38.465  30.701  20.787  1.00  0.00     0.037 A 
HETATM    2  C4  UNL     1      39.609  30.333  20.083  1.00  0.00     0.059 A 
HETATM    3  C5  UNL     1      39.744  29.072  19.506  1.00  0.00     0.037 A 
HETATM    4  C8  UNL     1      38.707  28.203  19.656  1.00  0.00     0.048 A 
HETATM    5  C9  UNL     1      37.560  28.520  20.338  1.00  0.00     0.045 A 
HETATM    6  C11 UNL     1      37.451  29.784  20.905  1.00  0.00     0.048 A 
ENDROOT
BRANCH   1   7
HETATM    7  N1  UNL     1      38.344  32.002  21.344  1.00  0.00    -0.327 N 
HETATM    8  C1  UNL     1      39.305  32.613  22.143  1.00  0.00     0.235 C 
HETATM    9  O1  UNL     1      40.401  32.043  22.427  1.00  0.00    -0.273 OA
ATOM     10  H1  UNL     1      37.492  32.526  21.144  1.00  0.00     0.169 HD
BRANCH   8  11
HETATM   11  C2  UNL     1      39.103  34.007  22.736  1.00  0.00     0.248 C 
BRANCH  11  12
HETATM   12  P1  UNL     1      37.824  34.071  23.779  1.00  0.00     0.268 P 
HETATM   13  O2  UNL     1      36.750  34.000  22.529  1.00  0.00    -0.639 OA
HETATM   14  O3  UNL     1      38.233  32.622  24.478  1.00  0.00    -0.639 OA
HETATM   15  O4  UNL     1      36.674  34.192  24.788  1.00  0.00    -0.639 OA
ENDBRANCH  11  12
ENDBRANCH   8  11
ENDBRANCH   1   7
BRANCH   3  16
HETATM   16  N2  UNL     1      40.950  28.754  18.792  1.00  0.00    -0.327 N 
HETATM   17  C6  UNL     1      41.134  28.833  17.414  1.00  0.00     0.235 C 
HETATM   18  O5  UNL     1      40.199  29.222  16.673  1.00  0.00    -0.273 OA
ATOM     19  H2  UNL     1      41.746  28.440  19.347  1.00  0.00     0.169 HD
BRANCH  17  20
HETATM   20  C7  UNL     1      42.423  28.473  16.696  1.00  0.00     0.248 C 
BRANCH  20  21
HETATM   21  P2  UNL     1      43.768  29.047  17.426  1.00  0.00     0.268 P 
HETATM   22  O6  UNL     1      43.113  30.575  17.614  1.00  0.00    -0.639 OA
HETATM   23  O7  UNL     1      44.758  28.731  16.170  1.00  0.00    -0.639 OA
HETATM   24  O8  UNL     1      43.667  27.989  18.689  1.00  0.00    -0.639 OA
ENDBRANCH  20  21
ENDBRANCH  17  20
ENDBRANCH   3  16
BRANCH   5  25
HETATM   25  C10 UNL     1      36.480  27.556  20.473  1.00  0.00     0.209 C 
HETATM   26  O9  UNL     1      36.609  26.464  21.060  1.00  0.00    -0.644 OA
HETATM   27  O10 UNL     1      35.244  27.851  19.927  1.00  0.00    -0.644 OA
ENDBRANCH   5  25
TORSDOF 7
ENDMDL
