MODEL 2
REMARK VINA RESULT: -9.077078212      1.324      6.761
REMARK  7 active torsions:
REMARK  status: ('A' for Active; 'I' for Inactive)
REMARK    1  A    between atoms: C1_2  and  C2_3 
REMARK       I    between atoms: C1_2  and  N1_8 
REMARK    2  A    between atoms: C2_3  and  P1_4 
REMARK    3  A    between atoms: N1_8  and  C3_10 
REMARK    4  A    between atoms: C5_12  and  N2_13 
REMARK       I    between atoms: N2_13  and  C6_15 
REMARK    5  A    between atoms: C6_15  and  C7_17 
REMARK    6  A    between atoms: C7_17  and  P2_18 
REMARK    7  A    between atoms: C9_23  and  C10_24 
ROOT
HETATM    1  C3  UNL     1      39.970  29.024  19.337  1.00  0.00     0.037 A 
HETATM    2  C4  UNL     1      40.045  30.175  20.117  1.00  0.00     0.059 A 
HETATM    3  C5  UNL     1      39.043  30.517  21.022  1.00  0.00     0.037 A 
HETATM    4  C8  UNL     1      37.976  29.677  21.118  1.00  0.00     0.048 A 
HETATM    5  C9  UNL     1      37.858  28.531  20.373  1.00  0.00     0.045 A 
HETATM    6  C11 UNL     1      38.871  28.214  19.477  1.00  0.00     0.048 A 
ENDROOT
BRANCH   1   7
HETATM    7  N1  UNL     1      41.018  28.687  18.439  1.00  0.00    -0.327 N 
HETATM    8  C1  UNL     1      41.000  28.939  17.072  1.00  0.00     0.235 C 
HETATM    9  O1  UNL     1      40.025  29.523  16.510  1.00  0.00    -0.273 OA
ATOM     10  H1  UNL     1      41.843  28.227  18.825  1.00  0.00     0.169 HD
BRANCH   8  11
HETATM   11  C2  UNL     1      42.151  28.527  16.153  1.00  0.00     0.248 C 
BRANCH  11  12
HETATM   12  P1  UNL     1      43.612  29.084  16.682  1.00  0.00     0.268 P 
HETATM   13  O2  UNL     1      42.952  30.537  17.099  1.00  0.00    -0.639 OA
HETATM   14  O3  UNL     1      43.691  27.942  17.884  1.00  0.00    -0.639 OA
HETATM   15  O4  UNL     1      45.005  29.573  17.105  1.00  0.00    -0.639 OA
ENDBRANCH  11  12
ENDBRANCH   8  11
ENDBRANCH   1   7
BRANCH   3  16
HETATM   16  N2  UNL     1      39.180  31.718  21.799  1.00  0.00    -0.327 N 
HETATM   17  C6  UNL     1      39.801  31.829  23.040  1.00  0.00     0.235 C 
HETATM   18  O5  UNL     1      40.318  30.821  23.579  1.00  0.00    -0.273 OA
ATOM     19  H2  UNL     1      38.784  32.571  21.403  1.00  0.00     0.169 HD
BRANCH  17  20
HETATM   20  C7  UNL     1      39.912  33.118  23.835  1.00  0.00     0.248 C 
BRANCH  20  21
HETATM   21  P2  UNL     1      40.269  34.428  22.924  1.00  0.00     0.268 P 
HETATM   22  O6  UNL     1      40.740  35.326  24.254  1.00  0.00    -0.639 OA
HETATM   23  O7  UNL     1      38.764  34.593  22.317  1.00  0.00    -0.639 OA
HETATM   24  O8  UNL     1      41.432  33.643  22.054  1.00  0.00    -0.639 OA
ENDBRANCH  20  21
ENDBRANCH  17  20
ENDBRANCH   3  16
BRANCH   5  25
HETATM   25  C10 UNL     1      36.697  27.666  20.511  1.00  0.00     0.209 C 
HETATM   26  O9  UNL     1      36.733  26.562  21.085  1.00  0.00    -0.644 OA
HETATM   27  O10 UNL     1      35.487  28.078  19.982  1.00  0.00    -0.644 OA
ENDBRANCH   5  25
TORSDOF 7
ENDMDL
