MODEL 3
REMARK VINA RESULT: -7.809264976      0.090      6.795
REMARK  3 active torsions:
REMARK  status: ('A' for Active; 'I' for Inactive)
REMARK    1  A    between atoms: O1_1  and  C1_3 
REMARK    2  A    between atoms: C4_7  and  C5_8 
REMARK    3  A    between atoms: C8_12  and  O2_13 
ROOT
HETATM    1  C1  UNL     1      21.644  42.896  28.812  1.00  0.00     0.109 A 
HETATM    2  C2  UNL     1      22.136  41.808  28.121  1.00  0.00     0.069 A 
HETATM    3 CL1  UNL     1      22.762  40.431  29.012  1.00  0.00    -0.081 Cl
HETATM    4  C3  UNL     1      22.133  41.805  26.730  1.00  0.00     0.039 A 
HETATM    5  C4  UNL     1      21.630  42.912  26.062  1.00  0.00    -0.022 A 
HETATM    6  C11 UNL     1      21.146  43.984  26.761  1.00  0.00     0.039 A 
HETATM    7  C12 UNL     1      21.144  43.997  28.151  1.00  0.00     0.069 A 
HETATM    8 CL4  UNL     1      20.516  45.389  29.003  1.00  0.00    -0.081 Cl
ENDROOT
BRANCH   5   9
HETATM    9  C5  UNL     1      21.622  42.918  24.607  1.00  0.00    -0.022 A 
HETATM   10  C6  UNL     1      21.777  41.742  23.911  1.00  0.00     0.039 A 
HETATM   11  C7  UNL     1      21.776  41.707  22.531  1.00  0.00     0.069 A 
HETATM   12 CL2  UNL     1      21.976  40.199  21.634  1.00  0.00    -0.081 Cl
HETATM   13  C8  UNL     1      21.618  42.874  21.819  1.00  0.00     0.109 A 
HETATM   14  C9  UNL     1      21.459  44.075  22.503  1.00  0.00     0.069 A 
HETATM   15 CL3  UNL     1      21.258  45.555  21.585  1.00  0.00    -0.081 Cl
HETATM   16  C10 UNL     1      21.463  44.088  23.883  1.00  0.00     0.039 A 
BRANCH  13  17
HETATM   17  O2  UNL     1      21.607  42.908  20.419  1.00  0.00    -0.357 OA
ATOM     18  H2  UNL     1      22.029  42.243  19.887  1.00  0.00     0.217 HD
ENDBRANCH  13  17
ENDBRANCH   5   9
BRANCH   1  19
HETATM   19  O1  UNL     1      21.666  42.860  30.199  1.00  0.00    -0.357 OA
ATOM     20  H1  UNL     1      22.462  42.571  30.629  1.00  0.00     0.217 HD
ENDBRANCH   1  19
TORSDOF 3
ENDMDL
