MODEL 4
REMARK VINA RESULT: -7.797535184      0.073      3.012
REMARK  3 active torsions:
REMARK  status: ('A' for Active; 'I' for Inactive)
REMARK    1  A    between atoms: O1_1  and  C1_3 
REMARK    2  A    between atoms: C4_7  and  C5_8 
REMARK    3  A    between atoms: C8_12  and  O2_13 
ROOT
HETATM    1  C1  UNL     1      21.671  42.945  21.782  1.00  0.00     0.109 A 
HETATM    2  C2  UNL     1      21.846  41.765  22.475  1.00  0.00     0.069 A 
HETATM    3 CL1  UNL     1      22.089  40.271  21.588  1.00  0.00    -0.081 Cl
HETATM    4  C3  UNL     1      21.830  41.764  23.867  1.00  0.00     0.039 A 
HETATM    5  C4  UNL     1      21.636  42.965  24.532  1.00  0.00    -0.022 A 
HETATM    6  C11 UNL     1      21.463  44.127  23.831  1.00  0.00     0.039 A 
HETATM    7  C12 UNL     1      21.477  44.140  22.441  1.00  0.00     0.069 A 
HETATM    8 CL4  UNL     1      21.252  45.649  21.587  1.00  0.00    -0.081 Cl
ENDROOT
BRANCH   5   9
HETATM    9  C5  UNL     1      21.617  42.974  25.987  1.00  0.00    -0.022 A 
HETATM   10  C6  UNL     1      22.133  41.910  26.690  1.00  0.00     0.039 A 
HETATM   11  C7  UNL     1      22.133  41.881  28.070  1.00  0.00     0.069 A 
HETATM   12 CL2  UNL     1      22.793  40.516  28.976  1.00  0.00    -0.081 Cl
HETATM   13  C8  UNL     1      21.606  42.938  28.775  1.00  0.00     0.109 A 
HETATM   14  C9  UNL     1      21.079  44.025  28.084  1.00  0.00     0.069 A 
HETATM   15 CL3  UNL     1      20.410  45.366  28.993  1.00  0.00    -0.081 Cl
HETATM   16  C10 UNL     1      21.089  44.034  26.704  1.00  0.00     0.039 A 
BRANCH  13  17
HETATM   17  O2  UNL     1      21.575  42.972  30.175  1.00  0.00    -0.357 OA
ATOM     18  H2  UNL     1      21.168  43.679  30.662  1.00  0.00     0.217 HD
ENDBRANCH  13  17
ENDBRANCH   5   9
BRANCH   1  19
HETATM   19  O1  UNL     1      21.693  42.904  20.396  1.00  0.00    -0.357 OA
ATOM     20  H1  UNL     1      21.392  42.113  19.964  1.00  0.00     0.217 HD
ENDBRANCH   1  19
TORSDOF 3
ENDMDL
