MODEL 5
REMARK VINA RESULT: -7.791557354      0.109      6.473
REMARK  3 active torsions:
REMARK  status: ('A' for Active; 'I' for Inactive)
REMARK    1  A    between atoms: O1_1  and  C1_3 
REMARK    2  A    between atoms: C4_7  and  C5_8 
REMARK    3  A    between atoms: C8_12  and  O2_13 
ROOT
HETATM    1  C1  UNL     1      21.654  42.875  28.868  1.00  0.00     0.109 A 
HETATM    2  C2  UNL     1      22.123  41.780  28.172  1.00  0.00     0.069 A 
HETATM    3 CL1  UNL     1      22.708  40.382  29.056  1.00  0.00    -0.081 Cl
HETATM    4  C3  UNL     1      22.129  41.787  26.780  1.00  0.00     0.039 A 
HETATM    5  C4  UNL     1      21.658  42.910  26.118  1.00  0.00    -0.022 A 
HETATM    6  C11 UNL     1      21.197  43.989  26.821  1.00  0.00     0.039 A 
HETATM    7  C12 UNL     1      21.186  43.993  28.211  1.00  0.00     0.069 A 
HETATM    8 CL4  UNL     1      20.587  45.394  29.069  1.00  0.00    -0.081 Cl
ENDROOT
BRANCH   5   9
HETATM    9  C5  UNL     1      21.660  42.927  24.663  1.00  0.00    -0.022 A 
HETATM   10  C6  UNL     1      21.524  44.117  23.986  1.00  0.00     0.039 A 
HETATM   11  C7  UNL     1      21.521  44.174  22.607  1.00  0.00     0.069 A 
HETATM   12 CL2  UNL     1      21.346  45.700  21.735  1.00  0.00    -0.081 Cl
HETATM   13  C8  UNL     1      21.655  43.016  21.876  1.00  0.00     0.109 A 
HETATM   14  C9  UNL     1      21.794  41.802  22.539  1.00  0.00     0.069 A 
HETATM   15 CL3  UNL     1      21.964  40.333  21.597  1.00  0.00    -0.081 Cl
HETATM   16  C10 UNL     1      21.795  41.766  23.919  1.00  0.00     0.039 A 
BRANCH  13  17
HETATM   17  O2  UNL     1      21.659  43.004  20.475  1.00  0.00    -0.357 OA
ATOM     18  H2  UNL     1      22.369  43.373  19.962  1.00  0.00     0.217 HD
ENDBRANCH  13  17
ENDBRANCH   5   9
BRANCH   1  19
HETATM   19  O1  UNL     1      21.665  42.828  30.254  1.00  0.00    -0.357 OA
ATOM     20  H1  UNL     1      21.823  43.635  30.730  1.00  0.00     0.217 HD
ENDBRANCH   1  19
TORSDOF 3
ENDMDL
