MODEL 20
REMARK VINA RESULT: -6.022652880      3.412      5.447
REMARK  3 active torsions:
REMARK  status: ('A' for Active; 'I' for Inactive)
REMARK    1  A    between atoms: O1_1  and  C1_3 
REMARK    2  A    between atoms: C4_7  and  C5_8 
REMARK    3  A    between atoms: C8_12  and  O2_13 
ROOT
HETATM    1  C1  UNL     1      22.044  42.507  26.913  1.00  0.00     0.109 A 
HETATM    2  C2  UNL     1      21.147  43.545  26.763  1.00  0.00     0.069 A 
HETATM    3 CL1  UNL     1      20.726  44.097  25.151  1.00  0.00    -0.081 Cl
HETATM    4  C3  UNL     1      20.582  44.147  27.883  1.00  0.00     0.039 A 
HETATM    5  C4  UNL     1      20.940  43.683  29.140  1.00  0.00    -0.022 A 
HETATM    6  C11 UNL     1      21.831  42.654  29.273  1.00  0.00     0.039 A 
HETATM    7  C12 UNL     1      22.401  42.045  28.160  1.00  0.00     0.069 A 
HETATM    8 CL4  UNL     1      23.535  40.732  28.378  1.00  0.00    -0.081 Cl
ENDROOT
BRANCH   5   9
HETATM    9  C5  UNL     1      20.354  44.306  30.318  1.00  0.00    -0.022 A 
HETATM   10  C6  UNL     1      21.080  44.396  31.483  1.00  0.00     0.039 A 
HETATM   11  C7  UNL     1      20.559  44.980  32.621  1.00  0.00     0.069 A 
HETATM   12 CL2  UNL     1      21.488  45.097  34.119  1.00  0.00    -0.081 Cl
HETATM   13  C8  UNL     1      19.281  45.487  32.604  1.00  0.00     0.109 A 
HETATM   14  C9  UNL     1      18.529  45.406  31.437  1.00  0.00     0.069 A 
HETATM   15 CL3  UNL     1      16.901  46.056  31.427  1.00  0.00    -0.081 Cl
HETATM   16  C10 UNL     1      19.068  44.819  30.309  1.00  0.00     0.039 A 
BRANCH  13  17
HETATM   17  O2  UNL     1      18.693  46.090  33.724  1.00  0.00    -0.357 OA
ATOM     18  H2  UNL     1      18.688  47.031  33.855  1.00  0.00     0.217 HD
ENDBRANCH  13  17
ENDBRANCH   5   9
BRANCH   1  19
HETATM   19  O1  UNL     1      22.584  41.935  25.771  1.00  0.00    -0.357 OA
ATOM     20  H1  UNL     1      23.327  41.351  25.868  1.00  0.00     0.217 HD
ENDBRANCH   1  19
TORSDOF 3
ENDMDL
