MODEL 2
REMARK VINA RESULT: -7.819998860      0.056      2.122
REMARK  3 active torsions:
REMARK  status: ('A' for Active; 'I' for Inactive)
REMARK    1  A    between atoms: O1_1  and  C1_3 
REMARK    2  A    between atoms: C4_7  and  C5_8 
REMARK    3  A    between atoms: C8_12  and  O2_13 
ROOT
HETATM    1  C1  UNL     1      21.633  42.964  21.804  1.00  0.00     0.109 A 
HETATM    2  C2  UNL     1      21.489  44.154  22.488  1.00  0.00     0.069 A 
HETATM    3 CL1  UNL     1      21.313  45.651  21.589  1.00  0.00    -0.081 Cl
HETATM    4  C3  UNL     1      21.482  44.163  23.879  1.00  0.00     0.039 A 
HETATM    5  C4  UNL     1      21.624  42.959  24.554  1.00  0.00    -0.022 A 
HETATM    6  C11 UNL     1      21.767  41.788  23.862  1.00  0.00     0.039 A 
HETATM    7  C12 UNL     1      21.774  41.768  22.472  1.00  0.00     0.069 A 
HETATM    8 CL4  UNL     1      21.960  40.247  21.629  1.00  0.00    -0.081 Cl
ENDROOT
BRANCH   5   9
HETATM    9  C5  UNL     1      21.618  42.958  26.009  1.00  0.00    -0.022 A 
HETATM   10  C6  UNL     1      22.094  41.868  26.700  1.00  0.00     0.039 A 
HETATM   11  C7  UNL     1      22.105  41.830  28.080  1.00  0.00     0.069 A 
HETATM   12 CL2  UNL     1      22.715  40.431  28.970  1.00  0.00    -0.081 Cl
HETATM   13  C8  UNL     1      21.628  42.903  28.797  1.00  0.00     0.109 A 
HETATM   14  C9  UNL     1      21.142  44.015  28.118  1.00  0.00     0.069 A 
HETATM   15 CL3  UNL     1      20.538  45.377  29.043  1.00  0.00    -0.081 Cl
HETATM   16  C10 UNL     1      21.140  44.035  26.738  1.00  0.00     0.039 A 
BRANCH  13  17
HETATM   17  O2  UNL     1      21.611  42.927  30.198  1.00  0.00    -0.357 OA
ATOM     18  H2  UNL     1      21.313  43.681  30.693  1.00  0.00     0.217 HD
ENDBRANCH  13  17
ENDBRANCH   5   9
BRANCH   1  19
HETATM   19  O1  UNL     1      21.635  42.999  20.417  1.00  0.00    -0.357 OA
ATOM     20  H1  UNL     1      22.404  42.680  19.960  1.00  0.00     0.217 HD
ENDBRANCH   1  19
TORSDOF 3
ENDMDL
