MODEL 1
REMARK VINA RESULT: -7.829657345      0.000      0.000
REMARK  3 active torsions:
REMARK  status: ('A' for Active; 'I' for Inactive)
REMARK    1  A    between atoms: O1_1  and  C1_3 
REMARK    2  A    between atoms: C4_7  and  C5_8 
REMARK    3  A    between atoms: C8_12  and  O2_13 
ROOT
HETATM    1  C1  UNL     1      21.650  43.000  21.796  1.00  0.00     0.109 A 
HETATM    2  C2  UNL     1      21.473  44.173  22.500  1.00  0.00     0.069 A 
HETATM    3 CL1  UNL     1      21.250  45.679  21.626  1.00  0.00    -0.081 Cl
HETATM    4  C3  UNL     1      21.472  44.159  23.891  1.00  0.00     0.039 A 
HETATM    5  C4  UNL     1      21.651  42.950  24.545  1.00  0.00    -0.022 A 
HETATM    6  C11 UNL     1      21.825  41.794  23.834  1.00  0.00     0.039 A 
HETATM    7  C12 UNL     1      21.828  41.797  22.444  1.00  0.00     0.069 A 
HETATM    8 CL4  UNL     1      22.055  40.296  21.576  1.00  0.00    -0.081 Cl
ENDROOT
BRANCH   5   9
HETATM    9  C5  UNL     1      21.651  42.925  26.000  1.00  0.00    -0.022 A 
HETATM   10  C6  UNL     1      21.155  43.995  26.709  1.00  0.00     0.039 A 
HETATM   11  C7  UNL     1      21.138  44.009  28.090  1.00  0.00     0.069 A 
HETATM   12 CL2  UNL     1      20.502  45.381  29.002  1.00  0.00    -0.081 Cl
HETATM   13  C8  UNL     1      21.629  42.931  28.789  1.00  0.00     0.109 A 
HETATM   14  C9  UNL     1      22.135  41.838  28.093  1.00  0.00     0.069 A 
HETATM   15 CL3  UNL     1      22.757  40.470  28.995  1.00  0.00    -0.081 Cl
HETATM   16  C10 UNL     1      22.142  41.843  26.712  1.00  0.00     0.039 A 
BRANCH  13  17
HETATM   17  O2  UNL     1      21.641  42.881  30.189  1.00  0.00    -0.357 OA
ATOM     18  H2  UNL     1      21.781  42.075  30.672  1.00  0.00     0.217 HD
ENDBRANCH  13  17
ENDBRANCH   5   9
BRANCH   1  19
HETATM   19  O1  UNL     1      21.645  43.057  20.410  1.00  0.00    -0.357 OA
ATOM     20  H1  UNL     1      20.827  42.895  19.955  1.00  0.00     0.217 HD
ENDBRANCH   1  19
TORSDOF 3
ENDMDL
