MODEL 3
REMARK VINA RESULT: -6.654713754      3.530      6.237
REMARK  5 active torsions:
REMARK  status: ('A' for Active; 'I' for Inactive)
REMARK    1  A    between atoms: N1_5  and  C4_6 
REMARK    2  A    between atoms: C6_8  and  O2_9 
REMARK    3  A    between atoms: C7_11  and  C8_12 
REMARK    4  A    between atoms: C8_12  and  O3_13 
REMARK    5  A    between atoms: O3_13  and  P1_14 
ROOT
HETATM    1  C4  UNL     1      13.377  49.242 -50.779  1.00  0.00     0.235 C 
HETATM    2  C5  UNL     1      14.170  48.639 -49.653  1.00  0.00     0.088 C 
HETATM    3  C6  UNL     1      13.769  49.546 -48.485  1.00  0.00     0.153 C 
HETATM    4  C7  UNL     1      13.344  50.792 -49.203  1.00  0.00     0.177 C 
HETATM    5  O7  UNL     1      13.501  50.596 -50.551  1.00  0.00    -0.356 OA
ENDROOT
BRANCH   1   6
HETATM    6  N1  UNL     1      13.861  48.844 -52.073  1.00  0.00    -0.282 N 
HETATM    7  C3  UNL     1      15.162  48.716 -52.390  1.00  0.00     0.104 A 
HETATM    8  C2  UNL     1      15.603  48.332 -53.637  1.00  0.00     0.092 A 
HETATM    9  C1  UNL     1      14.658  48.067 -54.604  1.00  0.00     0.250 A 
HETATM   10  O1  UNL     1      15.061  47.720 -55.731  1.00  0.00    -0.268 OA
HETATM   11  N2  UNL     1      13.350  48.198 -54.277  1.00  0.00    -0.275 N 
HETATM   12  C9  UNL     1      12.966  48.579 -53.034  1.00  0.00     0.331 A 
ATOM     13  H2  UNL     1      12.638  48.004 -54.982  1.00  0.00     0.173 HD
HETATM   14  O8  UNL     1      11.735  48.672 -52.828  1.00  0.00    -0.246 OA
ENDBRANCH   1   6
BRANCH   3  15
HETATM   15  O2  UNL     1      12.748  48.969 -47.741  1.00  0.00    -0.393 OA
ATOM     16  H2  UNL     1      12.235  49.635 -47.299  1.00  0.00     0.210 HD
ENDBRANCH   3  15
BRANCH   4  17
HETATM   17  C8  UNL     1      14.162  51.948 -48.680  1.00  0.00     0.217 C 
BRANCH  17  18
HETATM   18  O3  UNL     1      15.462  51.909 -49.233  1.00  0.00    -0.280 OA
BRANCH  18  19
HETATM   19  P1  UNL     1      15.879  53.377 -49.919  1.00  0.00     0.422 P 
HETATM   20  O4  UNL     1      14.753  53.870 -50.811  1.00  0.00    -0.617 OA
HETATM   21  O5  UNL     1      17.333  53.291 -50.778  1.00  0.00    -0.617 OA
HETATM   22  O6  UNL     1      16.081  54.556 -48.702  1.00  0.00    -0.617 OA
ENDBRANCH  18  19
ENDBRANCH  17  18
ENDBRANCH   4  17
TORSDOF 5
ENDMDL
