MODEL 14
REMARK VINA RESULT: -6.434656296      5.175      7.167
REMARK  5 active torsions:
REMARK  status: ('A' for Active; 'I' for Inactive)
REMARK    1  A    between atoms: N1_5  and  C4_6 
REMARK    2  A    between atoms: C6_8  and  O2_9 
REMARK    3  A    between atoms: C7_11  and  C8_12 
REMARK    4  A    between atoms: C8_12  and  O3_13 
REMARK    5  A    between atoms: O3_13  and  P1_14 
ROOT
HETATM    1  C4  UNL     1      15.816  49.064 -54.156  1.00  0.00     0.235 C 
HETATM    2  C5  UNL     1      15.360  48.057 -55.175  1.00  0.00     0.088 C 
HETATM    3  C6  UNL     1      16.227  48.435 -56.379  1.00  0.00     0.153 C 
HETATM    4  C7  UNL     1      16.552  49.868 -56.080  1.00  0.00     0.177 C 
HETATM    5  O7  UNL     1      15.945  50.217 -54.901  1.00  0.00    -0.356 OA
ENDROOT
BRANCH   1   6
HETATM    6  N1  UNL     1      14.894  49.202 -53.062  1.00  0.00    -0.282 N 
HETATM    7  C3  UNL     1      13.564  49.033 -53.165  1.00  0.00     0.104 A 
HETATM    8  C2  UNL     1      12.698  49.170 -52.102  1.00  0.00     0.092 A 
HETATM    9  C1  UNL     1      13.230  49.497 -50.874  1.00  0.00     0.250 A 
HETATM   10  O1  UNL     1      12.444  49.620 -49.914  1.00  0.00    -0.268 OA
HETATM   11  N2  UNL     1      14.570  49.665 -50.778  1.00  0.00    -0.275 N 
HETATM   12  C9  UNL     1      15.381  49.520 -51.855  1.00  0.00     0.331 A 
ATOM     13  H2  UNL     1      14.980  49.907 -49.875  1.00  0.00     0.173 HD
HETATM   14  O8  UNL     1      16.605  49.695 -51.667  1.00  0.00    -0.246 OA
ENDBRANCH   1   6
BRANCH   3  15
HETATM   15  O2  UNL     1      17.353  47.623 -56.451  1.00  0.00    -0.393 OA
ATOM     16  H2  UNL     1      18.147  48.143 -56.407  1.00  0.00     0.210 HD
ENDBRANCH   3  15
BRANCH   4  17
HETATM   17  C8  UNL     1      16.101  50.714 -57.245  1.00  0.00     0.217 C 
BRANCH  17  18
HETATM   18  O3  UNL     1      15.844  49.894 -58.367  1.00  0.00    -0.280 OA
BRANCH  18  19
HETATM   19  P1  UNL     1      16.091  50.724 -59.799  1.00  0.00     0.422 P 
HETATM   20  O4  UNL     1      14.841  50.657 -60.659  1.00  0.00    -0.617 OA
HETATM   21  O5  UNL     1      17.436  50.149 -60.648  1.00  0.00    -0.617 OA
HETATM   22  O6  UNL     1      16.366  52.377 -59.478  1.00  0.00    -0.617 OA
ENDBRANCH  18  19
ENDBRANCH  17  18
ENDBRANCH   4  17
TORSDOF 5
ENDMDL
