MODEL 2
REMARK VINA RESULT: -6.797416662      2.260      3.587
REMARK  5 active torsions:
REMARK  status: ('A' for Active; 'I' for Inactive)
REMARK    1  A    between atoms: N1_5  and  C4_6 
REMARK    2  A    between atoms: C6_8  and  O2_9 
REMARK    3  A    between atoms: C7_11  and  C8_12 
REMARK    4  A    between atoms: C8_12  and  O3_13 
REMARK    5  A    between atoms: O3_13  and  P1_14 
ROOT
HETATM    1  C4  UNL     1      12.112  50.729 -49.353  1.00  0.00     0.235 C 
HETATM    2  C5  UNL     1      12.670  52.044 -49.823  1.00  0.00     0.088 C 
HETATM    3  C6  UNL     1      12.559  51.890 -51.343  1.00  0.00     0.153 C 
HETATM    4  C7  UNL     1      12.545  50.399 -51.496  1.00  0.00     0.177 C 
HETATM    5  O7  UNL     1      12.645  49.831 -50.252  1.00  0.00    -0.356 OA
ENDROOT
BRANCH   1   6
HETATM    6  N1  UNL     1      12.461  50.435 -47.990  1.00  0.00    -0.282 N 
HETATM    7  C3  UNL     1      13.660  50.698 -47.440  1.00  0.00     0.104 A 
HETATM    8  C2  UNL     1      13.973  50.407 -46.130  1.00  0.00     0.092 A 
HETATM    9  C1  UNL     1      13.002  49.817 -45.350  1.00  0.00     0.250 A 
HETATM   10  O1  UNL     1      13.288  49.555 -44.165  1.00  0.00    -0.268 OA
HETATM   11  N2  UNL     1      11.797  49.555 -45.911  1.00  0.00    -0.275 N 
HETATM   12  C9  UNL     1      11.539  49.860 -47.206  1.00  0.00     0.331 A 
ATOM     13  H2  UNL     1      11.068  49.119 -45.346  1.00  0.00     0.173 HD
HETATM   14  O8  UNL     1      10.396  49.581 -47.634  1.00  0.00    -0.246 OA
ENDBRANCH   1   6
BRANCH   3  15
HETATM   15  O2  UNL     1      11.402  52.499 -51.816  1.00  0.00    -0.393 OA
ATOM     16  H2  UNL     1      11.104  53.171 -51.215  1.00  0.00     0.210 HD
ENDBRANCH   3  15
BRANCH   4  17
HETATM   17  C8  UNL     1      13.674  50.001 -52.415  1.00  0.00     0.217 C 
BRANCH  17  18
HETATM   18  O3  UNL     1      13.200  49.111 -53.405  1.00  0.00    -0.280 OA
BRANCH  18  19
HETATM   19  P1  UNL     1      14.188  47.766 -53.540  1.00  0.00     0.422 P 
HETATM   20  O4  UNL     1      13.395  46.508 -53.232  1.00  0.00    -0.617 OA
HETATM   21  O5  UNL     1      15.553  47.873 -52.547  1.00  0.00    -0.617 OA
HETATM   22  O6  UNL     1      14.742  47.606 -55.145  1.00  0.00    -0.617 OA
ENDBRANCH  18  19
ENDBRANCH  17  18
ENDBRANCH   4  17
TORSDOF 5
ENDMDL
