MODEL 1
REMARK VINA RESULT: -6.881749449      0.000      0.000
REMARK  5 active torsions:
REMARK  status: ('A' for Active; 'I' for Inactive)
REMARK    1  A    between atoms: N1_5  and  C4_6 
REMARK    2  A    between atoms: C6_8  and  O2_9 
REMARK    3  A    between atoms: C7_11  and  C8_12 
REMARK    4  A    between atoms: C8_12  and  O3_13 
REMARK    5  A    between atoms: O3_13  and  P1_14 
ROOT
HETATM    1  C4  UNL     1      12.999  50.391 -48.179  1.00  0.00     0.235 C 
HETATM    2  C5  UNL     1      13.676  49.268 -47.442  1.00  0.00     0.088 C 
HETATM    3  C6  UNL     1      14.976  49.127 -48.239  1.00  0.00     0.153 C 
HETATM    4  C7  UNL     1      14.583  49.710 -49.564  1.00  0.00     0.177 C 
HETATM    5  O7  UNL     1      13.269  50.097 -49.498  1.00  0.00    -0.356 OA
ENDROOT
BRANCH   1   6
HETATM    6  N1  UNL     1      11.592  50.469 -47.897  1.00  0.00    -0.282 N 
HETATM    7  C3  UNL     1      10.876  49.483 -47.328  1.00  0.00     0.104 A 
HETATM    8  C2  UNL     1       9.526  49.580 -47.066  1.00  0.00     0.092 A 
HETATM    9  C1  UNL     1       8.885  50.750 -47.408  1.00  0.00     0.250 A 
HETATM   10  O1  UNL     1       7.665  50.835 -47.170  1.00  0.00    -0.268 OA
HETATM   11  N2  UNL     1       9.613  51.739 -47.980  1.00  0.00    -0.275 N 
HETATM   12  C9  UNL     1      10.940  51.595 -48.217  1.00  0.00     0.331 A 
ATOM     13  H2  UNL     1       9.153  52.613 -48.238  1.00  0.00     0.173 HD
HETATM   14  O8  UNL     1      11.527  52.564 -48.749  1.00  0.00    -0.246 OA
ENDBRANCH   1   6
BRANCH   3  15
HETATM   15  O2  UNL     1      16.011  49.820 -47.622  1.00  0.00    -0.393 OA
ATOM     16  H2  UNL     1      16.677  49.221 -47.306  1.00  0.00     0.210 HD
ENDBRANCH   3  15
BRANCH   4  17
HETATM   17  C8  UNL     1      14.838  48.678 -50.635  1.00  0.00     0.217 C 
BRANCH  17  18
HETATM   18  O3  UNL     1      13.632  48.020 -50.968  1.00  0.00    -0.280 OA
BRANCH  18  19
HETATM   19  P1  UNL     1      13.251  48.224 -52.585  1.00  0.00     0.422 P 
HETATM   20  O4  UNL     1      11.850  48.795 -52.719  1.00  0.00    -0.617 OA
HETATM   21  O5  UNL     1      13.400  46.786 -53.463  1.00  0.00    -0.617 OA
HETATM   22  O6  UNL     1      14.305  49.361 -53.295  1.00  0.00    -0.617 OA
ENDBRANCH  18  19
ENDBRANCH  17  18
ENDBRANCH   4  17
TORSDOF 5
ENDMDL
