MODEL 13
REMARK VINA RESULT: -6.435400606      6.278      8.502
REMARK  5 active torsions:
REMARK  status: ('A' for Active; 'I' for Inactive)
REMARK    1  A    between atoms: N1_5  and  C4_6 
REMARK    2  A    between atoms: C6_8  and  O2_9 
REMARK    3  A    between atoms: C7_11  and  C8_12 
REMARK    4  A    between atoms: C8_12  and  O3_13 
REMARK    5  A    between atoms: O3_13  and  P1_14 
ROOT
HETATM    1  C4  UNL     1      16.431  49.463 -55.578  1.00  0.00     0.235 C 
HETATM    2  C5  UNL     1      17.272  48.235 -55.792  1.00  0.00     0.088 C 
HETATM    3  C6  UNL     1      18.055  48.623 -57.050  1.00  0.00     0.153 C 
HETATM    4  C7  UNL     1      17.156  49.657 -57.658  1.00  0.00     0.177 C 
HETATM    5  O7  UNL     1      16.050  49.800 -56.859  1.00  0.00    -0.356 OA
ENDROOT
BRANCH   1   6
HETATM    6  N1  UNL     1      15.315  49.225 -54.704  1.00  0.00    -0.282 N 
HETATM    7  C3  UNL     1      15.124  49.852 -53.529  1.00  0.00     0.104 A 
HETATM    8  C2  UNL     1      14.046  49.607 -52.706  1.00  0.00     0.092 A 
HETATM    9  C1  UNL     1      13.120  48.672 -53.115  1.00  0.00     0.250 A 
HETATM   10  O1  UNL     1      12.146  48.454 -52.369  1.00  0.00    -0.268 OA
HETATM   11  N2  UNL     1      13.319  48.046 -54.300  1.00  0.00    -0.275 N 
HETATM   12  C9  UNL     1      14.398  48.321 -55.074  1.00  0.00     0.331 A 
ATOM     13  H2  UNL     1      12.642  47.351 -54.617  1.00  0.00     0.173 HD
HETATM   14  O8  UNL     1      14.494  47.691 -56.151  1.00  0.00    -0.246 OA
ENDBRANCH   1   6
BRANCH   3  15
HETATM   15  O2  UNL     1      19.310  49.118 -56.716  1.00  0.00    -0.393 OA
ATOM     16  H2  UNL     1      19.457  49.062 -55.780  1.00  0.00     0.210 HD
ENDBRANCH   3  15
BRANCH   4  17
HETATM   17  C8  UNL     1      16.812  49.226 -59.062  1.00  0.00     0.217 C 
BRANCH  17  18
HETATM   18  O3  UNL     1      17.179  50.236 -59.981  1.00  0.00    -0.280 OA
BRANCH  18  19
HETATM   19  P1  UNL     1      15.834  51.014 -60.603  1.00  0.00     0.422 P 
HETATM   20  O4  UNL     1      15.132  51.794 -59.505  1.00  0.00    -0.617 OA
HETATM   21  O5  UNL     1      14.765  49.941 -61.355  1.00  0.00    -0.617 OA
HETATM   22  O6  UNL     1      16.310  52.157 -61.777  1.00  0.00    -0.617 OA
ENDBRANCH  18  19
ENDBRANCH  17  18
ENDBRANCH   4  17
TORSDOF 5
ENDMDL
