MODEL 2
REMARK VINA RESULT: -7.040013659      0.993      2.772
REMARK  6 active torsions:
REMARK  status: ('A' for Active; 'I' for Inactive)
REMARK    1  A    between atoms: O1_1  and  C1_3 
REMARK    2  A    between atoms: C1_3  and  C2_4 
REMARK    3  A    between atoms: C3_6  and  O3_7 
REMARK    4  A    between atoms: C4_9  and  O4_10 
REMARK    5  A    between atoms: C5_12  and  O5_13 
REMARK    6  A    between atoms: C6_15  and  O6_16 
ROOT
HETATM    1  C2  UNL     1      38.373  31.152  48.966  1.00  0.00     0.179 C 
HETATM    2  O2  UNL     1      37.338  30.682  48.173  1.00  0.00    -0.349 OA
HETATM    3  C3  UNL     1      36.114  30.685  48.820  1.00  0.00     0.288 C 
HETATM    4  C4  UNL     1      36.223  29.724  49.992  1.00  0.00     0.204 C 
HETATM    5  C5  UNL     1      37.205  30.359  50.954  1.00  0.00     0.183 C 
HETATM    6  C6  UNL     1      38.545  30.350  50.227  1.00  0.00     0.180 C 
ENDROOT
BRANCH   1   7
HETATM    7  C1  UNL     1      39.647  31.026  48.120  1.00  0.00     0.198 C 
BRANCH   7   8
HETATM    8  O1  UNL     1      39.646  32.007  47.115  1.00  0.00    -0.398 OA
ATOM      9  H1  UNL     1      40.305  32.663  47.309  1.00  0.00     0.209 HD
ENDBRANCH   7   8
ENDBRANCH   1   7
BRANCH   6  10
HETATM   10  O6  UNL     1      39.475  30.976  51.043  1.00  0.00    -0.390 OA
ATOM     11  H6  UNL     1      39.516  30.521  51.876  1.00  0.00     0.210 HD
ENDBRANCH   6  10
BRANCH   3  12
HETATM   12  O3  UNL     1      35.136  30.304  47.917  1.00  0.00    -0.369 OA
ATOM     13  H3  UNL     1      34.945  29.383  48.046  1.00  0.00     0.212 HD
ENDBRANCH   3  12
BRANCH   5  14
HETATM   14  O5  UNL     1      37.269  29.688  52.160  1.00  0.00    -0.390 OA
ATOM     15  H5  UNL     1      37.892  30.080  52.761  1.00  0.00     0.210 HD
ENDBRANCH   5  14
BRANCH   4  16
HETATM   16  O4  UNL     1      34.994  29.480  50.582  1.00  0.00    -0.388 OA
ATOM     17  H4  UNL     1      34.410  29.001  50.007  1.00  0.00     0.210 HD
ENDBRANCH   4  16
TORSDOF 6
ENDMDL
