MODEL 9
REMARK VINA RESULT: -7.066088102      2.602      5.077
REMARK  10 active torsions:
REMARK  status: ('A' for Active; 'I' for Inactive)
REMARK       I    between atoms: C1_2  and  N1_3 
REMARK    1  A    between atoms: C1_2  and  C2_7 
REMARK    2  A    between atoms: N1_3  and  O2_5 
REMARK    3  A    between atoms: C2_7  and  O3_8 
REMARK    4  A    between atoms: C2_7  and  C3_10 
REMARK    5  A    between atoms: C3_10  and  O4_11 
REMARK    6  A    between atoms: C3_10  and  C4_13 
REMARK    7  A    between atoms: C4_13  and  O5_14 
REMARK    8  A    between atoms: C4_13  and  C5_16 
REMARK    9  A    between atoms: C5_16  and  O6_17 
REMARK   10  A    between atoms: O6_17  and  P1_18 
ROOT
HETATM    1  C3  UNL     1       3.624 -13.381   4.416  1.00  0.00     0.187 C 
ENDROOT
BRANCH   1   2
HETATM    2  C2  UNL     1       4.198 -11.978   4.520  1.00  0.00     0.243 C 
BRANCH   2   3
HETATM    3  C1  UNL     1       3.099 -11.025   4.215  1.00  0.00     0.272 C 
HETATM    4  O1  UNL     1       2.133 -11.364   3.510  1.00  0.00    -0.268 OA
HETATM    5  N1  UNL     1       3.123  -9.694   4.725  1.00  0.00    -0.235 N 
ATOM      6  H1  UNL     1       3.897  -9.376   5.308  1.00  0.00     0.197 HD
BRANCH   5   7
HETATM    7  O2  UNL     1       2.098  -8.856   4.423  1.00  0.00    -0.287 OA
ATOM      8  H2  UNL     1       1.344  -9.202   3.959  1.00  0.00     0.244 HD
ENDBRANCH   5   7
ENDBRANCH   2   3
BRANCH   2   9
HETATM    9  O3  UNL     1       4.607 -11.788   5.833  1.00  0.00    -0.383 OA
ATOM     10  H3  UNL     1       3.923 -12.095   6.417  1.00  0.00     0.210 HD
ENDBRANCH   2   9
ENDBRANCH   1   2
BRANCH   1  11
HETATM   11  O4  UNL     1       3.675 -13.929   5.696  1.00  0.00    -0.390 OA
ATOM     12  H4  UNL     1       4.545 -13.751   6.034  1.00  0.00     0.210 HD
ENDBRANCH   1  11
BRANCH   1  13
HETATM   13  C4  UNL     1       4.521 -14.156   3.481  1.00  0.00     0.174 C 
BRANCH  13  14
HETATM   14  O5  UNL     1       5.861 -13.969   3.722  1.00  0.00    -0.391 OA
ATOM     15  H5  UNL     1       6.079 -13.086   3.996  1.00  0.00     0.210 HD
ENDBRANCH  13  14
BRANCH  13  16
HETATM   16  C5  UNL     1       4.158 -13.918   2.030  1.00  0.00     0.217 C 
BRANCH  16  17
HETATM   17  O6  UNL     1       5.322 -13.530   1.380  1.00  0.00    -0.280 OA
BRANCH  17  18
HETATM   18  P1  UNL     1       5.124 -12.228   0.363  1.00  0.00     0.422 P 
HETATM   19  O7  UNL     1       4.572 -11.008   1.067  1.00  0.00    -0.617 OA
HETATM   20  O8  UNL     1       4.198 -12.595  -1.005  1.00  0.00    -0.617 OA
HETATM   21  O9  UNL     1       6.680 -11.805  -0.213  1.00  0.00    -0.617 OA
ENDBRANCH  17  18
ENDBRANCH  16  17
ENDBRANCH  13  16
ENDBRANCH   1  13
TORSDOF 10
ENDMDL
