MODEL 5
REMARK VINA RESULT: -7.158811067      1.128      1.311
REMARK  10 active torsions:
REMARK  status: ('A' for Active; 'I' for Inactive)
REMARK       I    between atoms: C1_2  and  N1_3 
REMARK    1  A    between atoms: C1_2  and  C2_7 
REMARK    2  A    between atoms: N1_3  and  O2_5 
REMARK    3  A    between atoms: C2_7  and  O3_8 
REMARK    4  A    between atoms: C2_7  and  C3_10 
REMARK    5  A    between atoms: C3_10  and  O4_11 
REMARK    6  A    between atoms: C3_10  and  C4_13 
REMARK    7  A    between atoms: C4_13  and  O5_14 
REMARK    8  A    between atoms: C4_13  and  C5_16 
REMARK    9  A    between atoms: C5_16  and  O6_17 
REMARK   10  A    between atoms: O6_17  and  P1_18 
ROOT
HETATM    1  C3  UNL     1       3.786 -13.030   1.834  1.00  0.00     0.187 C 
ENDROOT
BRANCH   1   2
HETATM    2  C2  UNL     1       3.905 -12.189   0.575  1.00  0.00     0.243 C 
BRANCH   2   3
HETATM    3  C1  UNL     1       5.334 -12.200   0.166  1.00  0.00     0.272 C 
HETATM    4  O1  UNL     1       5.877 -13.243  -0.237  1.00  0.00    -0.268 OA
HETATM    5  N1  UNL     1       6.120 -11.012   0.225  1.00  0.00    -0.235 N 
ATOM      6  H1  UNL     1       5.711 -10.135   0.549  1.00  0.00     0.197 HD
BRANCH   5   7
HETATM    7  O2  UNL     1       7.421 -11.067  -0.159  1.00  0.00    -0.287 OA
ATOM      8  H2  UNL     1       8.021 -10.399   0.154  1.00  0.00     0.244 HD
ENDBRANCH   5   7
ENDBRANCH   2   3
BRANCH   2   9
HETATM    9  O3  UNL     1       3.149 -12.805  -0.413  1.00  0.00    -0.383 OA
ATOM     10  H3  UNL     1       2.295 -12.389  -0.454  1.00  0.00     0.210 HD
ENDBRANCH   2   9
ENDBRANCH   1   2
BRANCH   1  11
HETATM   11  O4  UNL     1       3.461 -14.320   1.424  1.00  0.00    -0.390 OA
ATOM     12  H4  UNL     1       3.684 -14.899   2.143  1.00  0.00     0.210 HD
ENDBRANCH   1  11
BRANCH   1  13
HETATM   13  C4  UNL     1       2.661 -12.444   2.652  1.00  0.00     0.174 C 
BRANCH  13  14
HETATM   14  O5  UNL     1       2.281 -11.187   2.245  1.00  0.00    -0.391 OA
ATOM     15  H5  UNL     1       3.012 -10.614   2.048  1.00  0.00     0.210 HD
ENDBRANCH  13  14
BRANCH  13  16
HETATM   16  C5  UNL     1       2.955 -12.504   4.136  1.00  0.00     0.217 C 
BRANCH  16  17
HETATM   17  O6  UNL     1       3.190 -13.836   4.449  1.00  0.00    -0.280 OA
BRANCH  17  18
HETATM   18  P1  UNL     1       4.504 -14.076   5.440  1.00  0.00     0.422 P 
HETATM   19  O7  UNL     1       4.803 -15.539   5.681  1.00  0.00    -0.617 OA
HETATM   20  O8  UNL     1       4.381 -13.245   6.910  1.00  0.00    -0.617 OA
HETATM   21  O9  UNL     1       5.864 -13.418   4.633  1.00  0.00    -0.617 OA
ENDBRANCH  17  18
ENDBRANCH  16  17
ENDBRANCH  13  16
ENDBRANCH   1  13
TORSDOF 10
ENDMDL
