MODEL 12
REMARK VINA RESULT: -7.002203243      2.621      5.145
REMARK  10 active torsions:
REMARK  status: ('A' for Active; 'I' for Inactive)
REMARK       I    between atoms: C1_2  and  N1_3 
REMARK    1  A    between atoms: C1_2  and  C2_7 
REMARK    2  A    between atoms: N1_3  and  O2_5 
REMARK    3  A    between atoms: C2_7  and  O3_8 
REMARK    4  A    between atoms: C2_7  and  C3_10 
REMARK    5  A    between atoms: C3_10  and  O4_11 
REMARK    6  A    between atoms: C3_10  and  C4_13 
REMARK    7  A    between atoms: C4_13  and  O5_14 
REMARK    8  A    between atoms: C4_13  and  C5_16 
REMARK    9  A    between atoms: C5_16  and  O6_17 
REMARK   10  A    between atoms: O6_17  and  P1_18 
ROOT
HETATM    1  C3  UNL     1       3.625 -13.266   4.413  1.00  0.00     0.187 C 
ENDROOT
BRANCH   1   2
HETATM    2  C2  UNL     1       4.155 -11.855   4.596  1.00  0.00     0.243 C 
BRANCH   2   3
HETATM    3  C1  UNL     1       3.053 -10.918   4.253  1.00  0.00     0.272 C 
HETATM    4  O1  UNL     1       2.095 -11.285   3.551  1.00  0.00    -0.268 OA
HETATM    5  N1  UNL     1       3.065  -9.572   4.721  1.00  0.00    -0.235 N 
ATOM      6  H1  UNL     1       3.833  -9.231   5.300  1.00  0.00     0.197 HD
BRANCH   5   7
HETATM    7  O2  UNL     1       2.038  -8.750   4.384  1.00  0.00    -0.287 OA
ATOM      8  H2  UNL     1       1.954  -8.466   3.481  1.00  0.00     0.244 HD
ENDBRANCH   5   7
ENDBRANCH   2   3
BRANCH   2   9
HETATM    9  O3  UNL     1       4.477 -11.699   5.938  1.00  0.00    -0.383 OA
ATOM     10  H3  UNL     1       5.357 -12.026   6.083  1.00  0.00     0.210 HD
ENDBRANCH   2   9
ENDBRANCH   1   2
BRANCH   1  11
HETATM   11  O4  UNL     1       3.629 -13.862   5.672  1.00  0.00    -0.390 OA
ATOM     12  H4  UNL     1       2.883 -13.509   6.142  1.00  0.00     0.210 HD
ENDBRANCH   1  11
BRANCH   1  13
HETATM   13  C4  UNL     1       4.586 -13.983   3.495  1.00  0.00     0.174 C 
BRANCH  13  14
HETATM   14  O5  UNL     1       5.908 -13.773   3.809  1.00  0.00    -0.391 OA
ATOM     15  H5  UNL     1       6.329 -14.528   4.203  1.00  0.00     0.210 HD
ENDBRANCH  13  14
BRANCH  13  16
HETATM   16  C5  UNL     1       4.289 -13.697   2.037  1.00  0.00     0.217 C 
BRANCH  16  17
HETATM   17  O6  UNL     1       5.495 -13.369   1.434  1.00  0.00    -0.280 OA
BRANCH  17  18
HETATM   18  P1  UNL     1       5.403 -12.066   0.403  1.00  0.00     0.422 P 
HETATM   19  O7  UNL     1       4.700 -12.391  -0.897  1.00  0.00    -0.617 OA
HETATM   20  O8  UNL     1       6.909 -11.356   0.104  1.00  0.00    -0.617 OA
HETATM   21  O9  UNL     1       4.460 -10.873   1.191  1.00  0.00    -0.617 OA
ENDBRANCH  17  18
ENDBRANCH  16  17
ENDBRANCH  13  16
ENDBRANCH   1  13
TORSDOF 10
ENDMDL
