MODEL 3
REMARK VINA RESULT: -7.208785127      0.991      1.281
REMARK  10 active torsions:
REMARK  status: ('A' for Active; 'I' for Inactive)
REMARK       I    between atoms: C1_2  and  N1_3 
REMARK    1  A    between atoms: C1_2  and  C2_7 
REMARK    2  A    between atoms: N1_3  and  O2_5 
REMARK    3  A    between atoms: C2_7  and  O3_8 
REMARK    4  A    between atoms: C2_7  and  C3_10 
REMARK    5  A    between atoms: C3_10  and  O4_11 
REMARK    6  A    between atoms: C3_10  and  C4_13 
REMARK    7  A    between atoms: C4_13  and  O5_14 
REMARK    8  A    between atoms: C4_13  and  C5_16 
REMARK    9  A    between atoms: C5_16  and  O6_17 
REMARK   10  A    between atoms: O6_17  and  P1_18 
ROOT
HETATM    1  C3  UNL     1       4.585 -13.317   1.726  1.00  0.00     0.187 C 
ENDROOT
BRANCH   1   2
HETATM    2  C2  UNL     1       4.176 -12.186   0.800  1.00  0.00     0.243 C 
BRANCH   2   3
HETATM    3  C1  UNL     1       5.356 -11.297   0.635  1.00  0.00     0.272 C 
HETATM    4  O1  UNL     1       5.401 -10.183   1.183  1.00  0.00    -0.268 OA
HETATM    5  N1  UNL     1       6.471 -11.702  -0.158  1.00  0.00    -0.235 N 
ATOM      6  H1  UNL     1       6.473 -12.609  -0.624  1.00  0.00     0.197 HD
BRANCH   5   7
HETATM    7  O2  UNL     1       7.528 -10.859  -0.281  1.00  0.00    -0.287 OA
ATOM      8  H2  UNL     1       8.090 -10.714   0.472  1.00  0.00     0.244 HD
ENDBRANCH   5   7
ENDBRANCH   2   3
BRANCH   2   9
HETATM    9  O3  UNL     1       3.859 -12.746  -0.431  1.00  0.00    -0.383 OA
ATOM     10  H3  UNL     1       3.184 -12.219  -0.844  1.00  0.00     0.210 HD
ENDBRANCH   2   9
ENDBRANCH   1   2
BRANCH   1  11
HETATM   11  O4  UNL     1       5.210 -14.277   0.934  1.00  0.00    -0.390 OA
ATOM     12  H4  UNL     1       4.661 -15.053   0.962  1.00  0.00     0.210 HD
ENDBRANCH   1  11
BRANCH   1  13
HETATM   13  C4  UNL     1       3.318 -13.879   2.324  1.00  0.00     0.174 C 
BRANCH  13  14
HETATM   14  O5  UNL     1       2.260 -13.002   2.294  1.00  0.00    -0.391 OA
ATOM     15  H5  UNL     1       1.536 -13.259   2.853  1.00  0.00     0.210 HD
ENDBRANCH  13  14
BRANCH  13  16
HETATM   16  C5  UNL     1       3.554 -14.450   3.706  1.00  0.00     0.217 C 
BRANCH  16  17
HETATM   17  O6  UNL     1       3.114 -13.499   4.618  1.00  0.00    -0.280 OA
BRANCH  17  18
HETATM   18  P1  UNL     1       4.303 -12.944   5.641  1.00  0.00     0.422 P 
HETATM   19  O7  UNL     1       4.250 -13.586   7.011  1.00  0.00    -0.617 OA
HETATM   20  O8  UNL     1       4.322 -11.257   5.775  1.00  0.00    -0.617 OA
HETATM   21  O9  UNL     1       5.805 -13.385   4.945  1.00  0.00    -0.617 OA
ENDBRANCH  17  18
ENDBRANCH  16  17
ENDBRANCH  13  16
ENDBRANCH   1  13
TORSDOF 10
ENDMDL
