MODEL 1
REMARK VINA RESULT: -7.359516053      0.000      0.000
REMARK  10 active torsions:
REMARK  status: ('A' for Active; 'I' for Inactive)
REMARK       I    between atoms: C1_2  and  N1_3 
REMARK    1  A    between atoms: C1_2  and  C2_7 
REMARK    2  A    between atoms: N1_3  and  O2_5 
REMARK    3  A    between atoms: C2_7  and  O3_8 
REMARK    4  A    between atoms: C2_7  and  C3_10 
REMARK    5  A    between atoms: C3_10  and  O4_11 
REMARK    6  A    between atoms: C3_10  and  C4_13 
REMARK    7  A    between atoms: C4_13  and  O5_14 
REMARK    8  A    between atoms: C4_13  and  C5_16 
REMARK    9  A    between atoms: C5_16  and  O6_17 
REMARK   10  A    between atoms: O6_17  and  P1_18 
ROOT
HETATM    1  C3  UNL     1       3.524 -13.546   1.155  1.00  0.00     0.187 C 
ENDROOT
BRANCH   1   2
HETATM    2  C2  UNL     1       4.101 -12.141   1.176  1.00  0.00     0.243 C 
BRANCH   2   3
HETATM    3  C1  UNL     1       5.377 -12.174   0.415  1.00  0.00     0.272 C 
HETATM    4  O1  UNL     1       5.777 -13.221  -0.122  1.00  0.00    -0.268 OA
HETATM    5  N1  UNL     1       6.178 -11.001   0.281  1.00  0.00    -0.235 N 
ATOM      6  H1  UNL     1       5.886 -10.122   0.706  1.00  0.00     0.197 HD
BRANCH   5   7
HETATM    7  O2  UNL     1       7.337 -11.076  -0.423  1.00  0.00    -0.287 OA
ATOM      8  H2  UNL     1       7.859 -10.289  -0.533  1.00  0.00     0.244 HD
ENDBRANCH   5   7
ENDBRANCH   2   3
BRANCH   2   9
HETATM    9  O3  UNL     1       3.205 -11.310   0.517  1.00  0.00    -0.383 OA
ATOM     10  H3  UNL     1       2.343 -11.420   0.901  1.00  0.00     0.210 HD
ENDBRANCH   2   9
ENDBRANCH   1   2
BRANCH   1  11
HETATM   11  O4  UNL     1       2.718 -13.631   0.023  1.00  0.00    -0.390 OA
ATOM     12  H4  UNL     1       2.232 -14.444   0.095  1.00  0.00     0.210 HD
ENDBRANCH   1  11
BRANCH   1  13
HETATM   13  C4  UNL     1       2.688 -13.698   2.403  1.00  0.00     0.174 C 
BRANCH  13  14
HETATM   14  O5  UNL     1       1.980 -12.567   2.733  1.00  0.00    -0.391 OA
ATOM     15  H5  UNL     1       1.765 -12.509   3.656  1.00  0.00     0.210 HD
ENDBRANCH  13  14
BRANCH  13  16
HETATM   16  C5  UNL     1       3.505 -14.226   3.565  1.00  0.00     0.217 C 
BRANCH  16  17
HETATM   17  O6  UNL     1       3.081 -13.548   4.699  1.00  0.00    -0.280 OA
BRANCH  17  18
HETATM   18  P1  UNL     1       4.322 -12.965   5.641  1.00  0.00     0.422 P 
HETATM   19  O7  UNL     1       4.356 -13.584   7.022  1.00  0.00    -0.617 OA
HETATM   20  O8  UNL     1       4.332 -11.276   5.747  1.00  0.00    -0.617 OA
HETATM   21  O9  UNL     1       5.784 -13.404   4.866  1.00  0.00    -0.617 OA
ENDBRANCH  17  18
ENDBRANCH  16  17
ENDBRANCH  13  16
ENDBRANCH   1  13
TORSDOF 10
ENDMDL
