MODEL 13
REMARK VINA RESULT: -6.982423037      1.369      1.873
REMARK  10 active torsions:
REMARK  status: ('A' for Active; 'I' for Inactive)
REMARK       I    between atoms: C1_2  and  N1_3 
REMARK    1  A    between atoms: C1_2  and  C2_7 
REMARK    2  A    between atoms: N1_3  and  O2_5 
REMARK    3  A    between atoms: C2_7  and  O3_8 
REMARK    4  A    between atoms: C2_7  and  C3_10 
REMARK    5  A    between atoms: C3_10  and  O4_11 
REMARK    6  A    between atoms: C3_10  and  C4_13 
REMARK    7  A    between atoms: C4_13  and  O5_14 
REMARK    8  A    between atoms: C4_13  and  C5_16 
REMARK    9  A    between atoms: C5_16  and  O6_17 
REMARK   10  A    between atoms: O6_17  and  P1_18 
ROOT
HETATM    1  C3  UNL     1       3.966 -12.362   1.858  1.00  0.00     0.187 C 
ENDROOT
BRANCH   1   2
HETATM    2  C2  UNL     1       3.886 -12.533   0.351  1.00  0.00     0.243 C 
BRANCH   2   3
HETATM    3  C1  UNL     1       5.099 -13.278  -0.076  1.00  0.00     0.272 C 
HETATM    4  O1  UNL     1       6.155 -12.681  -0.349  1.00  0.00    -0.268 OA
HETATM    5  N1  UNL     1       5.084 -14.699  -0.185  1.00  0.00    -0.235 N 
ATOM      6  H1  UNL     1       4.238 -15.227   0.030  1.00  0.00     0.197 HD
BRANCH   5   7
HETATM    7  O2  UNL     1       6.215 -15.340  -0.578  1.00  0.00    -0.287 OA
ATOM      8  H2  UNL     1       6.258 -15.699  -1.457  1.00  0.00     0.244 HD
ENDBRANCH   5   7
ENDBRANCH   2   3
BRANCH   2   9
HETATM    9  O3  UNL     1       2.764 -13.303   0.075  1.00  0.00    -0.383 OA
ATOM     10  H3  UNL     1       2.003 -12.736   0.034  1.00  0.00     0.210 HD
ENDBRANCH   2   9
ENDBRANCH   1   2
BRANCH   1  11
HETATM   11  O4  UNL     1       5.218 -12.830   2.248  1.00  0.00    -0.390 OA
ATOM     12  H4  UNL     1       5.730 -12.069   2.491  1.00  0.00     0.210 HD
ENDBRANCH   1  11
BRANCH   1  13
HETATM   13  C4  UNL     1       2.878 -13.221   2.458  1.00  0.00     0.174 C 
BRANCH  13  14
HETATM   14  O5  UNL     1       1.769 -12.510   2.851  1.00  0.00    -0.391 OA
ATOM     15  H5  UNL     1       1.946 -11.593   3.022  1.00  0.00     0.210 HD
ENDBRANCH  13  14
BRANCH  13  16
HETATM   16  C5  UNL     1       3.411 -14.113   3.559  1.00  0.00     0.217 C 
BRANCH  16  17
HETATM   17  O6  UNL     1       3.029 -13.540   4.765  1.00  0.00    -0.280 OA
BRANCH  17  18
HETATM   18  P1  UNL     1       4.302 -12.985   5.681  1.00  0.00     0.422 P 
HETATM   19  O7  UNL     1       4.342 -13.593   7.067  1.00  0.00    -0.617 OA
HETATM   20  O8  UNL     1       4.361 -11.296   5.772  1.00  0.00    -0.617 OA
HETATM   21  O9  UNL     1       5.738 -13.470   4.886  1.00  0.00    -0.617 OA
ENDBRANCH  17  18
ENDBRANCH  16  17
ENDBRANCH  13  16
ENDBRANCH   1  13
TORSDOF 10
ENDMDL
