MODEL 15
REMARK VINA RESULT: -6.948369551      2.632      5.007
REMARK  10 active torsions:
REMARK  status: ('A' for Active; 'I' for Inactive)
REMARK       I    between atoms: C1_2  and  N1_3 
REMARK    1  A    between atoms: C1_2  and  C2_7 
REMARK    2  A    between atoms: N1_3  and  O2_5 
REMARK    3  A    between atoms: C2_7  and  O3_8 
REMARK    4  A    between atoms: C2_7  and  C3_10 
REMARK    5  A    between atoms: C3_10  and  O4_11 
REMARK    6  A    between atoms: C3_10  and  C4_13 
REMARK    7  A    between atoms: C4_13  and  O5_14 
REMARK    8  A    between atoms: C4_13  and  C5_16 
REMARK    9  A    between atoms: C5_16  and  O6_17 
REMARK   10  A    between atoms: O6_17  and  P1_18 
ROOT
HETATM    1  C3  UNL     1       3.265 -11.515   1.414  1.00  0.00     0.187 C 
ENDROOT
BRANCH   1   2
HETATM    2  C2  UNL     1       3.260 -12.262   2.737  1.00  0.00     0.243 C 
BRANCH   2   3
HETATM    3  C1  UNL     1       3.047 -11.259   3.813  1.00  0.00     0.272 C 
HETATM    4  O1  UNL     1       3.669 -11.330   4.887  1.00  0.00    -0.268 OA
HETATM    5  N1  UNL     1       2.123 -10.187   3.640  1.00  0.00    -0.235 N 
ATOM      6  H1  UNL     1       1.593 -10.093   2.774  1.00  0.00     0.197 HD
BRANCH   5   7
HETATM    7  O2  UNL     1       1.960  -9.293   4.650  1.00  0.00    -0.287 OA
ATOM      8  H2  UNL     1       1.090  -9.153   5.003  1.00  0.00     0.244 HD
ENDBRANCH   5   7
ENDBRANCH   2   3
BRANCH   2   9
HETATM    9  O3  UNL     1       2.183 -13.139   2.719  1.00  0.00    -0.383 OA
ATOM     10  H3  UNL     1       2.506 -14.021   2.577  1.00  0.00     0.210 HD
ENDBRANCH   2   9
ENDBRANCH   1   2
BRANCH   1  11
HETATM   11  O4  UNL     1       2.440 -12.229   0.548  1.00  0.00    -0.390 OA
ATOM     12  H4  UNL     1       2.890 -13.042   0.351  1.00  0.00     0.210 HD
ENDBRANCH   1  11
BRANCH   1  13
HETATM   13  C4  UNL     1       4.687 -11.526   0.907  1.00  0.00     0.174 C 
BRANCH  13  14
HETATM   14  O5  UNL     1       5.252 -10.275   0.828  1.00  0.00    -0.391 OA
ATOM     15  H5  UNL     1       6.125 -10.275   0.453  1.00  0.00     0.210 HD
ENDBRANCH  13  14
BRANCH  13  16
HETATM   16  C5  UNL     1       4.814 -12.299  -0.389  1.00  0.00     0.217 C 
BRANCH  16  17
HETATM   17  O6  UNL     1       5.825 -13.233  -0.206  1.00  0.00    -0.280 OA
BRANCH  17  18
HETATM   18  P1  UNL     1       5.280 -14.739   0.241  1.00  0.00     0.422 P 
HETATM   19  O7  UNL     1       5.699 -15.127   1.642  1.00  0.00    -0.617 OA
HETATM   20  O8  UNL     1       5.707 -15.948  -0.863  1.00  0.00    -0.617 OA
HETATM   21  O9  UNL     1       3.569 -14.671   0.237  1.00  0.00    -0.617 OA
ENDBRANCH  17  18
ENDBRANCH  16  17
ENDBRANCH  13  16
ENDBRANCH   1  13
TORSDOF 10
ENDMDL
