MODEL 2
REMARK VINA RESULT: -7.304504160      0.779      1.181
REMARK  10 active torsions:
REMARK  status: ('A' for Active; 'I' for Inactive)
REMARK       I    between atoms: C1_2  and  N1_3 
REMARK    1  A    between atoms: C1_2  and  C2_7 
REMARK    2  A    between atoms: N1_3  and  O2_5 
REMARK    3  A    between atoms: C2_7  and  O3_8 
REMARK    4  A    between atoms: C2_7  and  C3_10 
REMARK    5  A    between atoms: C3_10  and  O4_11 
REMARK    6  A    between atoms: C3_10  and  C4_13 
REMARK    7  A    between atoms: C4_13  and  O5_14 
REMARK    8  A    between atoms: C4_13  and  C5_16 
REMARK    9  A    between atoms: C5_16  and  O6_17 
REMARK   10  A    between atoms: O6_17  and  P1_18 
ROOT
HETATM    1  C3  UNL     1       3.979 -12.387   1.973  1.00  0.00     0.187 C 
ENDROOT
BRANCH   1   2
HETATM    2  C2  UNL     1       3.957 -12.464   0.457  1.00  0.00     0.243 C 
BRANCH   2   3
HETATM    3  C1  UNL     1       5.369 -12.444  -0.009  1.00  0.00     0.272 C 
HETATM    4  O1  UNL     1       5.914 -13.472  -0.447  1.00  0.00    -0.268 OA
HETATM    5  N1  UNL     1       6.135 -11.243   0.034  1.00  0.00    -0.235 N 
ATOM      6  H1  UNL     1       5.725 -10.378   0.386  1.00  0.00     0.197 HD
BRANCH   5   7
HETATM    7  O2  UNL     1       7.421 -11.269  -0.402  1.00  0.00    -0.287 OA
ATOM      8  H2  UNL     1       7.616 -10.957  -1.278  1.00  0.00     0.244 HD
ENDBRANCH   5   7
ENDBRANCH   2   3
BRANCH   2   9
HETATM    9  O3  UNL     1       3.385 -13.680   0.107  1.00  0.00    -0.383 OA
ATOM     10  H3  UNL     1       2.548 -13.765   0.549  1.00  0.00     0.210 HD
ENDBRANCH   2   9
ENDBRANCH   1   2
BRANCH   1  11
HETATM   11  O4  UNL     1       5.251 -12.785   2.377  1.00  0.00    -0.390 OA
ATOM     12  H4  UNL     1       5.162 -13.132   3.256  1.00  0.00     0.210 HD
ENDBRANCH   1  11
BRANCH   1  13
HETATM   13  C4  UNL     1       2.943 -13.361   2.480  1.00  0.00     0.174 C 
BRANCH  13  14
HETATM   14  O5  UNL     1       1.734 -12.777   2.774  1.00  0.00    -0.391 OA
ATOM     15  H5  UNL     1       1.098 -13.381   3.139  1.00  0.00     0.210 HD
ENDBRANCH  13  14
BRANCH  13  16
HETATM   16  C5  UNL     1       3.472 -14.198   3.626  1.00  0.00     0.217 C 
BRANCH  16  17
HETATM   17  O6  UNL     1       3.072 -13.575   4.801  1.00  0.00    -0.280 OA
BRANCH  17  18
HETATM   18  P1  UNL     1       4.332 -13.003   5.725  1.00  0.00     0.422 P 
HETATM   19  O7  UNL     1       4.368 -13.607   7.112  1.00  0.00    -0.617 OA
HETATM   20  O8  UNL     1       4.372 -11.313   5.811  1.00  0.00    -0.617 OA
HETATM   21  O9  UNL     1       5.779 -13.476   4.942  1.00  0.00    -0.617 OA
ENDBRANCH  17  18
ENDBRANCH  16  17
ENDBRANCH  13  16
ENDBRANCH   1  13
TORSDOF 10
ENDMDL
