MODEL 5
REMARK VINA RESULT: -6.265251883      7.747      9.739
REMARK  14 active torsions:
REMARK  status: ('A' for Active; 'I' for Inactive)
REMARK    1  A    between atoms: N1_2  and  C1_4 
REMARK    2  A    between atoms: C4_7  and  O3_8 
REMARK    3  A    between atoms: O3_8  and  C5_9 
REMARK    4  A    between atoms: C6_11  and  C7_12 
REMARK    5  A    between atoms: C7_12  and  O5_13 
REMARK    6  A    between atoms: C8_15  and  O6_16 
REMARK    7  A    between atoms: O6_16  and  C9_17 
REMARK    8  A    between atoms: C10_19  and  C11_20 
REMARK    9  A    between atoms: C11_20  and  O8_21 
REMARK   10  A    between atoms: C12_23  and  O9_24 
REMARK   11  A    between atoms: C13_26  and  O10_27 
REMARK   12  A    between atoms: C14_29  and  O11_30 
REMARK   13  A    between atoms: C15_32  and  O12_33 
REMARK   14  A    between atoms: C16_35  and  O13_36 
ROOT
HETATM    1  C5  UNL     1      33.286  43.630   2.983  1.00  0.00     0.298 C 
HETATM    2  O4  UNL     1      33.877  42.632   3.759  1.00  0.00    -0.348 OA
HETATM    3  C6  UNL     1      34.556  43.099   4.856  1.00  0.00     0.180 C 
HETATM    4  C8  UNL     1      33.840  44.191   5.611  1.00  0.00     0.187 C 
HETATM    5  C15 UNL     1      33.709  45.379   4.667  1.00  0.00     0.183 C 
HETATM    6  C16 UNL     1      33.933  44.979   3.238  1.00  0.00     0.205 C 
ENDROOT
BRANCH   4   7
HETATM    7  O6  UNL     1      34.643  44.585   6.681  1.00  0.00    -0.348 OA
BRANCH   7   8
HETATM    8  C9  UNL     1      33.924  44.880   7.821  1.00  0.00     0.292 C 
HETATM    9  O7  UNL     1      33.972  43.836   8.732  1.00  0.00    -0.348 OA
HETATM   10  C10 UNL     1      35.219  43.413   9.069  1.00  0.00     0.179 C 
HETATM   11  C12 UNL     1      36.234  44.450   9.342  1.00  0.00     0.180 C 
HETATM   12  C13 UNL     1      35.997  45.777   8.694  1.00  0.00     0.183 C 
HETATM   13  C14 UNL     1      34.539  46.079   8.558  1.00  0.00     0.204 C 
BRANCH  10  14
HETATM   14  C11 UNL     1      35.084  42.553  10.334  1.00  0.00     0.198 C 
BRANCH  14  15
HETATM   15  O8  UNL     1      36.206  42.678  11.132  1.00  0.00    -0.398 OA
ATOM     16  H8  UNL     1      36.291  41.931  11.713  1.00  0.00     0.209 HD
ENDBRANCH  14  15
ENDBRANCH  10  14
BRANCH  11  17
HETATM   17  O9  UNL     1      37.477  43.978   8.861  1.00  0.00    -0.390 OA
ATOM     18  H9  UNL     1      38.145  44.603   9.118  1.00  0.00     0.210 HD
ENDBRANCH  11  17
BRANCH  12  19
HETATM   19  O10 UNL     1      36.618  46.784   9.434  1.00  0.00    -0.390 OA
ATOM     20  H10 UNL     1      36.127  47.593   9.355  1.00  0.00     0.210 HD
ENDBRANCH  12  19
BRANCH  13  21
HETATM   21  O11 UNL     1      34.301  47.263   7.912  1.00  0.00    -0.388 OA
ATOM     22  H11 UNL     1      34.030  47.951   8.508  1.00  0.00     0.210 HD
ENDBRANCH  13  21
ENDBRANCH   7   8
ENDBRANCH   4   7
BRANCH   3  23
HETATM   23  C7  UNL     1      34.842  41.901   5.749  1.00  0.00     0.198 C 
BRANCH  23  24
HETATM   24  O5  UNL     1      33.664  41.694   6.497  1.00  0.00    -0.398 OA
ATOM     25  H5  UNL     1      33.575  40.753   6.579  1.00  0.00     0.209 HD
ENDBRANCH  23  24
ENDBRANCH   3  23
BRANCH   5  26
HETATM   26  O12 UNL     1      32.456  45.996   4.827  1.00  0.00    -0.390 OA
ATOM     27  H12 UNL     1      31.949  45.929   4.027  1.00  0.00     0.210 HD
ENDBRANCH   5  26
BRANCH   6  28
HETATM   28  O13 UNL     1      35.259  45.023   2.845  1.00  0.00    -0.388 OA
ATOM     29  H13 UNL     1      35.638  45.891   2.920  1.00  0.00     0.210 HD
ENDBRANCH   6  28
BRANCH   1  30
HETATM   30  O3  UNL     1      33.415  43.273   1.659  1.00  0.00    -0.318 OA
BRANCH  30  31
HETATM   31  C4  UNL     1      32.741  43.747   0.556  1.00  0.00     0.072 A 
HETATM   32  C3  UNL     1      31.349  43.730   0.566  1.00  0.00     0.039 A 
HETATM   33  C2  UNL     1      30.673  44.201  -0.531  1.00  0.00     0.039 A 
HETATM   34  C1  UNL     1      31.308  44.695  -1.652  1.00  0.00     0.103 A 
HETATM   35  C18 UNL     1      32.685  44.710  -1.661  1.00  0.00     0.039 A 
HETATM   36  C17 UNL     1      33.389  44.233  -0.548  1.00  0.00     0.039 A 
BRANCH  34  37
HETATM   37  N1  UNL     1      30.578  45.168  -2.756  1.00  0.00    -0.116 N 
HETATM   38  O1  UNL     1      29.351  44.978  -2.836  1.00  0.00    -0.532 OA
HETATM   39  O2  UNL     1      31.183  45.851  -3.780  1.00  0.00    -0.532 OA
ENDBRANCH  34  37
ENDBRANCH  30  31
ENDBRANCH   1  30
TORSDOF 14
ENDMDL
