MODEL 4
REMARK VINA RESULT: -6.360575527      8.302     10.895
REMARK  14 active torsions:
REMARK  status: ('A' for Active; 'I' for Inactive)
REMARK    1  A    between atoms: N1_2  and  C1_4 
REMARK    2  A    between atoms: C4_7  and  O3_8 
REMARK    3  A    between atoms: O3_8  and  C5_9 
REMARK    4  A    between atoms: C6_11  and  C7_12 
REMARK    5  A    between atoms: C7_12  and  O5_13 
REMARK    6  A    between atoms: C8_15  and  O6_16 
REMARK    7  A    between atoms: O6_16  and  C9_17 
REMARK    8  A    between atoms: C10_19  and  C11_20 
REMARK    9  A    between atoms: C11_20  and  O8_21 
REMARK   10  A    between atoms: C12_23  and  O9_24 
REMARK   11  A    between atoms: C13_26  and  O10_27 
REMARK   12  A    between atoms: C14_29  and  O11_30 
REMARK   13  A    between atoms: C15_32  and  O12_33 
REMARK   14  A    between atoms: C16_35  and  O13_36 
ROOT
HETATM    1  C5  UNL     1      32.522  43.711   3.083  1.00  0.00     0.298 C 
HETATM    2  O4  UNL     1      31.578  43.036   3.859  1.00  0.00    -0.348 OA
HETATM    3  C6  UNL     1      32.019  42.696   5.113  1.00  0.00     0.180 C 
HETATM    4  C8  UNL     1      32.800  43.779   5.812  1.00  0.00     0.187 C 
HETATM    5  C15 UNL     1      34.055  44.033   4.986  1.00  0.00     0.183 C 
HETATM    6  C16 UNL     1      33.928  43.472   3.600  1.00  0.00     0.205 C 
ENDROOT
BRANCH   4   7
HETATM    7  O6  UNL     1      33.203  43.299   7.058  1.00  0.00    -0.348 OA
BRANCH   7   8
HETATM    8  C9  UNL     1      34.455  42.720   7.039  1.00  0.00     0.292 C 
HETATM    9  O7  UNL     1      35.388  43.513   7.689  1.00  0.00    -0.348 OA
HETATM   10  C10 UNL     1      35.064  43.873   8.959  1.00  0.00     0.179 C 
HETATM   11  C12 UNL     1      34.503  42.825   9.836  1.00  0.00     0.180 C 
HETATM   12  C13 UNL     1      33.825  41.689   9.139  1.00  0.00     0.183 C 
HETATM   13  C14 UNL     1      34.453  41.393   7.814  1.00  0.00     0.204 C 
BRANCH  10  14
HETATM   14  C11 UNL     1      36.344  44.398   9.625  1.00  0.00     0.198 C 
BRANCH  14  15
HETATM   15  O8  UNL     1      37.461  43.777   9.095  1.00  0.00    -0.398 OA
ATOM     16  H8  UNL     1      38.192  44.382   9.051  1.00  0.00     0.209 HD
ENDBRANCH  14  15
ENDBRANCH  10  14
BRANCH  11  17
HETATM   17  O9  UNL     1      33.532  43.431  10.667  1.00  0.00    -0.390 OA
ATOM     18  H9  UNL     1      33.786  44.338  10.797  1.00  0.00     0.210 HD
ENDBRANCH  11  17
BRANCH  12  19
HETATM   19  O10 UNL     1      33.864  40.549   9.942  1.00  0.00    -0.390 OA
ATOM     20  H10 UNL     1      33.319  40.677  10.710  1.00  0.00     0.210 HD
ENDBRANCH  12  19
BRANCH  13  21
HETATM   21  O11 UNL     1      33.807  40.395   7.134  1.00  0.00    -0.388 OA
ATOM     22  H11 UNL     1      34.405  39.723   6.827  1.00  0.00     0.210 HD
ENDBRANCH  13  21
ENDBRANCH   7   8
ENDBRANCH   4   7
BRANCH   3  23
HETATM   23  C7  UNL     1      30.797  42.283   5.920  1.00  0.00     0.198 C 
BRANCH  23  24
HETATM   24  O5  UNL     1      31.158  41.084   6.570  1.00  0.00    -0.398 OA
ATOM     25  H5  UNL     1      30.365  40.563   6.603  1.00  0.00     0.209 HD
ENDBRANCH  23  24
ENDBRANCH   3  23
BRANCH   5  26
HETATM   26  O12 UNL     1      34.346  45.408   4.948  1.00  0.00    -0.390 OA
ATOM     27  H12 UNL     1      34.887  45.653   5.691  1.00  0.00     0.210 HD
ENDBRANCH   5  26
BRANCH   6  28
HETATM   28  O13 UNL     1      34.325  42.151   3.493  1.00  0.00    -0.388 OA
ATOM     29  H13 UNL     1      34.232  41.807   2.612  1.00  0.00     0.210 HD
ENDBRANCH   6  28
BRANCH   1  30
HETATM   30  O3  UNL     1      32.400  43.268   1.785  1.00  0.00    -0.318 OA
BRANCH  30  31
HETATM   31  C4  UNL     1      32.387  43.991   0.613  1.00  0.00     0.072 A 
HETATM   32  C3  UNL     1      32.918  43.411  -0.536  1.00  0.00     0.039 A 
HETATM   33  C2  UNL     1      32.907  44.128  -1.705  1.00  0.00     0.039 A 
HETATM   34  C1  UNL     1      32.393  45.405  -1.802  1.00  0.00     0.103 A 
HETATM   35  C18 UNL     1      31.869  45.978  -0.663  1.00  0.00     0.039 A 
HETATM   36  C17 UNL     1      31.872  45.257   0.539  1.00  0.00     0.039 A 
BRANCH  34  37
HETATM   37  N1  UNL     1      32.401  46.107  -3.019  1.00  0.00    -0.116 N 
HETATM   38  O1  UNL     1      32.625  47.331  -3.046  1.00  0.00    -0.532 OA
HETATM   39  O2  UNL     1      32.164  45.478  -4.214  1.00  0.00    -0.532 OA
ENDBRANCH  34  37
ENDBRANCH  30  31
ENDBRANCH   1  30
TORSDOF 14
ENDMDL
