MODEL 2
REMARK VINA RESULT: -6.411397820      2.676      4.791
REMARK  14 active torsions:
REMARK  status: ('A' for Active; 'I' for Inactive)
REMARK    1  A    between atoms: N1_2  and  C1_4 
REMARK    2  A    between atoms: C4_7  and  O3_8 
REMARK    3  A    between atoms: O3_8  and  C5_9 
REMARK    4  A    between atoms: C6_11  and  C7_12 
REMARK    5  A    between atoms: C7_12  and  O5_13 
REMARK    6  A    between atoms: C8_15  and  O6_16 
REMARK    7  A    between atoms: O6_16  and  C9_17 
REMARK    8  A    between atoms: C10_19  and  C11_20 
REMARK    9  A    between atoms: C11_20  and  O8_21 
REMARK   10  A    between atoms: C12_23  and  O9_24 
REMARK   11  A    between atoms: C13_26  and  O10_27 
REMARK   12  A    between atoms: C14_29  and  O11_30 
REMARK   13  A    between atoms: C15_32  and  O12_33 
REMARK   14  A    between atoms: C16_35  and  O13_36 
ROOT
HETATM    1  C5  UNL     1      37.035  52.716  -0.270  1.00  0.00     0.298 C 
HETATM    2  O4  UNL     1      38.349  53.116  -0.019  1.00  0.00    -0.348 OA
HETATM    3  C6  UNL     1      38.578  53.520   1.273  1.00  0.00     0.180 C 
HETATM    4  C8  UNL     1      37.938  52.644   2.320  1.00  0.00     0.187 C 
HETATM    5  C15 UNL     1      36.430  52.730   2.119  1.00  0.00     0.183 C 
HETATM    6  C16 UNL     1      36.083  53.281   0.767  1.00  0.00     0.205 C 
ENDROOT
BRANCH   4   7
HETATM    7  O6  UNL     1      38.230  53.175   3.576  1.00  0.00    -0.348 OA
BRANCH   7   8
HETATM    8  C9  UNL     1      38.356  52.214   4.558  1.00  0.00     0.292 C 
HETATM    9  O7  UNL     1      39.572  52.320   5.215  1.00  0.00    -0.348 OA
HETATM   10  C10 UNL     1      39.851  53.547   5.731  1.00  0.00     0.179 C 
HETATM   11  C12 UNL     1      38.760  54.245   6.441  1.00  0.00     0.180 C 
HETATM   12  C13 UNL     1      37.372  53.848   6.050  1.00  0.00     0.183 C 
HETATM   13  C14 UNL     1      37.295  52.409   5.651  1.00  0.00     0.204 C 
BRANCH  10  14
HETATM   14  C11 UNL     1      41.011  53.372   6.722  1.00  0.00     0.198 C 
BRANCH  14  15
HETATM   15  O8  UNL     1      42.192  53.846   6.180  1.00  0.00    -0.398 OA
ATOM     16  H8  UNL     1      42.924  53.299   6.440  1.00  0.00     0.209 HD
ENDBRANCH  14  15
ENDBRANCH  10  14
BRANCH  11  17
HETATM   17  O9  UNL     1      38.882  55.627   6.168  1.00  0.00    -0.390 OA
ATOM     18  H9  UNL     1      38.369  56.098   6.816  1.00  0.00     0.210 HD
ENDBRANCH  11  17
BRANCH  12  19
HETATM   19  O10 UNL     1      36.495  54.091   7.107  1.00  0.00    -0.390 OA
ATOM     20  H10 UNL     1      35.665  53.659   6.943  1.00  0.00     0.210 HD
ENDBRANCH  12  19
BRANCH  13  21
HETATM   21  O11 UNL     1      36.043  52.043   5.231  1.00  0.00    -0.388 OA
ATOM     22  H11 UNL     1      35.369  52.628   5.556  1.00  0.00     0.210 HD
ENDBRANCH  13  21
ENDBRANCH   7   8
ENDBRANCH   4   7
BRANCH   3  23
HETATM   23  C7  UNL     1      40.086  53.596   1.457  1.00  0.00     0.198 C 
BRANCH  23  24
HETATM   24  O5  UNL     1      40.524  52.260   1.568  1.00  0.00    -0.398 OA
ATOM     25  H5  UNL     1      39.802  51.787   1.964  1.00  0.00     0.209 HD
ENDBRANCH  23  24
ENDBRANCH   3  23
BRANCH   5  26
HETATM   26  O12 UNL     1      35.837  51.471   2.319  1.00  0.00    -0.390 OA
ATOM     27  H12 UNL     1      36.355  50.954   2.926  1.00  0.00     0.210 HD
ENDBRANCH   5  26
BRANCH   6  28
HETATM   28  O13 UNL     1      36.001  54.661   0.729  1.00  0.00    -0.388 OA
ATOM     29  H13 UNL     1      36.067  55.060   1.588  1.00  0.00     0.210 HD
ENDBRANCH   6  28
BRANCH   1  30
HETATM   30  O3  UNL     1      36.692  53.151  -1.531  1.00  0.00    -0.318 OA
BRANCH  30  31
HETATM   31  C4  UNL     1      36.086  52.461  -2.558  1.00  0.00     0.072 A 
HETATM   32  C3  UNL     1      36.687  52.467  -3.813  1.00  0.00     0.039 A 
HETATM   33  C2  UNL     1      36.087  51.781  -4.838  1.00  0.00     0.039 A 
HETATM   34  C1  UNL     1      34.908  51.081  -4.687  1.00  0.00     0.103 A 
HETATM   35  C18 UNL     1      34.314  51.077  -3.444  1.00  0.00     0.039 A 
HETATM   36  C17 UNL     1      34.915  51.772  -2.387  1.00  0.00     0.039 A 
BRANCH  34  37
HETATM   37  N1  UNL     1      34.324  50.391  -5.764  1.00  0.00    -0.116 N 
HETATM   38  O1  UNL     1      33.090  50.250  -5.834  1.00  0.00    -0.532 OA
HETATM   39  O2  UNL     1      35.084  49.851  -6.770  1.00  0.00    -0.532 OA
ENDBRANCH  34  37
ENDBRANCH  30  31
ENDBRANCH   1  30
TORSDOF 14
ENDMDL
