MODEL 1
REMARK VINA RESULT: -6.756432569      0.000      0.000
REMARK  14 active torsions:
REMARK  status: ('A' for Active; 'I' for Inactive)
REMARK    1  A    between atoms: N1_2  and  C1_4 
REMARK    2  A    between atoms: C4_7  and  O3_8 
REMARK    3  A    between atoms: O3_8  and  C5_9 
REMARK    4  A    between atoms: C6_11  and  C7_12 
REMARK    5  A    between atoms: C7_12  and  O5_13 
REMARK    6  A    between atoms: C8_15  and  O6_16 
REMARK    7  A    between atoms: O6_16  and  C9_17 
REMARK    8  A    between atoms: C10_19  and  C11_20 
REMARK    9  A    between atoms: C11_20  and  O8_21 
REMARK   10  A    between atoms: C12_23  and  O9_24 
REMARK   11  A    between atoms: C13_26  and  O10_27 
REMARK   12  A    between atoms: C14_29  and  O11_30 
REMARK   13  A    between atoms: C15_32  and  O12_33 
REMARK   14  A    between atoms: C16_35  and  O13_36 
ROOT
HETATM    1  C5  UNL     1      34.005  52.168  -2.084  1.00  0.00     0.298 C 
HETATM    2  O4  UNL     1      34.397  51.310  -1.055  1.00  0.00    -0.348 OA
HETATM    3  C6  UNL     1      35.653  51.559  -0.562  1.00  0.00     0.180 C 
HETATM    4  C8  UNL     1      35.963  53.021  -0.361  1.00  0.00     0.187 C 
HETATM    5  C15 UNL     1      35.917  53.683  -1.732  1.00  0.00     0.183 C 
HETATM    6  C16 UNL     1      35.206  52.825  -2.738  1.00  0.00     0.205 C 
ENDROOT
BRANCH   4   7
HETATM    7  O6  UNL     1      37.266  53.133   0.121  1.00  0.00    -0.348 OA
BRANCH   7   8
HETATM    8  C9  UNL     1      37.472  54.269   0.878  1.00  0.00     0.292 C 
HETATM    9  O7  UNL     1      37.224  54.032   2.221  1.00  0.00    -0.348 OA
HETATM   10  C10 UNL     1      37.902  52.987   2.764  1.00  0.00     0.179 C 
HETATM   11  C12 UNL     1      39.333  52.858   2.421  1.00  0.00     0.180 C 
HETATM   12  C13 UNL     1      39.750  53.486   1.130  1.00  0.00     0.183 C 
HETATM   13  C14 UNL     1      38.943  54.706   0.815  1.00  0.00     0.204 C 
BRANCH  10  14
HETATM   14  C11 UNL     1      37.802  53.122   4.290  1.00  0.00     0.198 C 
BRANCH  14  15
HETATM   15  O8  UNL     1      38.015  51.900   4.904  1.00  0.00    -0.398 OA
ATOM     16  H8  UNL     1      38.924  51.639   4.825  1.00  0.00     0.209 HD
ENDBRANCH  14  15
ENDBRANCH  10  14
BRANCH  11  17
HETATM   17  O9  UNL     1      39.631  51.479   2.319  1.00  0.00    -0.390 OA
ATOM     18  H9  UNL     1      40.564  51.395   2.161  1.00  0.00     0.210 HD
ENDBRANCH  11  17
BRANCH  12  19
HETATM   19  O10 UNL     1      41.104  53.819   1.180  1.00  0.00    -0.390 OA
ATOM     20  H10 UNL     1      41.632  53.031   1.134  1.00  0.00     0.210 HD
ENDBRANCH  12  19
BRANCH  13  21
HETATM   21  O11 UNL     1      39.270  55.260  -0.394  1.00  0.00    -0.388 OA
ATOM     22  H11 UNL     1      39.977  55.890  -0.321  1.00  0.00     0.210 HD
ENDBRANCH  13  21
ENDBRANCH   7   8
ENDBRANCH   4   7
BRANCH   3  23
HETATM   23  C7  UNL     1      35.786  50.779   0.738  1.00  0.00     0.198 C 
BRANCH  23  24
HETATM   24  O5  UNL     1      37.140  50.390   0.811  1.00  0.00    -0.398 OA
ATOM     25  H5  UNL     1      37.151  49.602   1.340  1.00  0.00     0.209 HD
ENDBRANCH  23  24
ENDBRANCH   3  23
BRANCH   5  26
HETATM   26  O12 UNL     1      35.322  54.954  -1.643  1.00  0.00    -0.390 OA
ATOM     27  H12 UNL     1      34.552  54.920  -1.086  1.00  0.00     0.210 HD
ENDBRANCH   5  26
BRANCH   6  28
HETATM   28  O13 UNL     1      36.030  51.921  -3.384  1.00  0.00    -0.388 OA
ATOM     29  H13 UNL     1      36.238  52.180  -4.274  1.00  0.00     0.210 HD
ENDBRANCH   6  28
BRANCH   1  30
HETATM   30  O3  UNL     1      33.294  51.431  -3.005  1.00  0.00    -0.318 OA
BRANCH  30  31
HETATM   31  C4  UNL     1      33.058  50.075  -3.043  1.00  0.00     0.072 A 
HETATM   32  C3  UNL     1      33.129  49.418  -4.268  1.00  0.00     0.039 A 
HETATM   33  C2  UNL     1      32.893  48.067  -4.310  1.00  0.00     0.039 A 
HETATM   34  C1  UNL     1      32.588  47.320  -3.191  1.00  0.00     0.103 A 
HETATM   35  C18 UNL     1      32.517  47.972  -1.979  1.00  0.00     0.039 A 
HETATM   36  C17 UNL     1      32.756  49.352  -1.920  1.00  0.00     0.039 A 
BRANCH  34  37
HETATM   37  N1  UNL     1      32.353  45.937  -3.276  1.00  0.00    -0.116 N 
HETATM   38  O1  UNL     1      32.271  45.241  -2.248  1.00  0.00    -0.532 OA
HETATM   39  O2  UNL     1      32.207  45.305  -4.485  1.00  0.00    -0.532 OA
ENDBRANCH  34  37
ENDBRANCH  30  31
ENDBRANCH   1  30
TORSDOF 14
ENDMDL
