MODEL 3
REMARK VINA RESULT: -8.090839217      1.643      8.590
REMARK  18 active torsions:
REMARK  status: ('A' for Active; 'I' for Inactive)
REMARK    1  A    between atoms: O1_1  and  C1_3 
REMARK    2  A    between atoms: C1_3  and  C2_4 
REMARK    3  A    between atoms: C3_6  and  O3_7 
REMARK    4  A    between atoms: O3_7  and  C4_8 
REMARK    5  A    between atoms: C5_9  and  C6_10 
REMARK    6  A    between atoms: C6_10  and  O4_11 
REMARK    7  A    between atoms: C7_14  and  O6_15 
REMARK    8  A    between atoms: O6_15  and  C8_16 
REMARK    9  A    between atoms: C9_17  and  C10_18 
REMARK   10  A    between atoms: C10_18  and  O7_19 
REMARK   11  A    between atoms: C11_22  and  O9_23 
REMARK   12  A    between atoms: C12_25  and  O10_26 
REMARK   13  A    between atoms: C13_28  and  O11_29 
REMARK   14  A    between atoms: C14_31  and  O12_32 
REMARK   15  A    between atoms: C15_34  and  O13_35 
REMARK   16  A    between atoms: C16_37  and  O14_38 
REMARK   17  A    between atoms: C17_40  and  O15_41 
REMARK   18  A    between atoms: C18_43  and  O16_44 
ROOT
HETATM    1  C4  UNL     1      23.379  16.494  20.085  1.00  0.00     0.187 C 
HETATM    2  C5  UNL     1      22.203  16.672  19.187  1.00  0.00     0.180 C 
HETATM    3  O5  UNL     1      22.496  17.383  18.033  1.00  0.00    -0.348 OA
HETATM    4  C7  UNL     1      22.976  18.654  18.292  1.00  0.00     0.292 C 
HETATM    5  C14 UNL     1      24.151  18.649  19.236  1.00  0.00     0.204 C 
HETATM    6  C15 UNL     1      24.598  17.252  19.608  1.00  0.00     0.183 C 
ENDROOT
BRANCH   1   7
HETATM    7  O3  UNL     1      23.714  15.154  20.236  1.00  0.00    -0.348 OA
BRANCH   7   8
HETATM    8  C3  UNL     1      23.772  14.736  21.551  1.00  0.00     0.292 C 
HETATM    9  O2  UNL     1      23.763  15.776  22.452  1.00  0.00    -0.348 OA
HETATM   10  C2  UNL     1      23.967  15.474  23.759  1.00  0.00     0.179 C 
HETATM   11  C18 UNL     1      23.545  14.069  24.076  1.00  0.00     0.180 C 
HETATM   12  C17 UNL     1      22.281  13.756  23.281  1.00  0.00     0.183 C 
HETATM   13  C16 UNL     1      22.620  13.775  21.796  1.00  0.00     0.204 C 
BRANCH  10  14
HETATM   14  C1  UNL     1      25.469  15.545  24.023  1.00  0.00     0.198 C 
BRANCH  14  15
HETATM   15  O1  UNL     1      26.050  16.652  23.412  1.00  0.00    -0.398 OA
ATOM     16  H1  UNL     1      26.982  16.708  23.594  1.00  0.00     0.209 HD
ENDBRANCH  14  15
ENDBRANCH  10  14
BRANCH  11  17
HETATM   17  O16 UNL     1      23.334  13.858  25.438  1.00  0.00    -0.390 OA
ATOM     18  H16 UNL     1      23.385  12.941  25.683  1.00  0.00     0.210 HD
ENDBRANCH  11  17
BRANCH  12  19
HETATM   19  O15 UNL     1      21.760  12.557  23.698  1.00  0.00    -0.390 OA
ATOM     20  H15 UNL     1      20.824  12.592  23.854  1.00  0.00     0.210 HD
ENDBRANCH  12  19
BRANCH  13  21
HETATM   21  O14 UNL     1      21.497  14.057  21.043  1.00  0.00    -0.388 OA
ATOM     22  H14 UNL     1      20.695  14.079  21.552  1.00  0.00     0.210 HD
ENDBRANCH  13  21
ENDBRANCH   7   8
ENDBRANCH   1   7
BRANCH   2  23
HETATM   23  C6  UNL     1      21.047  17.232  19.949  1.00  0.00     0.198 C 
BRANCH  23  24
HETATM   24  O4  UNL     1      20.118  16.225  20.206  1.00  0.00    -0.398 OA
ATOM     25  H4  UNL     1      19.781  16.315  21.089  1.00  0.00     0.209 HD
ENDBRANCH  23  24
ENDBRANCH   2  23
BRANCH   6  26
HETATM   26  O13 UNL     1      25.583  17.342  20.557  1.00  0.00    -0.390 OA
ATOM     27  H13 UNL     1      26.378  17.748  20.234  1.00  0.00     0.210 HD
ENDBRANCH   6  26
BRANCH   5  28
HETATM   28  O12 UNL     1      25.238  19.322  18.632  1.00  0.00    -0.388 OA
ATOM     29  H12 UNL     1      25.712  19.811  19.294  1.00  0.00     0.210 HD
ENDBRANCH   5  28
BRANCH   4  30
HETATM   30  O6  UNL     1      23.373  19.264  17.109  1.00  0.00    -0.348 OA
BRANCH  30  31
HETATM   31  C8  UNL     1      22.445  19.169  16.107  1.00  0.00     0.187 C 
HETATM   32  C9  UNL     1      22.972  19.849  14.868  1.00  0.00     0.180 C 
HETATM   33  O8  UNL     1      22.226  19.381  13.783  1.00  0.00    -0.349 OA
HETATM   34  C11 UNL     1      20.867  19.505  14.034  1.00  0.00     0.288 C 
HETATM   35  C12 UNL     1      20.506  20.337  15.212  1.00  0.00     0.204 C 
HETATM   36  C13 UNL     1      21.211  20.008  16.490  1.00  0.00     0.183 C 
BRANCH  32  37
HETATM   37  C10 UNL     1      24.435  19.685  14.670  1.00  0.00     0.198 C 
BRANCH  37  38
HETATM   38  O7  UNL     1      24.646  18.848  13.574  1.00  0.00    -0.398 OA
ATOM     39  H7  UNL     1      25.564  18.609  13.547  1.00  0.00     0.209 HD
ENDBRANCH  37  38
ENDBRANCH  32  37
BRANCH  34  40
HETATM   40  O9  UNL     1      20.335  20.160  12.895  1.00  0.00    -0.369 OA
ATOM     41  H9  UNL     1      20.444  21.088  13.065  1.00  0.00     0.212 HD
ENDBRANCH  34  40
BRANCH  35  42
HETATM   42  O10 UNL     1      20.555  21.684  14.867  1.00  0.00    -0.388 OA
ATOM     43  H10 UNL     1      19.716  22.091  15.047  1.00  0.00     0.210 HD
ENDBRANCH  35  42
BRANCH  36  44
HETATM   44  O11 UNL     1      20.394  19.323  17.389  1.00  0.00    -0.390 OA
ATOM     45  H11 UNL     1      19.476  19.509  17.230  1.00  0.00     0.210 HD
ENDBRANCH  36  44
ENDBRANCH  30  31
ENDBRANCH   4  30
TORSDOF 18
ENDMDL
