MODEL 2
REMARK VINA RESULT: -8.329549882      0.819      1.984
REMARK  18 active torsions:
REMARK  status: ('A' for Active; 'I' for Inactive)
REMARK    1  A    between atoms: O1_1  and  C1_3 
REMARK    2  A    between atoms: C1_3  and  C2_4 
REMARK    3  A    between atoms: C3_6  and  O3_7 
REMARK    4  A    between atoms: O3_7  and  C4_8 
REMARK    5  A    between atoms: C5_9  and  C6_10 
REMARK    6  A    between atoms: C6_10  and  O4_11 
REMARK    7  A    between atoms: C7_14  and  O6_15 
REMARK    8  A    between atoms: O6_15  and  C8_16 
REMARK    9  A    between atoms: C9_17  and  C10_18 
REMARK   10  A    between atoms: C10_18  and  O7_19 
REMARK   11  A    between atoms: C11_22  and  O9_23 
REMARK   12  A    between atoms: C12_25  and  O10_26 
REMARK   13  A    between atoms: C13_28  and  O11_29 
REMARK   14  A    between atoms: C14_31  and  O12_32 
REMARK   15  A    between atoms: C15_34  and  O13_35 
REMARK   16  A    between atoms: C16_37  and  O14_38 
REMARK   17  A    between atoms: C17_40  and  O15_41 
REMARK   18  A    between atoms: C18_43  and  O16_44 
ROOT
HETATM    1  C4  UNL     1      22.291  20.168  18.070  1.00  0.00     0.187 C 
HETATM    2  C5  UNL     1      23.517  19.643  18.736  1.00  0.00     0.180 C 
HETATM    3  O5  UNL     1      23.613  18.260  18.700  1.00  0.00    -0.348 OA
HETATM    4  C7  UNL     1      22.545  17.632  19.314  1.00  0.00     0.292 C 
HETATM    5  C14 UNL     1      21.214  18.095  18.779  1.00  0.00     0.204 C 
HETATM    6  C15 UNL     1      21.351  19.069  17.628  1.00  0.00     0.183 C 
ENDROOT
BRANCH   1   7
HETATM    7  O3  UNL     1      22.601  20.962  16.973  1.00  0.00    -0.348 OA
BRANCH   7   8
HETATM    8  C3  UNL     1      22.573  20.287  15.769  1.00  0.00     0.292 C 
HETATM    9  O2  UNL     1      21.768  20.888  14.828  1.00  0.00    -0.348 OA
HETATM   10  C2  UNL     1      21.557  20.221  13.666  1.00  0.00     0.179 C 
HETATM   11  C18 UNL     1      22.691  19.292  13.347  1.00  0.00     0.180 C 
HETATM   12  C17 UNL     1      23.996  19.968  13.756  1.00  0.00     0.183 C 
HETATM   13  C16 UNL     1      24.001  20.142  15.270  1.00  0.00     0.204 C 
BRANCH  10  14
HETATM   14  C1  UNL     1      20.319  19.347  13.849  1.00  0.00     0.198 C 
BRANCH  14  15
HETATM   15  O1  UNL     1      19.526  19.326  12.707  1.00  0.00    -0.398 OA
ATOM     16  H1  UNL     1      18.915  18.598  12.713  1.00  0.00     0.209 HD
ENDBRANCH  14  15
ENDBRANCH  10  14
BRANCH  11  17
HETATM   17  O16 UNL     1      22.731  18.923  12.002  1.00  0.00    -0.390 OA
ATOM     18  H16 UNL     1      22.787  17.983  11.877  1.00  0.00     0.210 HD
ENDBRANCH  11  17
BRANCH  12  19
HETATM   19  O15 UNL     1      25.060  19.232  13.297  1.00  0.00    -0.390 OA
ATOM     20  H15 UNL     1      25.062  18.340  13.623  1.00  0.00     0.210 HD
ENDBRANCH  12  19
BRANCH  13  21
HETATM   21  O14 UNL     1      24.822  21.191  15.637  1.00  0.00    -0.388 OA
ATOM     22  H14 UNL     1      24.857  21.889  14.993  1.00  0.00     0.210 HD
ENDBRANCH  13  21
ENDBRANCH   7   8
ENDBRANCH   1   7
BRANCH   2  23
HETATM   23  C6  UNL     1      23.643  20.208  20.113  1.00  0.00     0.198 C 
BRANCH  23  24
HETATM   24  O4  UNL     1      23.386  21.579  20.087  1.00  0.00    -0.398 OA
ATOM     25  H4  UNL     1      22.503  21.746  20.393  1.00  0.00     0.209 HD
ENDBRANCH  23  24
ENDBRANCH   2  23
BRANCH   6  26
HETATM   26  O13 UNL     1      20.106  19.529  17.288  1.00  0.00    -0.390 OA
ATOM     27  H13 UNL     1      19.422  19.222  17.872  1.00  0.00     0.210 HD
ENDBRANCH   6  26
BRANCH   5  28
HETATM   28  O12 UNL     1      20.475  16.975  18.333  1.00  0.00    -0.388 OA
ATOM     29  H12 UNL     1      19.561  17.086  18.571  1.00  0.00     0.210 HD
ENDBRANCH   5  28
BRANCH   4  30
HETATM   30  O6  UNL     1      22.631  16.258  19.129  1.00  0.00    -0.348 OA
BRANCH  30  31
HETATM   31  C8  UNL     1      23.315  15.615  20.126  1.00  0.00     0.187 C 
HETATM   32  C9  UNL     1      22.464  15.569  21.371  1.00  0.00     0.180 C 
HETATM   33  O8  UNL     1      22.986  14.572  22.199  1.00  0.00    -0.349 OA
HETATM   34  C11 UNL     1      24.350  14.752  22.381  1.00  0.00     0.288 C 
HETATM   35  C12 UNL     1      24.891  16.060  21.928  1.00  0.00     0.204 C 
HETATM   36  C13 UNL     1      24.524  16.478  20.538  1.00  0.00     0.183 C 
BRANCH  32  37
HETATM   37  C10 UNL     1      21.015  15.387  21.100  1.00  0.00     0.198 C 
BRANCH  37  38
HETATM   38  O7  UNL     1      20.865  14.442  20.086  1.00  0.00    -0.398 OA
ATOM     39  H7  UNL     1      20.323  13.732  20.410  1.00  0.00     0.209 HD
ENDBRANCH  37  38
ENDBRANCH  32  37
BRANCH  34  40
HETATM   40  O9  UNL     1      24.552  14.692  23.782  1.00  0.00    -0.369 OA
ATOM     41  H9  UNL     1      25.328  14.158  23.902  1.00  0.00     0.212 HD
ENDBRANCH  34  40
BRANCH  35  42
HETATM   42  O10 UNL     1      24.644  17.029  22.895  1.00  0.00    -0.388 OA
ATOM     43  H10 UNL     1      25.447  17.497  23.092  1.00  0.00     0.210 HD
ENDBRANCH  35  42
BRANCH  36  44
HETATM   44  O11 UNL     1      25.580  16.329  19.640  1.00  0.00    -0.390 OA
ATOM     45  H11 UNL     1      26.273  15.796  20.010  1.00  0.00     0.210 HD
ENDBRANCH  36  44
ENDBRANCH  30  31
ENDBRANCH   4  30
TORSDOF 18
ENDMDL
