MODEL 1
REMARK VINA RESULT: -8.363479881      0.000      0.000
REMARK  18 active torsions:
REMARK  status: ('A' for Active; 'I' for Inactive)
REMARK    1  A    between atoms: O1_1  and  C1_3 
REMARK    2  A    between atoms: C1_3  and  C2_4 
REMARK    3  A    between atoms: C3_6  and  O3_7 
REMARK    4  A    between atoms: O3_7  and  C4_8 
REMARK    5  A    between atoms: C5_9  and  C6_10 
REMARK    6  A    between atoms: C6_10  and  O4_11 
REMARK    7  A    between atoms: C7_14  and  O6_15 
REMARK    8  A    between atoms: O6_15  and  C8_16 
REMARK    9  A    between atoms: C9_17  and  C10_18 
REMARK   10  A    between atoms: C10_18  and  O7_19 
REMARK   11  A    between atoms: C11_22  and  O9_23 
REMARK   12  A    between atoms: C12_25  and  O10_26 
REMARK   13  A    between atoms: C13_28  and  O11_29 
REMARK   14  A    between atoms: C14_31  and  O12_32 
REMARK   15  A    between atoms: C15_34  and  O13_35 
REMARK   16  A    between atoms: C16_37  and  O14_38 
REMARK   17  A    between atoms: C17_40  and  O15_41 
REMARK   18  A    between atoms: C18_43  and  O16_44 
ROOT
HETATM    1  C4  UNL     1      22.319  20.590  18.015  1.00  0.00     0.187 C 
HETATM    2  C5  UNL     1      23.510  20.205  18.825  1.00  0.00     0.180 C 
HETATM    3  O5  UNL     1      23.673  18.833  18.943  1.00  0.00    -0.348 OA
HETATM    4  C7  UNL     1      22.589  18.212  19.537  1.00  0.00     0.292 C 
HETATM    5  C14 UNL     1      21.287  18.543  18.856  1.00  0.00     0.204 C 
HETATM    6  C15 UNL     1      21.471  19.400  17.622  1.00  0.00     0.183 C 
ENDROOT
BRANCH   1   7
HETATM    7  O3  UNL     1      22.680  21.282  16.866  1.00  0.00    -0.348 OA
BRANCH   7   8
HETATM    8  C3  UNL     1      22.644  20.518  15.717  1.00  0.00     0.292 C 
HETATM    9  O2  UNL     1      21.849  21.056  14.731  1.00  0.00    -0.348 OA
HETATM   10  C2  UNL     1      21.630  20.305  13.622  1.00  0.00     0.179 C 
HETATM   11  C18 UNL     1      22.751  19.338  13.379  1.00  0.00     0.180 C 
HETATM   12  C17 UNL     1      24.065  20.024  13.739  1.00  0.00     0.183 C 
HETATM   13  C16 UNL     1      24.071  20.314  15.235  1.00  0.00     0.204 C 
BRANCH  10  14
HETATM   14  C1  UNL     1      20.380  19.465  13.869  1.00  0.00     0.198 C 
BRANCH  14  15
HETATM   15  O1  UNL     1      19.629  19.301  12.709  1.00  0.00    -0.398 OA
ATOM     16  H1  UNL     1      18.813  19.788  12.744  1.00  0.00     0.209 HD
ENDBRANCH  14  15
ENDBRANCH  10  14
BRANCH  11  17
HETATM   17  O16 UNL     1      22.787  18.866  12.067  1.00  0.00    -0.390 OA
ATOM     18  H16 UNL     1      23.596  18.413  11.858  1.00  0.00     0.210 HD
ENDBRANCH  11  17
BRANCH  12  19
HETATM   19  O15 UNL     1      25.119  19.240  13.340  1.00  0.00    -0.390 OA
ATOM     20  H15 UNL     1      25.963  19.596  13.590  1.00  0.00     0.210 HD
ENDBRANCH  12  19
BRANCH  13  21
HETATM   21  O14 UNL     1      24.906  21.376  15.522  1.00  0.00    -0.388 OA
ATOM     22  H14 UNL     1      25.338  21.302  16.365  1.00  0.00     0.210 HD
ENDBRANCH  13  21
ENDBRANCH   7   8
ENDBRANCH   1   7
BRANCH   2  23
HETATM   23  C6  UNL     1      23.496  20.914  20.138  1.00  0.00     0.198 C 
BRANCH  23  24
HETATM   24  O4  UNL     1      23.054  22.225  19.963  1.00  0.00    -0.398 OA
ATOM     25  H4  UNL     1      22.169  22.313  20.296  1.00  0.00     0.209 HD
ENDBRANCH  23  24
ENDBRANCH   2  23
BRANCH   6  26
HETATM   26  O13 UNL     1      20.237  19.753  17.141  1.00  0.00    -0.390 OA
ATOM     27  H13 UNL     1      19.641  20.045  17.820  1.00  0.00     0.210 HD
ENDBRANCH   6  26
BRANCH   5  28
HETATM   28  O12 UNL     1      20.639  17.345  18.477  1.00  0.00    -0.388 OA
ATOM     29  H12 UNL     1      21.053  16.998  17.694  1.00  0.00     0.210 HD
ENDBRANCH   5  28
BRANCH   4  30
HETATM   30  O6  UNL     1      22.755  16.833  19.508  1.00  0.00    -0.348 OA
BRANCH  30  31
HETATM   31  C8  UNL     1      22.567  16.234  20.724  1.00  0.00     0.187 C 
HETATM   32  C9  UNL     1      23.855  15.586  21.170  1.00  0.00     0.180 C 
HETATM   33  O8  UNL     1      23.759  15.367  22.547  1.00  0.00    -0.349 OA
HETATM   34  C11 UNL     1      22.584  14.698  22.855  1.00  0.00     0.288 C 
HETATM   35  C12 UNL     1      21.852  14.120  21.698  1.00  0.00     0.204 C 
HETATM   36  C13 UNL     1      21.599  15.047  20.550  1.00  0.00     0.183 C 
BRANCH  32  37
HETATM   37  C10 UNL     1      25.072  16.350  20.795  1.00  0.00     0.198 C 
BRANCH  37  38
HETATM   38  O7  UNL     1      25.350  16.115  19.449  1.00  0.00    -0.398 OA
ATOM     39  H7  UNL     1      26.266  15.878  19.364  1.00  0.00     0.209 HD
ENDBRANCH  37  38
ENDBRANCH  32  37
BRANCH  34  40
HETATM   40  O9  UNL     1      22.977  13.609  23.672  1.00  0.00    -0.369 OA
ATOM     41  H9  UNL     1      22.727  12.830  23.189  1.00  0.00     0.212 HD
ENDBRANCH  34  40
BRANCH  35  42
HETATM   42  O10 UNL     1      22.433  12.910  21.332  1.00  0.00    -0.388 OA
ATOM     43  H10 UNL     1      22.710  12.950  20.425  1.00  0.00     0.210 HD
ENDBRANCH  35  42
BRANCH  36  44
HETATM   44  O11 UNL     1      20.275  15.479  20.495  1.00  0.00    -0.390 OA
ATOM     45  H11 UNL     1      19.779  14.985  19.854  1.00  0.00     0.210 HD
ENDBRANCH  36  44
ENDBRANCH  30  31
ENDBRANCH   4  30
TORSDOF 18
ENDMDL
