MODEL 5
REMARK VINA RESULT: -8.654373833      1.145      1.530
REMARK  9 active torsions:
REMARK  status: ('A' for Active; 'I' for Inactive)
REMARK    1  A    between atoms: C5_5  and  O1_6 
REMARK    2  A    between atoms: C7_9  and  C8_10 
REMARK    3  A    between atoms: C8_10  and  C9_11 
REMARK    4  A    between atoms: C9_11  and  C10_12 
REMARK    5  A    between atoms: C19_21  and  C20_22 
REMARK    6  A    between atoms: C20_22  and  C22_24 
REMARK    7  A    between atoms: C22_24  and  C23_25 
REMARK    8  A    between atoms: C23_25  and  C24_26 
REMARK    9  A    between atoms: C24_26  and  C25_27 
ROOT
HETATM    1  C10 UNL     1      -3.730   7.444  19.771  1.00  0.00    -0.010 C 
HETATM    2  C11 UNL     1      -3.318   7.144  18.353  1.00  0.00     0.005 C 
HETATM    3  C12 UNL     1      -2.146   8.023  17.921  1.00  0.00     0.001 C 
HETATM    4  C13 UNL     1      -2.555   9.460  17.775  1.00  0.00     0.010 C 
HETATM    5  C14 UNL     1      -3.504   9.810  18.885  1.00  0.00    -0.036 C 
HETATM    6  C15 UNL     1      -4.940   9.776  18.498  1.00  0.00     0.016 C 
HETATM    7  C16 UNL     1      -3.352   8.846  20.079  1.00  0.00    -0.002 C 
HETATM    8  C17 UNL     1      -4.287   9.565  21.043  1.00  0.00     0.006 C 
HETATM    9  C18 UNL     1      -4.025  11.062  20.772  1.00  0.00     0.006 C 
HETATM   10  C19 UNL     1      -3.071  11.039  19.650  1.00  0.00    -0.002 C 
ENDROOT
BRANCH   1  11
HETATM   11  C9  UNL     1      -2.936   6.575  20.712  1.00  0.00     0.005 C 
BRANCH  11  12
HETATM   12  C8  UNL     1      -2.571   5.233  20.222  1.00  0.00     0.009 C 
BRANCH  12  13
HETATM   13  C7  UNL     1      -1.099   5.032  19.985  1.00  0.00     0.016 C 
HETATM   14  C2  UNL     1      -0.662   3.839  20.736  1.00  0.00    -0.085 C 
HETATM   15  C1  UNL     1      -0.734   3.821  22.056  1.00  0.00     0.014 C 
HETATM   16  C3  UNL     1      -0.146   2.672  20.011  1.00  0.00     0.036 C 
HETATM   17  C4  UNL     1      -0.980   2.498  18.760  1.00  0.00     0.036 C 
HETATM   18  C5  UNL     1      -0.873   3.686  17.869  1.00  0.00     0.119 C 
HETATM   19  C6  UNL     1      -0.709   4.997  18.550  1.00  0.00     0.040 C 
BRANCH  18  20
HETATM   20  O1  UNL     1       0.219   3.458  16.999  1.00  0.00    -0.396 OA
ATOM     21  H1  UNL     1       0.897   4.082  17.230  1.00  0.00     0.210 HD
ENDBRANCH  18  20
ENDBRANCH  12  13
ENDBRANCH  11  12
ENDBRANCH   1  11
BRANCH  10  22
HETATM   22  C20 UNL     1      -2.868  12.275  18.851  1.00  0.00    -0.011 C 
HETATM   23  C21 UNL     1      -2.068  13.209  19.786  1.00  0.00     0.010 C 
BRANCH  22  24
HETATM   24  C22 UNL     1      -4.092  12.923  18.360  1.00  0.00     0.031 C 
BRANCH  24  25
HETATM   25  C23 UNL     1      -3.968  13.990  17.347  1.00  0.00    -0.030 C 
BRANCH  25  26
HETATM   26  C24 UNL     1      -4.291  15.387  17.622  1.00  0.00    -0.027 C 
BRANCH  26  27
HETATM   27  C25 UNL     1      -3.297  16.475  17.513  1.00  0.00    -0.001 C 
HETATM   28  C26 UNL     1      -2.347  16.559  18.669  1.00  0.00     0.013 C 
HETATM   29  C27 UNL     1      -4.100  17.819  17.554  1.00  0.00     0.013 C 
ENDBRANCH  26  27
ENDBRANCH  25  26
ENDBRANCH  24  25
ENDBRANCH  22  24
ENDBRANCH  10  22
TORSDOF 9
ENDMDL
