MODEL 4
REMARK VINA RESULT: -8.670746014      1.421      3.704
REMARK  9 active torsions:
REMARK  status: ('A' for Active; 'I' for Inactive)
REMARK    1  A    between atoms: C5_5  and  O1_6 
REMARK    2  A    between atoms: C7_9  and  C8_10 
REMARK    3  A    between atoms: C8_10  and  C9_11 
REMARK    4  A    between atoms: C9_11  and  C10_12 
REMARK    5  A    between atoms: C19_21  and  C20_22 
REMARK    6  A    between atoms: C20_22  and  C22_24 
REMARK    7  A    between atoms: C22_24  and  C23_25 
REMARK    8  A    between atoms: C23_25  and  C24_26 
REMARK    9  A    between atoms: C24_26  and  C25_27 
ROOT
HETATM    1  C10 UNL     1      -3.467  10.107  18.104  1.00  0.00    -0.010 C 
HETATM    2  C11 UNL     1      -4.305  10.260  16.862  1.00  0.00     0.005 C 
HETATM    3  C12 UNL     1      -3.699  11.288  15.910  1.00  0.00     0.001 C 
HETATM    4  C13 UNL     1      -3.796  12.680  16.463  1.00  0.00     0.010 C 
HETATM    5  C14 UNL     1      -3.523  12.637  17.940  1.00  0.00    -0.036 C 
HETATM    6  C15 UNL     1      -4.743  12.641  18.790  1.00  0.00     0.016 C 
HETATM    7  C16 UNL     1      -2.727  11.374  18.327  1.00  0.00    -0.002 C 
HETATM    8  C17 UNL     1      -2.481  11.727  19.788  1.00  0.00     0.006 C 
HETATM    9  C18 UNL     1      -2.226  13.249  19.768  1.00  0.00     0.006 C 
HETATM   10  C19 UNL     1      -2.443  13.608  18.357  1.00  0.00    -0.002 C 
ENDROOT
BRANCH   1  11
HETATM   11  C9  UNL     1      -2.424   9.043  17.871  1.00  0.00     0.005 C 
BRANCH  11  12
HETATM   12  C8  UNL     1      -2.687   7.720  18.467  1.00  0.00     0.009 C 
BRANCH  12  13
HETATM   13  C7  UNL     1      -2.019   7.487  19.794  1.00  0.00     0.016 C 
HETATM   14  C2  UNL     1      -3.057   7.164  20.792  1.00  0.00    -0.085 C 
HETATM   15  C1  UNL     1      -3.983   8.056  21.101  1.00  0.00     0.014 C 
HETATM   16  C3  UNL     1      -3.059   5.847  21.439  1.00  0.00     0.036 C 
HETATM   17  C4  UNL     1      -2.685   4.817  20.396  1.00  0.00     0.036 C 
HETATM   18  C5  UNL     1      -1.323   5.068  19.852  1.00  0.00     0.119 C 
HETATM   19  C6  UNL     1      -0.913   6.494  19.758  1.00  0.00     0.040 C 
BRANCH  18  20
HETATM   20  O1  UNL     1      -0.410   4.360  20.668  1.00  0.00    -0.396 OA
ATOM     21  H1  UNL     1       0.418   4.331  20.203  1.00  0.00     0.210 HD
ENDBRANCH  18  20
ENDBRANCH  12  13
ENDBRANCH  11  12
ENDBRANCH   1  11
BRANCH  10  22
HETATM   22  C20 UNL     1      -2.665  15.033  18.002  1.00  0.00    -0.011 C 
HETATM   23  C21 UNL     1      -1.993  15.824  19.147  1.00  0.00     0.010 C 
BRANCH  22  24
HETATM   24  C22 UNL     1      -4.068  15.432  17.822  1.00  0.00     0.031 C 
BRANCH  24  25
HETATM   25  C23 UNL     1      -4.419  16.279  16.665  1.00  0.00    -0.030 C 
BRANCH  25  26
HETATM   26  C24 UNL     1      -5.353  17.397  16.753  1.00  0.00    -0.027 C 
BRANCH  26  27
HETATM   27  C25 UNL     1      -4.915  18.792  16.968  1.00  0.00    -0.001 C 
HETATM   28  C26 UNL     1      -4.392  19.470  15.739  1.00  0.00     0.013 C 
HETATM   29  C27 UNL     1      -3.691  18.730  17.943  1.00  0.00     0.013 C 
ENDBRANCH  26  27
ENDBRANCH  25  26
ENDBRANCH  24  25
ENDBRANCH  22  24
ENDBRANCH  10  22
TORSDOF 9
ENDMDL
