MODEL 3
REMARK VINA RESULT: -8.741859733      2.714      3.702
REMARK  9 active torsions:
REMARK  status: ('A' for Active; 'I' for Inactive)
REMARK    1  A    between atoms: C5_5  and  O1_6 
REMARK    2  A    between atoms: C7_9  and  C8_10 
REMARK    3  A    between atoms: C8_10  and  C9_11 
REMARK    4  A    between atoms: C9_11  and  C10_12 
REMARK    5  A    between atoms: C19_21  and  C20_22 
REMARK    6  A    between atoms: C20_22  and  C22_24 
REMARK    7  A    between atoms: C22_24  and  C23_25 
REMARK    8  A    between atoms: C23_25  and  C24_26 
REMARK    9  A    between atoms: C24_26  and  C25_27 
ROOT
HETATM    1  C10 UNL     1      -3.409   6.796  19.044  1.00  0.00    -0.010 C 
HETATM    2  C11 UNL     1      -3.716   6.741  20.518  1.00  0.00     0.005 C 
HETATM    3  C12 UNL     1      -4.818   7.731  20.889  1.00  0.00     0.001 C 
HETATM    4  C13 UNL     1      -4.348   9.152  20.774  1.00  0.00     0.010 C 
HETATM    5  C14 UNL     1      -3.478   9.279  19.555  1.00  0.00    -0.036 C 
HETATM    6  C15 UNL     1      -2.018   9.238  19.837  1.00  0.00     0.016 C 
HETATM    7  C16 UNL     1      -3.760   8.149  18.545  1.00  0.00    -0.002 C 
HETATM    8  C17 UNL     1      -2.880   8.664  17.413  1.00  0.00     0.006 C 
HETATM    9  C18 UNL     1      -3.066  10.195  17.461  1.00  0.00     0.006 C 
HETATM   10  C19 UNL     1      -3.927  10.393  18.638  1.00  0.00    -0.002 C 
ENDROOT
BRANCH   1  11
HETATM   11  C9  UNL     1      -4.306   5.829  18.313  1.00  0.00     0.005 C 
BRANCH  11  12
HETATM   12  C8  UNL     1      -3.639   4.753  17.558  1.00  0.00     0.009 C 
BRANCH  12  13
HETATM   13  C7  UNL     1      -2.672   5.230  16.510  1.00  0.00     0.016 C 
HETATM   14  C2  UNL     1      -1.655   4.182  16.299  1.00  0.00    -0.085 C 
HETATM   15  C1  UNL     1      -0.845   3.833  17.284  1.00  0.00     0.014 C 
HETATM   16  C3  UNL     1      -1.546   3.527  14.990  1.00  0.00     0.036 C 
HETATM   17  C4  UNL     1      -2.947   3.321  14.457  1.00  0.00     0.036 C 
HETATM   18  C5  UNL     1      -3.651   4.618  14.273  1.00  0.00     0.119 C 
HETATM   19  C6  UNL     1      -3.312   5.687  15.248  1.00  0.00     0.040 C 
BRANCH  18  20
HETATM   20  O1  UNL     1      -3.373   5.062  12.959  1.00  0.00    -0.396 OA
ATOM     21  H1  UNL     1      -2.922   5.895  13.034  1.00  0.00     0.210 HD
ENDBRANCH  18  20
ENDBRANCH  12  13
ENDBRANCH  11  12
ENDBRANCH   1  11
BRANCH  10  22
HETATM   22  C20 UNL     1      -4.022  11.746  19.243  1.00  0.00    -0.011 C 
HETATM   23  C21 UNL     1      -5.509  12.135  19.083  1.00  0.00     0.010 C 
BRANCH  22  24
HETATM   24  C22 UNL     1      -3.134  12.765  18.666  1.00  0.00     0.031 C 
BRANCH  24  25
HETATM   25  C23 UNL     1      -3.654  13.625  17.585  1.00  0.00    -0.030 C 
BRANCH  25  26
HETATM   26  C24 UNL     1      -4.041  15.017  17.794  1.00  0.00    -0.027 C 
BRANCH  26  27
HETATM   27  C25 UNL     1      -3.093  16.142  17.652  1.00  0.00    -0.001 C 
HETATM   28  C26 UNL     1      -2.161  16.313  18.813  1.00  0.00     0.013 C 
HETATM   29  C27 UNL     1      -3.952  17.451  17.631  1.00  0.00     0.013 C 
ENDBRANCH  26  27
ENDBRANCH  25  26
ENDBRANCH  24  25
ENDBRANCH  22  24
ENDBRANCH  10  22
TORSDOF 9
ENDMDL
