MODEL 12
REMARK VINA RESULT: -5.869290906      3.107      4.934
REMARK  2 active torsions:
REMARK  status: ('A' for Active; 'I' for Inactive)
REMARK    1  A    between atoms: C1_2  and  C2_4 
REMARK    2  A    between atoms: C5_9  and  C6_10 
ROOT
HETATM    1  C2  UNL     1      15.840  47.525  69.878  1.00  0.00     0.044 A 
HETATM    2  C3  UNL     1      14.923  47.857  70.856  1.00  0.00     0.035 A 
HETATM    3  C4  UNL     1      14.130  48.966  70.681  1.00  0.00     0.089 A 
HETATM    4  N1  UNL     1      14.239  49.727  69.573  1.00  0.00    -0.360 N 
ATOM      5  H1  UNL     1      13.635  50.544  69.476  1.00  0.00     0.165 HD
HETATM    6  C5  UNL     1      15.114  49.451  68.590  1.00  0.00     0.110 A 
HETATM    7  C7  UNL     1      15.909  48.328  68.778  1.00  0.00     0.055 A 
ENDROOT
BRANCH   1   8
HETATM    8  C1  UNL     1      16.710  46.374  69.989  1.00  0.00     0.209 C 
HETATM    9  O1  UNL     1      16.843  45.794  71.082  1.00  0.00    -0.644 OA
HETATM   10  O2  UNL     1      17.388  45.927  68.878  1.00  0.00    -0.644 OA
ENDBRANCH   1   8
BRANCH   6  11
HETATM   11  C6  UNL     1      15.235  50.268  67.391  1.00  0.00     0.226 C 
HETATM   12  O3  UNL     1      15.850  49.806  66.402  1.00  0.00    -0.643 OA
HETATM   13  O4  UNL     1      14.707  51.541  67.267  1.00  0.00    -0.643 OA
ENDBRANCH   6  11
TORSDOF 2
ENDMDL
