MODEL 16
REMARK VINA RESULT: -5.816617649      2.310      5.027
REMARK  2 active torsions:
REMARK  status: ('A' for Active; 'I' for Inactive)
REMARK    1  A    between atoms: C1_2  and  C2_4 
REMARK    2  A    between atoms: C5_9  and  C6_10 
ROOT
HETATM    1  C2  UNL     1      17.508  47.339  70.478  1.00  0.00     0.044 A 
HETATM    2  C3  UNL     1      17.640  47.895  71.735  1.00  0.00     0.035 A 
HETATM    3  C4  UNL     1      16.694  48.792  72.173  1.00  0.00     0.089 A 
HETATM    4  N1  UNL     1      15.648  49.131  71.391  1.00  0.00    -0.360 N 
ATOM      5  H1  UNL     1      14.966  49.800  71.747  1.00  0.00     0.165 HD
HETATM    6  C5  UNL     1      15.472  48.621  70.160  1.00  0.00     0.110 A 
HETATM    7  C7  UNL     1      16.433  47.716  69.729  1.00  0.00     0.055 A 
ENDROOT
BRANCH   1   8
HETATM    8  C1  UNL     1      18.461  46.389  69.947  1.00  0.00     0.209 C 
HETATM    9  O1  UNL     1      18.146  45.651  68.995  1.00  0.00    -0.644 OA
HETATM   10  O2  UNL     1      19.718  46.306  70.504  1.00  0.00    -0.644 OA
ENDBRANCH   1   8
BRANCH   6  11
HETATM   11  C6  UNL     1      14.344  48.983  69.313  1.00  0.00     0.226 C 
HETATM   12  O3  UNL     1      13.194  48.607  69.641  1.00  0.00    -0.643 OA
HETATM   13  O4  UNL     1      14.457  49.727  68.152  1.00  0.00    -0.643 OA
ENDBRANCH   6  11
TORSDOF 2
ENDMDL
