MODEL 10
REMARK VINA RESULT: -5.951280647      2.227      4.430
REMARK  2 active torsions:
REMARK  status: ('A' for Active; 'I' for Inactive)
REMARK    1  A    between atoms: C1_2  and  C2_4 
REMARK    2  A    between atoms: C5_9  and  C6_10 
ROOT
HETATM    1  C2  UNL     1      16.710  46.976  69.353  1.00  0.00     0.044 A 
HETATM    2  C3  UNL     1      17.144  46.607  68.094  1.00  0.00     0.035 A 
HETATM    3  C4  UNL     1      16.778  47.370  67.011  1.00  0.00     0.089 A 
HETATM    4  N1  UNL     1      16.006  48.465  67.164  1.00  0.00    -0.360 N 
ATOM      5  H1  UNL     1      15.753  49.007  66.337  1.00  0.00     0.165 HD
HETATM    6  C5  UNL     1      15.556  48.869  68.364  1.00  0.00     0.110 A 
HETATM    7  C7  UNL     1      15.932  48.092  69.451  1.00  0.00     0.055 A 
ENDROOT
BRANCH   1   8
HETATM    8  C1  UNL     1      17.052  46.226  70.541  1.00  0.00     0.209 C 
HETATM    9  O1  UNL     1      18.112  45.574  70.586  1.00  0.00    -0.644 OA
HETATM   10  O2  UNL     1      16.197  46.238  71.620  1.00  0.00    -0.644 OA
ENDBRANCH   1   8
BRANCH   6  11
HETATM   11  C6  UNL     1      14.723  50.051  68.535  1.00  0.00     0.226 C 
HETATM   12  O3  UNL     1      14.145  50.232  69.632  1.00  0.00    -0.643 OA
HETATM   13  O4  UNL     1      14.524  51.005  67.553  1.00  0.00    -0.643 OA
ENDBRANCH   6  11
TORSDOF 2
ENDMDL
