MODEL 5
REMARK VINA RESULT: -7.166183523      1.039      1.039
REMARK  5 active torsions:
REMARK  status: ('A' for Active; 'I' for Inactive)
REMARK    1  A    between atoms: N5_13  and  C6_14 
REMARK    2  A    between atoms: C7_16  and  C8_17 
REMARK    3  A    between atoms: C8_17  and  O2_18 
REMARK    4  A    between atoms: C9_20  and  O3_21 
REMARK    5  A    between atoms: C10_23  and  O4_24 
ROOT
HETATM    1  N1  UNL     1      10.972  22.548  14.391  1.00  0.00    -0.080 NA
HETATM    2  C1  UNL     1      11.478  21.504  13.584  1.00  0.00     0.148 A 
HETATM    3  N2  UNL     1      10.727  20.425  13.247  1.00  0.00    -0.339 N 
ATOM      4  H2  UNL     1       9.764  20.347  13.577  1.00  0.00     0.167 HD
HETATM    5  C2  UNL     1      11.254  19.459  12.476  1.00  0.00     0.183 A 
HETATM    6  N3  UNL     1      12.524  19.570  12.045  1.00  0.00    -0.336 N 
ATOM      7  H3  UNL     1      12.912  18.830  11.461  1.00  0.00     0.168 HD
HETATM    8  C3  UNL     1      13.311  20.639  12.362  1.00  0.00     0.142 A 
HETATM    9  C4  UNL     1      12.780  21.621  13.144  1.00  0.00     0.119 A 
HETATM   10  N4  UNL     1      13.747  22.549  13.308  1.00  0.00    -0.346 N 
ATOM     11  H4  UNL     1      13.660  23.410  13.847  1.00  0.00     0.167 HD
HETATM   12  C5  UNL     1      14.849  22.147  12.642  1.00  0.00     0.188 A 
HETATM   13  N5  UNL     1      14.576  20.970  12.062  1.00  0.00    -0.297 N 
ENDROOT
BRANCH  13  14
HETATM   14  C6  UNL     1      15.442  20.170  11.255  1.00  0.00     0.262 C 
HETATM   15  O1  UNL     1      16.770  20.492  11.513  1.00  0.00    -0.353 OA
HETATM   16  C7  UNL     1      17.531  20.059  10.461  1.00  0.00     0.179 C 
HETATM   17  C9  UNL     1      16.615  19.784   9.295  1.00  0.00     0.182 C 
HETATM   18  C10 UNL     1      15.326  20.458   9.784  1.00  0.00     0.198 C 
BRANCH  16  19
HETATM   19  C8  UNL     1      18.542  21.100  10.014  1.00  0.00     0.198 C 
BRANCH  19  20
HETATM   20  O2  UNL     1      19.636  21.182  10.842  1.00  0.00    -0.398 OA
ATOM     21  H2  UNL     1      19.700  22.013  11.297  1.00  0.00     0.209 HD
ENDBRANCH  19  20
ENDBRANCH  16  19
BRANCH  17  22
HETATM   22  O3  UNL     1      16.366  18.407   9.238  1.00  0.00    -0.390 OA
ATOM     23  H3  UNL     1      16.595  18.093   8.371  1.00  0.00     0.210 HD
ENDBRANCH  17  22
BRANCH  18  24
HETATM   24  O4  UNL     1      14.205  19.869   9.214  1.00  0.00    -0.388 OA
ATOM     25  H4  UNL     1      13.906  20.332   8.440  1.00  0.00     0.210 HD
ENDBRANCH  18  24
ENDBRANCH  13  14
TORSDOF 5
ENDMDL
