MODEL 9
REMARK VINA RESULT: -6.595287829      4.064      5.828
REMARK  5 active torsions:
REMARK  status: ('A' for Active; 'I' for Inactive)
REMARK    1  A    between atoms: N5_13  and  C6_14 
REMARK    2  A    between atoms: C7_16  and  C8_17 
REMARK    3  A    between atoms: C8_17  and  O2_18 
REMARK    4  A    between atoms: C9_20  and  O3_21 
REMARK    5  A    between atoms: C10_23  and  O4_24 
ROOT
HETATM    1  N1  UNL     1      19.143  20.511  18.491  1.00  0.00    -0.080 NA
HETATM    2  C1  UNL     1      18.696  21.022  17.252  1.00  0.00     0.148 A 
HETATM    3  N2  UNL     1      18.112  22.243  17.144  1.00  0.00    -0.339 N 
ATOM      4  H2  UNL     1      17.982  22.824  17.973  1.00  0.00     0.167 HD
HETATM    5  C2  UNL     1      17.703  22.683  15.942  1.00  0.00     0.183 A 
HETATM    6  N3  UNL     1      17.879  21.910  14.855  1.00  0.00    -0.336 N 
ATOM      7  H3  UNL     1      17.564  22.257  13.949  1.00  0.00     0.168 HD
HETATM    8  C3  UNL     1      18.462  20.678  14.923  1.00  0.00     0.142 A 
HETATM    9  C4  UNL     1      18.877  20.227  16.140  1.00  0.00     0.119 A 
HETATM   10  N4  UNL     1      19.410  19.003  15.936  1.00  0.00    -0.346 N 
ATOM     11  H4  UNL     1      19.810  18.402  16.656  1.00  0.00     0.167 HD
HETATM   12  C5  UNL     1      19.326  18.708  14.623  1.00  0.00     0.188 A 
HETATM   13  N5  UNL     1      18.741  19.742  14.003  1.00  0.00    -0.297 N 
ENDROOT
BRANCH  13  14
HETATM   14  C6  UNL     1      18.445  19.874  12.611  1.00  0.00     0.262 C 
HETATM   15  O1  UNL     1      17.081  20.068  12.428  1.00  0.00    -0.353 OA
HETATM   16  C7  UNL     1      16.771  19.758  11.131  1.00  0.00     0.179 C 
HETATM   17  C9  UNL     1      17.913  18.963  10.549  1.00  0.00     0.182 C 
HETATM   18  C10 UNL     1      18.695  18.618  11.823  1.00  0.00     0.198 C 
BRANCH  16  19
HETATM   19  C8  UNL     1      15.519  18.905  11.026  1.00  0.00     0.198 C 
BRANCH  19  20
HETATM   20  O2  UNL     1      14.373  19.582  11.372  1.00  0.00    -0.398 OA
ATOM     21  H2  UNL     1      14.344  20.467  11.030  1.00  0.00     0.209 HD
ENDBRANCH  19  20
ENDBRANCH  16  19
BRANCH  17  22
HETATM   22  O3  UNL     1      18.716  19.824   9.791  1.00  0.00    -0.390 OA
ATOM     23  H3  UNL     1      18.992  19.367   9.005  1.00  0.00     0.210 HD
ENDBRANCH  17  22
BRANCH  18  24
HETATM   24  O4  UNL     1      20.042  18.422  11.548  1.00  0.00    -0.388 OA
ATOM     25  H4  UNL     1      20.181  17.849  10.803  1.00  0.00     0.210 HD
ENDBRANCH  18  24
ENDBRANCH  13  14
TORSDOF 5
ENDMDL
