MODEL 10
REMARK VINA RESULT: -6.533162335      5.372      6.512
REMARK  5 active torsions:
REMARK  status: ('A' for Active; 'I' for Inactive)
REMARK    1  A    between atoms: N5_13  and  C6_14 
REMARK    2  A    between atoms: C7_16  and  C8_17 
REMARK    3  A    between atoms: C8_17  and  O2_18 
REMARK    4  A    between atoms: C9_20  and  O3_21 
REMARK    5  A    between atoms: C10_23  and  O4_24 
ROOT
HETATM    1  N1  UNL     1      18.661  23.402   9.129  1.00  0.00    -0.080 NA
HETATM    2  C1  UNL     1      18.915  22.801  10.383  1.00  0.00     0.148 A 
HETATM    3  N2  UNL     1      19.306  23.526  11.462  1.00  0.00    -0.339 N 
ATOM      4  H2  UNL     1      19.425  24.536  11.385  1.00  0.00     0.167 HD
HETATM    5  C2  UNL     1      19.536  22.907  12.633  1.00  0.00     0.183 A 
HETATM    6  N3  UNL     1      19.375  21.574  12.724  1.00  0.00    -0.336 N 
ATOM      7  H3  UNL     1      19.553  21.118  13.619  1.00  0.00     0.168 HD
HETATM    8  C3  UNL     1      18.983  20.812  11.662  1.00  0.00     0.142 A 
HETATM    9  C4  UNL     1      18.750  21.435  10.473  1.00  0.00     0.119 A 
HETATM   10  N4  UNL     1      18.381  20.473   9.599  1.00  0.00    -0.346 N 
ATOM     11  H4  UNL     1      18.139  20.621   8.620  1.00  0.00     0.167 HD
HETATM   12  C5  UNL     1      18.387  19.285  10.237  1.00  0.00     0.188 A 
HETATM   13  N5  UNL     1      18.759  19.499  11.507  1.00  0.00    -0.297 N 
ENDROOT
BRANCH  13  14
HETATM   14  C6  UNL     1      18.905  18.533  12.550  1.00  0.00     0.262 C 
HETATM   15  O1  UNL     1      18.294  18.988  13.713  1.00  0.00    -0.353 OA
HETATM   16  C7  UNL     1      18.806  18.289  14.772  1.00  0.00     0.179 C 
HETATM   17  C9  UNL     1      20.079  17.616  14.324  1.00  0.00     0.182 C 
HETATM   18  C10 UNL     1      20.328  18.341  12.995  1.00  0.00     0.198 C 
BRANCH  16  19
HETATM   19  C8  UNL     1      19.151  19.189  15.944  1.00  0.00     0.198 C 
BRANCH  19  20
HETATM   20  O2  UNL     1      20.010  20.209  15.609  1.00  0.00    -0.398 OA
ATOM     21  H2  UNL     1      20.174  20.267  14.675  1.00  0.00     0.209 HD
ENDBRANCH  19  20
ENDBRANCH  16  19
BRANCH  17  22
HETATM   22  O3  UNL     1      19.795  16.279  14.020  1.00  0.00    -0.390 OA
ATOM     23  H3  UNL     1      19.350  16.248  13.181  1.00  0.00     0.210 HD
ENDBRANCH  17  22
BRANCH  18  24
HETATM   24  O4  UNL     1      21.057  17.547  12.119  1.00  0.00    -0.388 OA
ATOM     25  H4  UNL     1      21.738  18.032  11.670  1.00  0.00     0.210 HD
ENDBRANCH  18  24
ENDBRANCH  13  14
TORSDOF 5
ENDMDL
