MODEL 12
REMARK VINA RESULT: -6.455024262      3.424      4.836
REMARK  5 active torsions:
REMARK  status: ('A' for Active; 'I' for Inactive)
REMARK    1  A    between atoms: N5_13  and  C6_14 
REMARK    2  A    between atoms: C7_16  and  C8_17 
REMARK    3  A    between atoms: C8_17  and  O2_18 
REMARK    4  A    between atoms: C9_20  and  O3_21 
REMARK    5  A    between atoms: C10_23  and  O4_24 
ROOT
HETATM    1  N1  UNL     1      19.103  20.523  17.023  1.00  0.00    -0.080 NA
HETATM    2  C1  UNL     1      18.895  19.915  15.765  1.00  0.00     0.148 A 
HETATM    3  N2  UNL     1      19.561  18.794  15.387  1.00  0.00    -0.339 N 
ATOM      4  H2  UNL     1      20.237  18.363  16.018  1.00  0.00     0.167 HD
HETATM    5  C2  UNL     1      19.327  18.255  14.178  1.00  0.00     0.183 A 
HETATM    6  N3  UNL     1      18.434  18.831  13.353  1.00  0.00    -0.336 N 
ATOM      7  H3  UNL     1      18.266  18.411  12.440  1.00  0.00     0.168 HD
HETATM    8  C3  UNL     1      17.744  19.957  13.697  1.00  0.00     0.142 A 
HETATM    9  C4  UNL     1      17.979  20.508  14.922  1.00  0.00     0.119 A 
HETATM   10  N4  UNL     1      17.184  21.596  15.014  1.00  0.00    -0.346 N 
ATOM     11  H4  UNL     1      17.128  22.226  15.814  1.00  0.00     0.167 HD
HETATM   12  C5  UNL     1      16.475  21.711  13.871  1.00  0.00     0.188 A 
HETATM   13  N5  UNL     1      16.825  20.701  13.064  1.00  0.00    -0.297 N 
ENDROOT
BRANCH  13  14
HETATM   14  C6  UNL     1      16.333  20.419  11.752  1.00  0.00     0.262 C 
HETATM   15  O1  UNL     1      16.530  19.077  11.444  1.00  0.00    -0.353 OA
HETATM   16  C7  UNL     1      16.468  18.933  10.085  1.00  0.00     0.179 C 
HETATM   17  C9  UNL     1      16.616  20.296   9.456  1.00  0.00     0.182 C 
HETATM   18  C10 UNL     1      17.103  21.111  10.662  1.00  0.00     0.198 C 
BRANCH  16  19
HETATM   19  C8  UNL     1      17.585  18.056   9.547  1.00  0.00     0.198 C 
BRANCH  19  20
HETATM   20  O2  UNL     1      18.344  18.677   8.583  1.00  0.00    -0.398 OA
ATOM     21  H2  UNL     1      19.140  18.205   8.372  1.00  0.00     0.209 HD
ENDBRANCH  19  20
ENDBRANCH  16  19
BRANCH  17  22
HETATM   22  O3  UNL     1      15.344  20.773   9.120  1.00  0.00    -0.390 OA
ATOM     23  H3  UNL     1      15.173  21.561   9.623  1.00  0.00     0.210 HD
ENDBRANCH  17  22
BRANCH  18  24
HETATM   24  O4  UNL     1      16.758  22.450  10.534  1.00  0.00    -0.388 OA
ATOM     25  H4  UNL     1      17.248  22.887   9.849  1.00  0.00     0.210 HD
ENDBRANCH  18  24
ENDBRANCH  13  14
TORSDOF 5
ENDMDL
