MODEL 1
REMARK VINA RESULT: -7.932600002      0.000      0.000
REMARK  5 active torsions:
REMARK  status: ('A' for Active; 'I' for Inactive)
REMARK    1  A    between atoms: N5_13  and  C6_14 
REMARK    2  A    between atoms: C7_16  and  C8_17 
REMARK    3  A    between atoms: C8_17  and  O2_18 
REMARK    4  A    between atoms: C9_20  and  O3_21 
REMARK    5  A    between atoms: C10_23  and  O4_24 
ROOT
HETATM    1  N1  UNL     1      11.094  22.423  14.457  1.00  0.00    -0.080 NA
HETATM    2  C1  UNL     1      11.510  21.376  13.604  1.00  0.00     0.148 A 
HETATM    3  N2  UNL     1      10.706  20.321  13.314  1.00  0.00    -0.339 N 
ATOM      4  H2  UNL     1       9.770  20.264  13.716  1.00  0.00     0.167 HD
HETATM    5  C2  UNL     1      11.148  19.350  12.497  1.00  0.00     0.183 A 
HETATM    6  N3  UNL     1      12.384  19.434  11.972  1.00  0.00    -0.336 N 
ATOM      7  H3  UNL     1      12.707  18.690  11.353  1.00  0.00     0.168 HD
HETATM    8  C3  UNL     1      13.221  20.479  12.239  1.00  0.00     0.142 A 
HETATM    9  C4  UNL     1      12.777  21.465  13.068  1.00  0.00     0.119 A 
HETATM   10  N4  UNL     1      13.779  22.365  13.167  1.00  0.00    -0.346 N 
ATOM     11  H4  UNL     1      13.755  23.223  13.719  1.00  0.00     0.167 HD
HETATM   12  C5  UNL     1      14.816  21.943  12.415  1.00  0.00     0.188 A 
HETATM   13  N5  UNL     1      14.468  20.780  11.846  1.00  0.00    -0.297 N 
ENDROOT
BRANCH  13  14
HETATM   14  C6  UNL     1      15.250  19.968  10.969  1.00  0.00     0.262 C 
HETATM   15  O1  UNL     1      16.294  19.373  11.668  1.00  0.00    -0.353 OA
HETATM   16  C7  UNL     1      17.247  18.979  10.768  1.00  0.00     0.179 C 
HETATM   17  C9  UNL     1      16.988  19.688   9.463  1.00  0.00     0.182 C 
HETATM   18  C10 UNL     1      15.980  20.753   9.915  1.00  0.00     0.198 C 
BRANCH  16  19
HETATM   19  C8  UNL     1      18.650  19.346  11.218  1.00  0.00     0.198 C 
BRANCH  19  20
HETATM   20  O2  UNL     1      19.511  18.274  11.233  1.00  0.00    -0.398 OA
ATOM     21  H2  UNL     1      20.412  18.521  11.402  1.00  0.00     0.209 HD
ENDBRANCH  19  20
ENDBRANCH  16  19
BRANCH  17  22
HETATM   22  O3  UNL     1      16.308  18.813   8.607  1.00  0.00    -0.390 OA
ATOM     23  H3  UNL     1      15.625  19.297   8.158  1.00  0.00     0.210 HD
ENDBRANCH  17  22
BRANCH  18  24
HETATM   24  O4  UNL     1      15.153  21.138   8.869  1.00  0.00    -0.388 OA
ATOM     25  H4  UNL     1      15.632  21.285   8.062  1.00  0.00     0.210 HD
ENDBRANCH  18  24
ENDBRANCH  13  14
TORSDOF 5
ENDMDL
