MODEL 2
REMARK VINA RESULT: -7.608599164      1.229      1.307
REMARK  5 active torsions:
REMARK  status: ('A' for Active; 'I' for Inactive)
REMARK    1  A    between atoms: N5_13  and  C6_14 
REMARK    2  A    between atoms: C7_16  and  C8_17 
REMARK    3  A    between atoms: C8_17  and  O2_18 
REMARK    4  A    between atoms: C9_20  and  O3_21 
REMARK    5  A    between atoms: C10_23  and  O4_24 
ROOT
HETATM    1  N1  UNL     1      10.968  21.342  13.602  1.00  0.00    -0.080 NA
HETATM    2  C1  UNL     1      11.748  20.496  12.782  1.00  0.00     0.148 A 
HETATM    3  N2  UNL     1      11.251  19.348  12.253  1.00  0.00    -0.339 N 
ATOM      4  H2  UNL     1      10.287  19.072  12.441  1.00  0.00     0.167 HD
HETATM    5  C2  UNL     1      12.034  18.577  11.479  1.00  0.00     0.183 A 
HETATM    6  N3  UNL     1      13.304  18.950  11.236  1.00  0.00    -0.336 N 
ATOM      7  H3  UNL     1      13.887  18.356  10.647  1.00  0.00     0.168 HD
HETATM    8  C3  UNL     1      13.839  20.096  11.750  1.00  0.00     0.142 A 
HETATM    9  C4  UNL     1      13.048  20.881  12.535  1.00  0.00     0.119 A 
HETATM   10  N4  UNL     1      13.804  21.936  12.910  1.00  0.00    -0.346 N 
ATOM     11  H4  UNL     1      13.497  22.705  13.505  1.00  0.00     0.167 HD
HETATM   12  C5  UNL     1      15.031  21.803  12.367  1.00  0.00     0.188 A 
HETATM   13  N5  UNL     1      15.048  20.668  11.654  1.00  0.00    -0.297 N 
ENDROOT
BRANCH  13  14
HETATM   14  C6  UNL     1      16.135  20.122  10.905  1.00  0.00     0.262 C 
HETATM   15  O1  UNL     1      16.657  19.011  11.558  1.00  0.00    -0.353 OA
HETATM   16  C7  UNL     1      17.919  18.783  11.081  1.00  0.00     0.179 C 
HETATM   17  C9  UNL     1      18.385  20.023  10.361  1.00  0.00     0.182 C 
HETATM   18  C10 UNL     1      17.329  21.033  10.828  1.00  0.00     0.198 C 
BRANCH  16  19
HETATM   19  C8  UNL     1      18.913  18.497  12.193  1.00  0.00     0.198 C 
BRANCH  19  20
HETATM   20  O2  UNL     1      20.193  18.295  11.735  1.00  0.00    -0.398 OA
ATOM     21  H2  UNL     1      20.657  17.615  12.209  1.00  0.00     0.209 HD
ENDBRANCH  19  20
ENDBRANCH  16  19
BRANCH  17  22
HETATM   22  O3  UNL     1      18.201  19.837   8.986  1.00  0.00    -0.390 OA
ATOM     23  H3  UNL     1      18.604  20.563   8.525  1.00  0.00     0.210 HD
ENDBRANCH  17  22
BRANCH  18  24
HETATM   24  O4  UNL     1      17.162  22.051   9.897  1.00  0.00    -0.388 OA
ATOM     25  H4  UNL     1      17.333  22.910  10.264  1.00  0.00     0.210 HD
ENDBRANCH  18  24
ENDBRANCH  13  14
TORSDOF 5
ENDMDL
