MODEL 1
REMARK VINA RESULT: -8.539423950      0.000      0.000
REMARK  5 active torsions:
REMARK  status: ('A' for Active; 'I' for Inactive)
REMARK       I    between atoms: C1_2  and  N1_3 
REMARK    1  A    between atoms: C1_2  and  C9_20 
REMARK    2  A    between atoms: N1_3  and  N2_5 
REMARK    3  A    between atoms: C2_7  and  C3_8 
REMARK    4  A    between atoms: C6_12  and  O2_13 
REMARK    5  A    between atoms: C8_17  and  O3_18 
ROOT
HETATM    1  N2  UNL     1     -75.022  38.071 129.679  1.00  0.00    -0.308 N 
ATOM      2  H2  UNL     1     -74.374  38.781 130.022  1.00  0.00     0.186 HD
HETATM    3  C2  UNL     1     -76.231  38.411 129.520  1.00  0.00     0.121 C 
ENDROOT
BRANCH   1   4
HETATM    4  N1  UNL     1     -74.508  36.803 129.419  1.00  0.00    -0.266 N 
HETATM    5  C1  UNL     1     -73.170  36.411 129.663  1.00  0.00     0.271 C 
HETATM    6  O1  UNL     1     -72.418  37.291 130.147  1.00  0.00    -0.266 OA
ATOM      7  H1  UNL     1     -75.141  36.107 129.025  1.00  0.00     0.190 HD
BRANCH   5   8
HETATM    8  C9  UNL     1     -72.624  35.088 129.395  1.00  0.00     0.049 A 
HETATM    9  C10 UNL     1     -71.277  34.895 129.591  1.00  0.00     0.020 A 
HETATM   10  C11 UNL     1     -70.740  33.658 129.345  1.00  0.00     0.018 A 
HETATM   11  C12 UNL     1     -71.527  32.632 128.914  1.00  0.00     0.087 A 
HETATM   12  N3  UNL     1     -72.834  32.847 128.732  1.00  0.00    -0.374 N 
HETATM   13  C13 UNL     1     -73.425  34.040 128.956  1.00  0.00     0.104 A 
ATOM     14  H3  UNL     1     -73.412  32.071 128.408  1.00  0.00     0.164 HD
ENDBRANCH   5   8
ENDBRANCH   1   4
BRANCH   3  15
HETATM   15  C3  UNL     1     -76.636  39.773 129.832  1.00  0.00     0.017 A 
HETATM   16  C4  UNL     1     -77.944  40.101 130.153  1.00  0.00     0.037 A 
HETATM   17  C5  UNL     1     -78.367  41.360 130.451  1.00  0.00     0.046 A 
HETATM   18 BR1  UNL     1     -80.163  41.803 130.891  1.00  0.00    -0.048 Br
HETATM   19  C6  UNL     1     -77.438  42.380 130.435  1.00  0.00     0.103 A 
HETATM   20  C7  UNL     1     -76.121  42.108 130.121  1.00  0.00     0.079 A 
HETATM   21 BR2  UNL     1     -74.793  43.468 130.080  1.00  0.00    -0.045 Br
HETATM   22  C8  UNL     1     -75.723  40.809 129.822  1.00  0.00     0.097 A 
BRANCH  19  23
HETATM   23  O2  UNL     1     -77.834  43.688 130.736  1.00  0.00    -0.358 OA
ATOM     24  H2  UNL     1     -77.295  44.227 131.304  1.00  0.00     0.217 HD
ENDBRANCH  19  23
BRANCH  22  25
HETATM   25  O3  UNL     1     -74.403  40.528 129.505  1.00  0.00    -0.358 OA
ATOM     26  H3  UNL     1     -73.822  40.234 130.197  1.00  0.00     0.217 HD
ENDBRANCH  22  25
ENDBRANCH   3  15
TORSDOF 5
ENDMDL
