MODEL 3
REMARK VINA RESULT: -8.452737083      1.560      1.802
REMARK  5 active torsions:
REMARK  status: ('A' for Active; 'I' for Inactive)
REMARK       I    between atoms: C1_2  and  N1_3 
REMARK    1  A    between atoms: C1_2  and  C9_20 
REMARK    2  A    between atoms: N1_3  and  N2_5 
REMARK    3  A    between atoms: C2_7  and  C3_8 
REMARK    4  A    between atoms: C6_12  and  O2_13 
REMARK    5  A    between atoms: C8_17  and  O3_18 
ROOT
HETATM    1  N2  UNL     1     -73.766  37.418 129.847  1.00  0.00    -0.308 N 
ATOM      2  H2  UNL     1     -74.738  37.110 129.845  1.00  0.00     0.186 HD
HETATM    3  C2  UNL     1     -73.548  38.665 129.870  1.00  0.00     0.121 C 
ENDROOT
BRANCH   1   4
HETATM    4  N1  UNL     1     -72.779  36.434 129.825  1.00  0.00    -0.266 N 
HETATM    5  C1  UNL     1     -72.986  35.097 129.411  1.00  0.00     0.271 C 
HETATM    6  O1  UNL     1     -74.151  34.807 129.045  1.00  0.00    -0.266 OA
ATOM      7  H1  UNL     1     -71.842  36.697 130.127  1.00  0.00     0.190 HD
BRANCH   5   8
HETATM    8  C9  UNL     1     -71.962  34.062 129.384  1.00  0.00     0.049 A 
HETATM    9  C10 UNL     1     -70.714  34.378 129.870  1.00  0.00     0.020 A 
HETATM   10  C11 UNL     1     -69.734  33.420 129.854  1.00  0.00     0.018 A 
HETATM   11  C12 UNL     1     -69.988  32.174 129.366  1.00  0.00     0.087 A 
HETATM   12  N3  UNL     1     -71.209  31.893 128.899  1.00  0.00    -0.374 N 
HETATM   13  C13 UNL     1     -72.219  32.790 128.886  1.00  0.00     0.104 A 
ATOM     14  H3  UNL     1     -71.386  30.957 128.536  1.00  0.00     0.164 HD
ENDBRANCH   5   8
ENDBRANCH   1   4
BRANCH   3  15
HETATM   15  C3  UNL     1     -74.673  39.586 129.891  1.00  0.00     0.017 A 
HETATM   16  C4  UNL     1     -75.988  39.147 129.888  1.00  0.00     0.037 A 
HETATM   17  C5  UNL     1     -77.070  39.972 129.907  1.00  0.00     0.046 A 
HETATM   18 BR1  UNL     1     -78.872  39.364 129.902  1.00  0.00    -0.048 Br
HETATM   19  C6  UNL     1     -76.852  41.334 129.931  1.00  0.00     0.103 A 
HETATM   20  C7  UNL     1     -75.561  41.824 129.936  1.00  0.00     0.079 A 
HETATM   21 BR2  UNL     1     -75.190  43.688 129.969  1.00  0.00    -0.045 Br
HETATM   22  C8  UNL     1     -74.477  40.952 129.916  1.00  0.00     0.097 A 
BRANCH  19  23
HETATM   23  O2  UNL     1     -77.939  42.215 129.953  1.00  0.00    -0.358 OA
ATOM     24  H2  UNL     1     -77.861  43.072 129.551  1.00  0.00     0.217 HD
ENDBRANCH  19  23
BRANCH  22  25
HETATM   25  O3  UNL     1     -73.177  41.437 129.920  1.00  0.00    -0.358 OA
ATOM     26  H3  UNL     1     -72.679  41.396 130.727  1.00  0.00     0.217 HD
ENDBRANCH  22  25
ENDBRANCH   3  15
TORSDOF 5
ENDMDL
