MODEL 2
REMARK VINA RESULT: -8.524163409      1.082      2.302
REMARK  5 active torsions:
REMARK  status: ('A' for Active; 'I' for Inactive)
REMARK       I    between atoms: C1_2  and  N1_3 
REMARK    1  A    between atoms: C1_2  and  C9_20 
REMARK    2  A    between atoms: N1_3  and  N2_5 
REMARK    3  A    between atoms: C2_7  and  C3_8 
REMARK    4  A    between atoms: C6_12  and  O2_13 
REMARK    5  A    between atoms: C8_17  and  O3_18 
ROOT
HETATM    1  N2  UNL     1     -75.059  38.029 129.491  1.00  0.00    -0.308 N 
ATOM      2  H2  UNL     1     -74.432  38.830 129.421  1.00  0.00     0.186 HD
HETATM    3  C2  UNL     1     -76.273  38.257 129.771  1.00  0.00     0.121 C 
ENDROOT
BRANCH   1   4
HETATM    4  N1  UNL     1     -74.515  36.765 129.272  1.00  0.00    -0.266 N 
HETATM    5  C1  UNL     1     -73.190  36.392 129.603  1.00  0.00     0.271 C 
HETATM    6  O1  UNL     1     -72.481  37.283 130.129  1.00  0.00    -0.266 OA
ATOM      7  H1  UNL     1     -75.112  36.060 128.843  1.00  0.00     0.190 HD
BRANCH   5   8
HETATM    8  C9  UNL     1     -72.612  35.074 129.378  1.00  0.00     0.049 A 
HETATM    9  C10 UNL     1     -71.262  34.918 129.587  1.00  0.00     0.020 A 
HETATM   10  C11 UNL     1     -70.695  33.688 129.382  1.00  0.00     0.018 A 
HETATM   11  C12 UNL     1     -71.455  32.632 128.976  1.00  0.00     0.087 A 
HETATM   12  N3  UNL     1     -72.766  32.810 128.779  1.00  0.00    -0.374 N 
HETATM   13  C13 UNL     1     -73.386  33.996 128.963  1.00  0.00     0.104 A 
ATOM     14  H3  UNL     1     -73.323  32.012 128.475  1.00  0.00     0.164 HD
ENDBRANCH   5   8
ENDBRANCH   1   4
BRANCH   3  15
HETATM   15  C3  UNL     1     -76.711  39.629 129.977  1.00  0.00     0.017 A 
HETATM   16  C4  UNL     1     -75.823  40.693 130.003  1.00  0.00     0.037 A 
HETATM   17  C5  UNL     1     -76.188  41.990 130.193  1.00  0.00     0.046 A 
HETATM   18 BR1  UNL     1     -74.965  43.446 130.229  1.00  0.00    -0.048 Br
HETATM   19  C6  UNL     1     -77.527  42.271 130.370  1.00  0.00     0.103 A 
HETATM   20  C7  UNL     1     -78.454  41.248 130.352  1.00  0.00     0.079 A 
HETATM   21 BR2  UNL     1     -80.313  41.567 130.590  1.00  0.00    -0.045 Br
HETATM   22  C8  UNL     1     -78.046  39.933 130.156  1.00  0.00     0.097 A 
BRANCH  19  23
HETATM   23  O2  UNL     1     -77.942  43.593 130.567  1.00  0.00    -0.358 OA
ATOM     24  H2  UNL     1     -78.838  43.774 130.827  1.00  0.00     0.217 HD
ENDBRANCH  19  23
BRANCH  22  25
HETATM   25  O3  UNL     1     -78.970  38.899 130.137  1.00  0.00    -0.358 OA
ATOM     26  H3  UNL     1     -79.891  39.115 130.053  1.00  0.00     0.217 HD
ENDBRANCH  22  25
ENDBRANCH   3  15
TORSDOF 5
ENDMDL
