MODEL 6
REMARK VINA RESULT: -5.204797306      1.179      1.205
REMARK  3 active torsions:
REMARK  status: ('A' for Active; 'I' for Inactive)
REMARK    1  A    between atoms: C2_2  and  O1_3 
REMARK    2  A    between atoms: C2_2  and  C3_8 
REMARK    3  A    between atoms: O1_3  and  P1_4 
ROOT
HETATM    1  C1  UNL     1      20.932   4.743  19.888  1.00  0.00     0.059 C 
HETATM    2  C2  UNL     1      20.629   4.969  21.142  1.00  0.00     0.149 C 
ENDROOT
BRANCH   2   3
HETATM    3  O1  UNL     1      21.293   4.348  22.202  1.00  0.00    -0.234 OA
BRANCH   3   4
HETATM    4  P1  UNL     1      21.270   2.653  22.422  1.00  0.00     0.427 P 
HETATM    5  O2  UNL     1      20.726   2.390  23.808  1.00  0.00    -0.617 OA
HETATM    6  O3  UNL     1      22.806   1.972  22.303  1.00  0.00    -0.617 OA
HETATM    7  O4  UNL     1      20.240   1.915  21.276  1.00  0.00    -0.617 OA
ENDBRANCH   3   4
ENDBRANCH   2   3
BRANCH   2   8
HETATM    8  C3  UNL     1      19.555   5.909  21.439  1.00  0.00     0.233 C 
HETATM    9  O5  UNL     1      18.721   5.715  22.363  1.00  0.00    -0.642 OA
HETATM   10  O6  UNL     1      19.423   7.056  20.696  1.00  0.00    -0.642 OA
ENDBRANCH   2   8
TORSDOF 3
ENDMDL
