MODEL 5
REMARK VINA RESULT: -5.274656533      1.184      1.906
REMARK  3 active torsions:
REMARK  status: ('A' for Active; 'I' for Inactive)
REMARK    1  A    between atoms: C2_2  and  O1_3 
REMARK    2  A    between atoms: C2_2  and  C3_8 
REMARK    3  A    between atoms: O1_3  and  P1_4 
ROOT
HETATM    1  C1  UNL     1      20.956   4.683  19.858  1.00  0.00     0.059 C 
HETATM    2  C2  UNL     1      20.681   4.870  21.126  1.00  0.00     0.149 C 
ENDROOT
BRANCH   2   3
HETATM    3  O1  UNL     1      21.368   4.215  22.150  1.00  0.00    -0.234 OA
BRANCH   3   4
HETATM    4  P1  UNL     1      21.203   2.536  22.427  1.00  0.00     0.427 P 
HETATM    5  O2  UNL     1      22.581   1.925  22.299  1.00  0.00    -0.617 OA
HETATM    6  O3  UNL     1      20.177   1.802  21.311  1.00  0.00    -0.617 OA
HETATM    7  O4  UNL     1      20.615   2.245  24.003  1.00  0.00    -0.617 OA
ENDBRANCH   3   4
ENDBRANCH   2   3
BRANCH   2   8
HETATM    8  C3  UNL     1      19.616   5.802  21.475  1.00  0.00     0.233 C 
HETATM    9  O5  UNL     1      18.811   5.587  22.420  1.00  0.00    -0.642 OA
HETATM   10  O6  UNL     1      19.462   6.966  20.762  1.00  0.00    -0.642 OA
ENDBRANCH   2   8
TORSDOF 3
ENDMDL
