MODEL 3
REMARK VINA RESULT: -5.451335857      0.108      1.454
REMARK  3 active torsions:
REMARK  status: ('A' for Active; 'I' for Inactive)
REMARK    1  A    between atoms: C2_2  and  O1_3 
REMARK    2  A    between atoms: C2_2  and  C3_8 
REMARK    3  A    between atoms: O1_3  and  P1_4 
ROOT
HETATM    1  C1  UNL     1      21.761   5.704  20.747  1.00  0.00     0.059 C 
HETATM    2  C2  UNL     1      20.523   5.327  20.957  1.00  0.00     0.149 C 
ENDROOT
BRANCH   2   3
HETATM    3  O1  UNL     1      20.095   4.010  20.776  1.00  0.00    -0.234 OA
BRANCH   3   4
HETATM    4  P1  UNL     1      20.237   2.830  22.005  1.00  0.00     0.427 P 
HETATM    5  O2  UNL     1      21.534   3.099  22.736  1.00  0.00    -0.617 OA
HETATM    6  O3  UNL     1      20.277   1.265  21.386  1.00  0.00    -0.617 OA
HETATM    7  O4  UNL     1      18.943   2.962  23.112  1.00  0.00    -0.617 OA
ENDBRANCH   3   4
ENDBRANCH   2   3
BRANCH   2   8
HETATM    8  C3  UNL     1      19.559   6.327  21.399  1.00  0.00     0.233 C 
HETATM    9  O5  UNL     1      18.959   6.248  22.504  1.00  0.00    -0.642 OA
HETATM   10  O6  UNL     1      19.274   7.405  20.598  1.00  0.00    -0.642 OA
ENDBRANCH   2   8
TORSDOF 3
ENDMDL
