MODEL 8
REMARK VINA RESULT: -4.942221496      4.319      5.771
REMARK  3 active torsions:
REMARK  status: ('A' for Active; 'I' for Inactive)
REMARK    1  A    between atoms: C2_2  and  O1_3 
REMARK    2  A    between atoms: C2_2  and  C3_8 
REMARK    3  A    between atoms: O1_3  and  P1_4 
ROOT
HETATM    1  C1  UNL     1      23.028   0.486  25.424  1.00  0.00     0.059 C 
HETATM    2  C2  UNL     1      23.051   1.786  25.264  1.00  0.00     0.149 C 
ENDROOT
BRANCH   2   3
HETATM    3  O1  UNL     1      22.114   2.467  24.485  1.00  0.00    -0.234 OA
BRANCH   3   4
HETATM    4  P1  UNL     1      22.167   2.452  22.776  1.00  0.00     0.427 P 
HETATM    5  O2  UNL     1      23.623   2.369  22.376  1.00  0.00    -0.617 OA
HETATM    6  O3  UNL     1      21.498   3.844  22.104  1.00  0.00    -0.617 OA
HETATM    7  O4  UNL     1      21.348   1.085  22.164  1.00  0.00    -0.617 OA
ENDBRANCH   3   4
ENDBRANCH   2   3
BRANCH   2   8
HETATM    8  C3  UNL     1      24.100   2.548  25.930  1.00  0.00     0.233 C 
HETATM    9  O5  UNL     1      23.879   3.646  26.507  1.00  0.00    -0.642 OA
HETATM   10  O6  UNL     1      25.389   2.075  25.942  1.00  0.00    -0.642 OA
ENDBRANCH   2   8
TORSDOF 3
ENDMDL
