MODEL 11
REMARK VINA RESULT: -4.813348923      4.391      5.853
REMARK  3 active torsions:
REMARK  status: ('A' for Active; 'I' for Inactive)
REMARK    1  A    between atoms: C2_2  and  O1_3 
REMARK    2  A    between atoms: C2_2  and  C3_8 
REMARK    3  A    between atoms: O1_3  and  P1_4 
ROOT
HETATM    1  C1  UNL     1      24.203   0.436  25.058  1.00  0.00     0.059 C 
HETATM    2  C2  UNL     1      24.215   1.695  24.697  1.00  0.00     0.149 C 
ENDROOT
BRANCH   2   3
HETATM    3  O1  UNL     1      23.786   2.122  23.438  1.00  0.00    -0.234 OA
BRANCH   3   4
HETATM    4  P1  UNL     1      22.129   2.278  23.046  1.00  0.00     0.427 P 
HETATM    5  O2  UNL     1      21.772   1.116  22.146  1.00  0.00    -0.617 OA
HETATM    6  O3  UNL     1      21.797   3.716  22.235  1.00  0.00    -0.617 OA
HETATM    7  O4  UNL     1      21.171   2.196  24.457  1.00  0.00    -0.617 OA
ENDBRANCH   3   4
ENDBRANCH   2   3
BRANCH   2   8
HETATM    8  C3  UNL     1      24.696   2.687  25.650  1.00  0.00     0.233 C 
HETATM    9  O5  UNL     1      25.915   2.808  25.945  1.00  0.00    -0.642 OA
HETATM   10  O6  UNL     1      23.808   3.534  26.266  1.00  0.00    -0.642 OA
ENDBRANCH   2   8
TORSDOF 3
ENDMDL
