MODEL 1
REMARK VINA RESULT: -5.556472682      0.000      0.000
REMARK  3 active torsions:
REMARK  status: ('A' for Active; 'I' for Inactive)
REMARK    1  A    between atoms: C2_2  and  O1_3 
REMARK    2  A    between atoms: C2_2  and  C3_8 
REMARK    3  A    between atoms: O1_3  and  P1_4 
ROOT
HETATM    1  C1  UNL     1      21.743   5.661  20.709  1.00  0.00     0.059 C 
HETATM    2  C2  UNL     1      20.505   5.311  20.957  1.00  0.00     0.149 C 
ENDROOT
BRANCH   2   3
HETATM    3  O1  UNL     1      20.050   3.999  20.812  1.00  0.00    -0.234 OA
BRANCH   3   4
HETATM    4  P1  UNL     1      20.276   2.816  22.026  1.00  0.00     0.427 P 
HETATM    5  O2  UNL     1      19.119   2.941  22.991  1.00  0.00    -0.617 OA
HETATM    6  O3  UNL     1      21.716   3.037  22.872  1.00  0.00    -0.617 OA
HETATM    7  O4  UNL     1      20.261   1.250  21.345  1.00  0.00    -0.617 OA
ENDBRANCH   3   4
ENDBRANCH   2   3
BRANCH   2   8
HETATM    8  C3  UNL     1      19.569   6.335  21.404  1.00  0.00     0.233 C 
HETATM    9  O5  UNL     1      18.997   6.288  22.525  1.00  0.00    -0.642 OA
HETATM   10  O6  UNL     1      19.283   7.403  20.590  1.00  0.00    -0.642 OA
ENDBRANCH   2   8
TORSDOF 3
ENDMDL
