MODEL 2
REMARK VINA RESULT: -5.544482850      0.101      1.456
REMARK  3 active torsions:
REMARK  status: ('A' for Active; 'I' for Inactive)
REMARK    1  A    between atoms: C2_2  and  O1_3 
REMARK    2  A    between atoms: C2_2  and  C3_8 
REMARK    3  A    between atoms: O1_3  and  P1_4 
ROOT
HETATM    1  C1  UNL     1      21.747   5.655  20.706  1.00  0.00     0.059 C 
HETATM    2  C2  UNL     1      20.516   5.282  20.954  1.00  0.00     0.149 C 
ENDROOT
BRANCH   2   3
HETATM    3  O1  UNL     1      20.083   3.963  20.803  1.00  0.00    -0.234 OA
BRANCH   3   4
HETATM    4  P1  UNL     1      20.255   2.800  22.044  1.00  0.00     0.427 P 
HETATM    5  O2  UNL     1      20.247   1.439  21.386  1.00  0.00    -0.617 OA
HETATM    6  O3  UNL     1      18.999   2.870  23.164  1.00  0.00    -0.617 OA
HETATM    7  O4  UNL     1      21.742   3.010  22.857  1.00  0.00    -0.617 OA
ENDBRANCH   3   4
ENDBRANCH   2   3
BRANCH   2   8
HETATM    8  C3  UNL     1      19.563   6.288  21.405  1.00  0.00     0.233 C 
HETATM    9  O5  UNL     1      18.972   6.212  22.515  1.00  0.00    -0.642 OA
HETATM   10  O6  UNL     1      19.281   7.371  20.610  1.00  0.00    -0.642 OA
ENDBRANCH   2   8
TORSDOF 3
ENDMDL
