MODEL 13
REMARK VINA RESULT: -4.765281028      4.396      5.840
REMARK  3 active torsions:
REMARK  status: ('A' for Active; 'I' for Inactive)
REMARK    1  A    between atoms: C2_2  and  O1_3 
REMARK    2  A    between atoms: C2_2  and  C3_8 
REMARK    3  A    between atoms: O1_3  and  P1_4 
ROOT
HETATM    1  C1  UNL     1      21.625   0.816  24.345  1.00  0.00     0.059 C 
HETATM    2  C2  UNL     1      22.256   1.965  24.313  1.00  0.00     0.149 C 
ENDROOT
BRANCH   2   3
HETATM    3  O1  UNL     1      22.657   2.636  25.470  1.00  0.00    -0.234 OA
BRANCH   3   4
HETATM    4  P1  UNL     1      24.174   2.355  26.205  1.00  0.00     0.427 P 
HETATM    5  O2  UNL     1      25.216   3.056  25.363  1.00  0.00    -0.617 OA
HETATM    6  O3  UNL     1      24.552   0.715  26.284  1.00  0.00    -0.617 OA
HETATM    7  O4  UNL     1      24.205   3.013  27.781  1.00  0.00    -0.617 OA
ENDBRANCH   3   4
ENDBRANCH   2   3
BRANCH   2   8
HETATM    8  C3  UNL     1      22.548   2.560  23.015  1.00  0.00     0.233 C 
HETATM    9  O5  UNL     1      23.593   2.290  22.366  1.00  0.00    -0.642 OA
HETATM   10  O6  UNL     1      21.667   3.453  22.457  1.00  0.00    -0.642 OA
ENDBRANCH   2   8
TORSDOF 3
ENDMDL
