MODEL 10
REMARK VINA RESULT: -6.530539680      3.696      6.311
REMARK  11 active torsions:
REMARK  status: ('A' for Active; 'I' for Inactive)
REMARK    1  A    between atoms: N1_1  and  C1_5 
REMARK    2  A    between atoms: C1_5  and  C2_6 
REMARK    3  A    between atoms: C1_5  and  C10_26 
REMARK    4  A    between atoms: C2_6  and  C3_7 
REMARK    5  A    between atoms: C3_7  and  C4_8 
REMARK       I    between atoms: C4_8  and  N2_10 
REMARK    6  A    between atoms: N2_10  and  C5_12 
REMARK    7  A    between atoms: C5_12  and  C6_13 
REMARK    8  A    between atoms: C5_12  and  C7_18 
REMARK    9  A    between atoms: C6_13  and  S1_14 
REMARK       I    between atoms: C7_18  and  N3_20 
REMARK   10  A    between atoms: N3_20  and  C8_22 
REMARK   11  A    between atoms: C8_22  and  C9_23 
ROOT
HETATM    1  C4  UNL     1      55.439  13.869  17.971  1.00  0.00     0.218 C 
HETATM    2  O1  UNL     1      54.418  14.534  17.694  1.00  0.00    -0.274 OA
HETATM    3  N2  UNL     1      55.571  12.569  17.432  1.00  0.00    -0.347 N 
ATOM      4  H2  UNL     1      56.410  12.037  17.664  1.00  0.00     0.163 HD
ENDROOT
BRANCH   3   5
HETATM    5  C5  UNL     1      54.592  11.953  16.575  1.00  0.00     0.193 C 
BRANCH   5   6
HETATM    6  C6  UNL     1      55.294  11.358  15.375  1.00  0.00     0.200 C 
BRANCH   6   7
HETATM    7  S1  UNL     1      56.186  12.582  14.464  1.00  0.00     0.104 S 
HETATM    8  O2  UNL     1      57.512  12.889  15.087  1.00  0.00    -0.595 OA
HETATM    9  O3  UNL     1      56.364  12.208  13.020  1.00  0.00    -0.595 OA
HETATM   10  O4  UNL     1      55.282  14.002  14.500  1.00  0.00    -0.595 OA
ENDBRANCH   6   7
ENDBRANCH   5   6
BRANCH   5  11
HETATM   11  C7  UNL     1      53.771  10.945  17.253  1.00  0.00     0.241 C 
HETATM   12  O5  UNL     1      54.105  10.486  18.376  1.00  0.00    -0.271 OA
HETATM   13  N3  UNL     1      52.584  10.494  16.612  1.00  0.00    -0.349 N 
ATOM     14  H3  UNL     1      52.301  10.857  15.701  1.00  0.00     0.163 HD
BRANCH  13  15
HETATM   15  C8  UNL     1      51.795   9.498  17.309  1.00  0.00     0.235 C 
BRANCH  15  16
HETATM   16  C9  UNL     1      50.447  10.049  17.563  1.00  0.00     0.191 C 
HETATM   17  O6  UNL     1      50.254  11.281  17.568  1.00  0.00    -0.647 OA
HETATM   18  O7  UNL     1      49.399   9.197  17.797  1.00  0.00    -0.647 OA
ENDBRANCH  15  16
ENDBRANCH  13  15
ENDBRANCH   5  11
ENDBRANCH   3   5
BRANCH   1  19
HETATM   19  C3  UNL     1      56.501  14.414  18.842  1.00  0.00     0.105 C 
BRANCH  19  20
HETATM   20  C2  UNL     1      56.007  14.523  20.279  1.00  0.00     0.053 C 
BRANCH  20  21
HETATM   21  C1  UNL     1      55.975  15.963  20.730  1.00  0.00     0.283 C 
BRANCH  21  22
HETATM   22  N1  UNL     1      54.945  16.682  20.031  1.00  0.00    -0.065 N 
ATOM     23  H13 UNL     1      55.273  17.043  19.135  1.00  0.00     0.275 HD
ATOM     24  H12 UNL     1      54.215  16.059  19.684  1.00  0.00     0.275 HD
ATOM     25  H11 UNL     1      54.565  17.421  20.623  1.00  0.00     0.275 HD
ENDBRANCH  21  22
BRANCH  21  26
HETATM   26  C10 UNL     1      57.285  16.584  20.427  1.00  0.00     0.204 C 
HETATM   27  O8  UNL     1      57.335  17.521  19.594  1.00  0.00    -0.646 OA
HETATM   28  O9  UNL     1      58.463  16.145  21.051  1.00  0.00    -0.646 OA
ENDBRANCH  21  26
ENDBRANCH  20  21
ENDBRANCH  19  20
ENDBRANCH   1  19
TORSDOF 11
ENDMDL
