MODEL 3
REMARK VINA RESULT: -6.755440580      5.763      8.741
REMARK  11 active torsions:
REMARK  status: ('A' for Active; 'I' for Inactive)
REMARK    1  A    between atoms: N1_1  and  C1_5 
REMARK    2  A    between atoms: C1_5  and  C2_6 
REMARK    3  A    between atoms: C1_5  and  C10_26 
REMARK    4  A    between atoms: C2_6  and  C3_7 
REMARK    5  A    between atoms: C3_7  and  C4_8 
REMARK       I    between atoms: C4_8  and  N2_10 
REMARK    6  A    between atoms: N2_10  and  C5_12 
REMARK    7  A    between atoms: C5_12  and  C6_13 
REMARK    8  A    between atoms: C5_12  and  C7_18 
REMARK    9  A    between atoms: C6_13  and  S1_14 
REMARK       I    between atoms: C7_18  and  N3_20 
REMARK   10  A    between atoms: N3_20  and  C8_22 
REMARK   11  A    between atoms: C8_22  and  C9_23 
ROOT
HETATM    1  C4  UNL     1      58.024  17.209  20.894  1.00  0.00     0.218 C 
HETATM    2  O1  UNL     1      58.501  16.118  20.517  1.00  0.00    -0.274 OA
HETATM    3  N2  UNL     1      56.626  17.405  20.814  1.00  0.00    -0.347 N 
ATOM      4  H2  UNL     1      56.248  18.299  21.126  1.00  0.00     0.163 HD
ENDROOT
BRANCH   3   5
HETATM    5  C5  UNL     1      55.706  16.416  20.318  1.00  0.00     0.193 C 
BRANCH   5   6
HETATM    6  C6  UNL     1      55.801  16.368  18.809  1.00  0.00     0.200 C 
BRANCH   6   7
HETATM    7  S1  UNL     1      55.119  17.818  18.063  1.00  0.00     0.104 S 
HETATM    8  O2  UNL     1      55.197  17.768  16.569  1.00  0.00    -0.595 OA
HETATM    9  O3  UNL     1      53.707  18.079  18.502  1.00  0.00    -0.595 OA
HETATM   10  O4  UNL     1      56.045  19.131  18.564  1.00  0.00    -0.595 OA
ENDBRANCH   6   7
ENDBRANCH   5   6
BRANCH   5  11
HETATM   11  C7  UNL     1      55.907  15.084  20.897  1.00  0.00     0.241 C 
HETATM   12  O5  UNL     1      55.892  14.055  20.175  1.00  0.00    -0.271 OA
HETATM   13  N3  UNL     1      56.120  14.980  22.300  1.00  0.00    -0.349 N 
ATOM     14  H3  UNL     1      56.134  15.806  22.899  1.00  0.00     0.163 HD
BRANCH  13  15
HETATM   15  C8  UNL     1      56.316  13.650  22.841  1.00  0.00     0.235 C 
BRANCH  15  16
HETATM   16  C9  UNL     1      55.539  13.524  24.092  1.00  0.00     0.191 C 
HETATM   17  O6  UNL     1      54.460  12.899  24.111  1.00  0.00    -0.647 OA
HETATM   18  O7  UNL     1      56.008  14.102  25.243  1.00  0.00    -0.647 OA
ENDBRANCH  15  16
ENDBRANCH  13  15
ENDBRANCH   5  11
ENDBRANCH   3   5
BRANCH   1  19
HETATM   19  C3  UNL     1      58.887  18.289  21.419  1.00  0.00     0.105 C 
BRANCH  19  20
HETATM   20  C2  UNL     1      58.360  19.650  20.985  1.00  0.00     0.053 C 
BRANCH  20  21
HETATM   21  C1  UNL     1      58.097  20.533  22.181  1.00  0.00     0.283 C 
BRANCH  21  22
HETATM   22  N1  UNL     1      56.725  20.419  22.594  1.00  0.00    -0.065 N 
ATOM     23  H13 UNL     1      56.294  21.332  22.740  1.00  0.00     0.275 HD
ATOM     24  H12 UNL     1      56.126  20.089  21.836  1.00  0.00     0.275 HD
ATOM     25  H11 UNL     1      56.652  19.827  23.421  1.00  0.00     0.275 HD
ENDBRANCH  21  22
BRANCH  21  26
HETATM   26  C10 UNL     1      58.370  21.938  21.801  1.00  0.00     0.204 C 
HETATM   27  O8  UNL     1      59.471  22.450  22.118  1.00  0.00    -0.646 OA
HETATM   28  O9  UNL     1      57.426  22.701  21.096  1.00  0.00    -0.646 OA
ENDBRANCH  21  26
ENDBRANCH  20  21
ENDBRANCH  19  20
ENDBRANCH   1  19
TORSDOF 11
ENDMDL
