MODEL 12
REMARK VINA RESULT: -6.524476128      3.652      6.276
REMARK  11 active torsions:
REMARK  status: ('A' for Active; 'I' for Inactive)
REMARK    1  A    between atoms: N1_1  and  C1_5 
REMARK    2  A    between atoms: C1_5  and  C2_6 
REMARK    3  A    between atoms: C1_5  and  C10_26 
REMARK    4  A    between atoms: C2_6  and  C3_7 
REMARK    5  A    between atoms: C3_7  and  C4_8 
REMARK       I    between atoms: C4_8  and  N2_10 
REMARK    6  A    between atoms: N2_10  and  C5_12 
REMARK    7  A    between atoms: C5_12  and  C6_13 
REMARK    8  A    between atoms: C5_12  and  C7_18 
REMARK    9  A    between atoms: C6_13  and  S1_14 
REMARK       I    between atoms: C7_18  and  N3_20 
REMARK   10  A    between atoms: N3_20  and  C8_22 
REMARK   11  A    between atoms: C8_22  and  C9_23 
ROOT
HETATM    1  C4  UNL     1      55.378  13.846  17.930  1.00  0.00     0.218 C 
HETATM    2  O1  UNL     1      54.367  14.523  17.647  1.00  0.00    -0.274 OA
HETATM    3  N2  UNL     1      55.483  12.534  17.414  1.00  0.00    -0.347 N 
ATOM      4  H2  UNL     1      56.313  11.990  17.650  1.00  0.00     0.163 HD
ENDROOT
BRANCH   3   5
HETATM    5  C5  UNL     1      54.487  11.920  16.576  1.00  0.00     0.193 C 
BRANCH   5   6
HETATM    6  C6  UNL     1      55.165  11.333  15.357  1.00  0.00     0.200 C 
BRANCH   6   7
HETATM    7  S1  UNL     1      56.160  12.531  14.520  1.00  0.00     0.104 S 
HETATM    8  O2  UNL     1      55.479  13.861  14.432  1.00  0.00    -0.595 OA
HETATM    9  O3  UNL     1      57.519  12.682  15.140  1.00  0.00    -0.595 OA
HETATM   10  O4  UNL     1      56.391  11.987  12.944  1.00  0.00    -0.595 OA
ENDBRANCH   6   7
ENDBRANCH   5   6
BRANCH   5  11
HETATM   11  C7  UNL     1      53.684  10.906  17.265  1.00  0.00     0.241 C 
HETATM   12  O5  UNL     1      54.066  10.407  18.355  1.00  0.00    -0.271 OA
HETATM   13  N3  UNL     1      52.456  10.496  16.674  1.00  0.00    -0.349 N 
ATOM     14  H3  UNL     1      52.133  10.891  15.791  1.00  0.00     0.163 HD
BRANCH  13  15
HETATM   15  C8  UNL     1      51.685   9.493  17.381  1.00  0.00     0.235 C 
BRANCH  15  16
HETATM   16  C9  UNL     1      50.325  10.018  17.621  1.00  0.00     0.191 C 
HETATM   17  O6  UNL     1      50.127  11.243  17.734  1.00  0.00    -0.647 OA
HETATM   18  O7  UNL     1      49.270   9.148  17.722  1.00  0.00    -0.647 OA
ENDBRANCH  15  16
ENDBRANCH  13  15
ENDBRANCH   5  11
ENDBRANCH   3   5
BRANCH   1  19
HETATM   19  C3  UNL     1      56.456  14.387  18.784  1.00  0.00     0.105 C 
BRANCH  19  20
HETATM   20  C2  UNL     1      55.906  15.453  19.723  1.00  0.00     0.053 C 
BRANCH  20  21
HETATM   21  C1  UNL     1      55.849  14.945  21.143  1.00  0.00     0.283 C 
BRANCH  21  22
HETATM   22  N1  UNL     1      55.151  15.882  21.980  1.00  0.00    -0.065 N 
ATOM     23  H13 UNL     1      54.349  16.294  21.503  1.00  0.00     0.275 HD
ATOM     24  H12 UNL     1      54.652  15.416  22.738  1.00  0.00     0.275 HD
ATOM     25  H11 UNL     1      55.794  16.593  22.327  1.00  0.00     0.275 HD
ENDBRANCH  21  22
BRANCH  21  26
HETATM   26  C10 UNL     1      57.234  14.788  21.646  1.00  0.00     0.204 C 
HETATM   27  O8  UNL     1      58.050  15.726  21.477  1.00  0.00    -0.646 OA
HETATM   28  O9  UNL     1      57.645  13.618  22.302  1.00  0.00    -0.646 OA
ENDBRANCH  21  26
ENDBRANCH  20  21
ENDBRANCH  19  20
ENDBRANCH   1  19
TORSDOF 11
ENDMDL
