MODEL 2
REMARK VINA RESULT: -6.778264047      2.208      3.429
REMARK  11 active torsions:
REMARK  status: ('A' for Active; 'I' for Inactive)
REMARK    1  A    between atoms: N1_1  and  C1_5 
REMARK    2  A    between atoms: C1_5  and  C2_6 
REMARK    3  A    between atoms: C1_5  and  C10_26 
REMARK    4  A    between atoms: C2_6  and  C3_7 
REMARK    5  A    between atoms: C3_7  and  C4_8 
REMARK       I    between atoms: C4_8  and  N2_10 
REMARK    6  A    between atoms: N2_10  and  C5_12 
REMARK    7  A    between atoms: C5_12  and  C6_13 
REMARK    8  A    between atoms: C5_12  and  C7_18 
REMARK    9  A    between atoms: C6_13  and  S1_14 
REMARK       I    between atoms: C7_18  and  N3_20 
REMARK   10  A    between atoms: N3_20  and  C8_22 
REMARK   11  A    between atoms: C8_22  and  C9_23 
ROOT
HETATM    1  C4  UNL     1      55.327  14.337  17.896  1.00  0.00     0.218 C 
HETATM    2  O1  UNL     1      54.898  13.178  18.077  1.00  0.00    -0.274 OA
HETATM    3  N2  UNL     1      55.606  14.761  16.577  1.00  0.00    -0.347 N 
ATOM      4  H2  UNL     1      55.955  15.710  16.441  1.00  0.00     0.163 HD
ENDROOT
BRANCH   3   5
HETATM    5  C5  UNL     1      55.427  13.932  15.414  1.00  0.00     0.193 C 
BRANCH   5   6
HETATM    6  C6  UNL     1      54.573  14.673  14.409  1.00  0.00     0.200 C 
BRANCH   6   7
HETATM    7  S1  UNL     1      54.505  16.405  14.757  1.00  0.00     0.104 S 
HETATM    8  O2  UNL     1      53.674  16.700  15.965  1.00  0.00    -0.595 OA
HETATM    9  O3  UNL     1      55.869  17.016  14.901  1.00  0.00    -0.595 OA
HETATM   10  O4  UNL     1      53.761  17.157  13.448  1.00  0.00    -0.595 OA
ENDBRANCH   6   7
ENDBRANCH   5   6
BRANCH   5  11
HETATM   11  C7  UNL     1      56.687  13.494  14.807  1.00  0.00     0.241 C 
HETATM   12  O5  UNL     1      57.189  12.377  15.093  1.00  0.00    -0.271 OA
HETATM   13  N3  UNL     1      57.334  14.362  13.884  1.00  0.00    -0.349 N 
ATOM     14  H3  UNL     1      56.939  15.271  13.642  1.00  0.00     0.163 HD
BRANCH  13  15
HETATM   15  C8  UNL     1      58.577  13.899  13.301  1.00  0.00     0.235 C 
BRANCH  15  16
HETATM   16  C9  UNL     1      58.425  13.845  11.832  1.00  0.00     0.191 C 
HETATM   17  O6  UNL     1      58.257  14.888  11.171  1.00  0.00    -0.647 OA
HETATM   18  O7  UNL     1      58.467  12.634  11.191  1.00  0.00    -0.647 OA
ENDBRANCH  15  16
ENDBRANCH  13  15
ENDBRANCH   5  11
ENDBRANCH   3   5
BRANCH   1  19
HETATM   19  C3  UNL     1      55.545  15.264  19.027  1.00  0.00     0.105 C 
BRANCH  19  20
HETATM   20  C2  UNL     1      55.871  14.489  20.296  1.00  0.00     0.053 C 
BRANCH  20  21
HETATM   21  C1  UNL     1      56.426  15.405  21.360  1.00  0.00     0.283 C 
BRANCH  21  22
HETATM   22  N1  UNL     1      55.849  16.716  21.240  1.00  0.00    -0.065 N 
ATOM     23  H13 UNL     1      56.072  17.149  20.343  1.00  0.00     0.275 HD
ATOM     24  H12 UNL     1      54.835  16.678  21.140  1.00  0.00     0.275 HD
ATOM     25  H11 UNL     1      56.132  17.300  22.026  1.00  0.00     0.275 HD
ENDBRANCH  21  22
BRANCH  21  26
HETATM   26  C10 UNL     1      57.893  15.506  21.181  1.00  0.00     0.204 C 
HETATM   27  O8  UNL     1      58.586  14.463  21.259  1.00  0.00    -0.646 OA
HETATM   28  O9  UNL     1      58.514  16.738  20.927  1.00  0.00    -0.646 OA
ENDBRANCH  21  26
ENDBRANCH  20  21
ENDBRANCH  19  20
ENDBRANCH   1  19
TORSDOF 11
ENDMDL
