MODEL 7
REMARK VINA RESULT: -6.394051225      2.581      6.729
REMARK  6 active torsions:
REMARK  status: ('A' for Active; 'I' for Inactive)
REMARK    1  A    between atoms: C2_2  and  C3_3 
REMARK    2  A    between atoms: C2_2  and  C5_5 
REMARK    3  A    between atoms: C5_5  and  C6_7 
REMARK    4  A    between atoms: C9_10  and  O2_11 
REMARK    5  A    between atoms: O2_11  and  C10_12 
REMARK    6  A    between atoms: C10_12  and  C11_13 
ROOT
HETATM    1  C6  UNL     1       6.908   2.627  29.176  1.00  0.00     0.038 A 
HETATM    2  C7  UNL     1       7.106   1.260  29.299  1.00  0.00     0.020 A 
HETATM    3  C8  UNL     1       6.787   0.585  30.465  1.00  0.00     0.039 A 
HETATM    4  C9  UNL     1       6.253   1.271  31.559  1.00  0.00     0.092 A 
HETATM    5  C12 UNL     1       6.069   2.610  31.413  1.00  0.00     0.090 A 
HETATM    6 CL1  UNL     1       5.385   3.506  32.785  1.00  0.00    -0.080 Cl
HETATM    7  C13 UNL     1       6.382   3.304  30.251  1.00  0.00     0.072 A 
HETATM    8 CL2  UNL     1       6.073   5.014  30.156  1.00  0.00    -0.081 Cl
ENDROOT
BRANCH   1   9
HETATM    9  C5  UNL     1       7.247   3.273  27.932  1.00  0.00     0.189 C 
HETATM   10  O1  UNL     1       6.330   3.269  27.038  1.00  0.00    -0.287 OA
BRANCH   9  11
HETATM   11  C2  UNL     1       8.490   3.917  27.590  1.00  0.00    -0.017 C 
HETATM   12  C1  UNL     1       8.552   5.264  27.515  1.00  0.00     0.023 C 
BRANCH  11  13
HETATM   13  C3  UNL     1       9.753   3.193  27.330  1.00  0.00     0.037 C 
HETATM   14  C4  UNL     1       9.548   1.870  26.598  1.00  0.00     0.010 C 
ENDBRANCH  11  13
ENDBRANCH   9  11
ENDBRANCH   1   9
BRANCH   4  15
HETATM   15  O2  UNL     1       5.944   0.599  32.702  1.00  0.00    -0.339 OA
BRANCH  15  16
HETATM   16  C10 UNL     1       6.807  -0.215  33.431  1.00  0.00     0.288 C 
BRANCH  16  17
HETATM   17  C11 UNL     1       6.191  -1.476  33.876  1.00  0.00     0.198 C 
HETATM   18  O3  UNL     1       5.641  -2.231  33.048  1.00  0.00    -0.646 OA
HETATM   19  O4  UNL     1       6.185  -1.896  35.222  1.00  0.00    -0.646 OA
ENDBRANCH  16  17
ENDBRANCH  15  16
ENDBRANCH   4  15
TORSDOF 6
ENDMDL
