MODEL 5
REMARK VINA RESULT: -6.421738572      1.538      6.662
REMARK  6 active torsions:
REMARK  status: ('A' for Active; 'I' for Inactive)
REMARK    1  A    between atoms: C2_2  and  C3_3 
REMARK    2  A    between atoms: C2_2  and  C5_5 
REMARK    3  A    between atoms: C5_5  and  C6_7 
REMARK    4  A    between atoms: C9_10  and  O2_11 
REMARK    5  A    between atoms: O2_11  and  C10_12 
REMARK    6  A    between atoms: C10_12  and  C11_13 
ROOT
HETATM    1  C6  UNL     1       8.893   2.879  27.270  1.00  0.00     0.038 A 
HETATM    2  C7  UNL     1       8.961   1.510  27.482  1.00  0.00     0.020 A 
HETATM    3  C8  UNL     1       8.121   0.876  28.382  1.00  0.00     0.039 A 
HETATM    4  C9  UNL     1       7.175   1.607  29.107  1.00  0.00     0.092 A 
HETATM    5  C12 UNL     1       7.128   2.946  28.879  1.00  0.00     0.090 A 
HETATM    6 CL1  UNL     1       5.930   3.897  29.779  1.00  0.00    -0.080 Cl
HETATM    7  C13 UNL     1       7.962   3.599  27.980  1.00  0.00     0.072 A 
HETATM    8 CL2  UNL     1       7.795   5.314  27.737  1.00  0.00    -0.081 Cl
ENDROOT
BRANCH   1   9
HETATM    9  C5  UNL     1       9.785   3.481  26.310  1.00  0.00     0.189 C 
HETATM   10  O1  UNL     1      10.846   4.010  26.795  1.00  0.00    -0.287 OA
BRANCH   9  11
HETATM   11  C2  UNL     1       9.616   3.552  24.880  1.00  0.00    -0.017 C 
HETATM   12  C1  UNL     1       8.562   4.215  24.359  1.00  0.00     0.023 C 
BRANCH  11  13
HETATM   13  C3  UNL     1      10.555   2.956  23.906  1.00  0.00     0.037 C 
HETATM   14  C4  UNL     1      10.268   1.486  23.616  1.00  0.00     0.010 C 
ENDBRANCH  11  13
ENDBRANCH   9  11
ENDBRANCH   1   9
BRANCH   4  15
HETATM   15  O2  UNL     1       6.354   0.974  29.990  1.00  0.00    -0.339 OA
BRANCH  15  16
HETATM   16  C10 UNL     1       6.761   0.212  31.082  1.00  0.00     0.288 C 
BRANCH  16  17
HETATM   17  C11 UNL     1       6.319   0.756  32.377  1.00  0.00     0.198 C 
HETATM   18  O3  UNL     1       5.553   1.741  32.413  1.00  0.00    -0.646 OA
HETATM   19  O4  UNL     1       6.720   0.216  33.615  1.00  0.00    -0.646 OA
ENDBRANCH  16  17
ENDBRANCH  15  16
ENDBRANCH   4  15
TORSDOF 6
ENDMDL
