MODEL 6
REMARK VINA RESULT: -6.400648134      2.389      6.714
REMARK  6 active torsions:
REMARK  status: ('A' for Active; 'I' for Inactive)
REMARK    1  A    between atoms: C2_2  and  C3_3 
REMARK    2  A    between atoms: C2_2  and  C5_5 
REMARK    3  A    between atoms: C5_5  and  C6_7 
REMARK    4  A    between atoms: C9_10  and  O2_11 
REMARK    5  A    between atoms: O2_11  and  C10_12 
REMARK    6  A    between atoms: C10_12  and  C11_13 
ROOT
HETATM    1  C6  UNL     1       7.339   2.144  28.735  1.00  0.00     0.038 A 
HETATM    2  C7  UNL     1       7.478   0.807  29.074  1.00  0.00     0.020 A 
HETATM    3  C8  UNL     1       7.045   0.323  30.297  1.00  0.00     0.039 A 
HETATM    4  C9  UNL     1       6.452   1.178  31.229  1.00  0.00     0.092 A 
HETATM    5  C12 UNL     1       6.326   2.484  30.872  1.00  0.00     0.090 A 
HETATM    6 CL1  UNL     1       5.568   3.590  32.034  1.00  0.00    -0.080 Cl
HETATM    7  C13 UNL     1       6.754   2.987  29.650  1.00  0.00     0.072 A 
HETATM    8 CL2  UNL     1       6.513   4.670  29.277  1.00  0.00    -0.081 Cl
ENDROOT
BRANCH   1   9
HETATM    9  C5  UNL     1       7.797   2.588  27.441  1.00  0.00     0.189 C 
HETATM   10  O1  UNL     1       6.878   2.881  26.598  1.00  0.00    -0.287 OA
BRANCH   9  11
HETATM   11  C2  UNL     1       9.160   2.739  26.998  1.00  0.00    -0.017 C 
HETATM   12  C1  UNL     1       9.683   1.860  26.116  1.00  0.00     0.023 C 
BRANCH  11  13
HETATM   13  C3  UNL     1      10.054   3.835  27.430  1.00  0.00     0.037 C 
HETATM   14  C4  UNL     1       9.430   5.218  27.268  1.00  0.00     0.010 C 
ENDBRANCH  11  13
ENDBRANCH   9  11
ENDBRANCH   1   9
BRANCH   4  15
HETATM   15  O2  UNL     1       6.030   0.692  32.429  1.00  0.00    -0.339 OA
BRANCH  15  16
HETATM   16  C10 UNL     1       6.799  -0.040  33.331  1.00  0.00     0.288 C 
BRANCH  16  17
HETATM   17  C11 UNL     1       6.186  -1.320  33.722  1.00  0.00     0.198 C 
HETATM   18  O3  UNL     1       5.620  -2.030  32.866  1.00  0.00    -0.646 OA
HETATM   19  O4  UNL     1       6.201  -1.807  35.044  1.00  0.00    -0.646 OA
ENDBRANCH  16  17
ENDBRANCH  15  16
ENDBRANCH   4  15
TORSDOF 6
ENDMDL
