MODEL 1
REMARK VINA RESULT: -7.935019299      0.000      0.000
REMARK  13 active torsions:
REMARK  status: ('A' for Active; 'I' for Inactive)
REMARK    1  A    between atoms: N1_1  and  C1_5 
REMARK    2  A    between atoms: C1_5  and  C2_6 
REMARK    3  A    between atoms: C1_5  and  C24_39 
REMARK    4  A    between atoms: C2_6  and  C3_7 
REMARK    5  A    between atoms: C3_7  and  C4_8 
REMARK       I    between atoms: C4_8  and  N2_10 
REMARK    6  A    between atoms: N2_10  and  C5_12 
REMARK    7  A    between atoms: C5_12  and  C6_13 
REMARK    8  A    between atoms: C5_12  and  C21_31 
REMARK    9  A    between atoms: C6_13  and  S1_14 
REMARK   10  A    between atoms: S1_14  and  C7_15 
REMARK   11  A    between atoms: C20_28  and  O2_29 
REMARK       I    between atoms: C21_31  and  N3_33 
REMARK   12  A    between atoms: N3_33  and  C22_35 
REMARK   13  A    between atoms: C22_35  and  C23_36 
ROOT
HETATM    1  C5  UNL     1      17.079  17.462  29.377  1.00  0.00     0.185 C 
ENDROOT
BRANCH   1   2
HETATM    2  N2  UNL     1      17.251  16.742  30.594  1.00  0.00    -0.347 N 
HETATM    3  C4  UNL     1      17.254  17.460  31.850  1.00  0.00     0.218 C 
HETATM    4  O1  UNL     1      17.105  18.704  31.823  1.00  0.00    -0.274 OA
ATOM      5  H2  UNL     1      17.371  15.729  30.580  1.00  0.00     0.163 HD
BRANCH   3   6
HETATM    6  C3  UNL     1      17.434  16.695  33.125  1.00  0.00     0.105 C 
BRANCH   6   7
HETATM    7  C2  UNL     1      16.453  15.571  33.230  1.00  0.00     0.053 C 
BRANCH   7   8
HETATM    8  C1  UNL     1      17.064  14.224  33.490  1.00  0.00     0.283 C 
BRANCH   8   9
HETATM    9  N1  UNL     1      17.038  13.469  32.221  1.00  0.00    -0.065 N 
ATOM     10  H13 UNL     1      16.099  13.376  31.833  1.00  0.00     0.275 HD
ATOM     11  H12 UNL     1      17.453  13.984  31.445  1.00  0.00     0.275 HD
ATOM     12  H11 UNL     1      17.489  12.570  32.387  1.00  0.00     0.275 HD
ENDBRANCH   8   9
BRANCH   8  13
HETATM   13  C24 UNL     1      16.406  13.447  34.551  1.00  0.00     0.204 C 
HETATM   14  O6  UNL     1      15.204  13.108  34.488  1.00  0.00    -0.646 OA
HETATM   15  O7  UNL     1      17.151  13.067  35.684  1.00  0.00    -0.646 OA
ENDBRANCH   8  13
ENDBRANCH   7   8
ENDBRANCH   6   7
ENDBRANCH   3   6
ENDBRANCH   1   2
BRANCH   1  16
HETATM   16  C6  UNL     1      18.313  17.834  28.628  1.00  0.00     0.109 C 
BRANCH  16  17
HETATM   17  S1  UNL     1      18.790  19.558  28.790  1.00  0.00    -0.154 SA
BRANCH  17  18
HETATM   18  C7  UNL     1      20.439  19.827  29.478  1.00  0.00     0.114 C 
HETATM   19  C8  UNL     1      20.336  20.829  30.566  1.00  0.00    -0.030 A 
HETATM   20  C9  UNL     1      20.146  22.164  30.233  1.00  0.00     0.009 A 
HETATM   21  C13 UNL     1      20.359  20.502  31.914  1.00  0.00    -0.018 A 
HETATM   22  C10 UNL     1      19.981  23.130  31.223  1.00  0.00     0.001 A 
HETATM   23  C11 UNL     1      20.003  22.799  32.547  1.00  0.00     0.001 A 
HETATM   24  C12 UNL     1      20.195  21.463  32.895  1.00  0.00     0.013 A 
HETATM   25  C14 UNL     1      20.645  19.121  32.301  1.00  0.00    -0.017 A 
HETATM   26  C15 UNL     1      20.632  18.715  33.625  1.00  0.00     0.013 A 
HETATM   27  C19 UNL     1      20.892  18.196  31.302  1.00  0.00    -0.017 A 
HETATM   28  C16 UNL     1      20.858  17.402  33.981  1.00  0.00     0.001 A 
HETATM   29  C17 UNL     1      21.102  16.476  32.989  1.00  0.00     0.001 A 
HETATM   30  C18 UNL     1      21.114  16.893  31.679  1.00  0.00     0.011 A 
HETATM   31  C20 UNL     1      20.979  18.504  29.878  1.00  0.00     0.170 C 
BRANCH  31  32
HETATM   32  O2  UNL     1      22.316  18.373  29.430  1.00  0.00    -0.389 OA
ATOM     33  H2  UNL     1      22.847  17.977  30.110  1.00  0.00     0.210 HD
ENDBRANCH  31  32
ENDBRANCH  17  18
ENDBRANCH  16  17
ENDBRANCH   1  16
BRANCH   1  34
HETATM   34  C21 UNL     1      16.169  16.739  28.431  1.00  0.00     0.241 C 
HETATM   35  O3  UNL     1      16.513  16.613  27.231  1.00  0.00    -0.271 OA
HETATM   36  N3  UNL     1      14.933  16.183  28.829  1.00  0.00    -0.349 N 
ATOM     37  H3  UNL     1      14.632  16.270  29.800  1.00  0.00     0.163 HD
BRANCH  36  38
HETATM   38  C22 UNL     1      14.069  15.479  27.861  1.00  0.00     0.235 C 
BRANCH  38  39
HETATM   39  C23 UNL     1      12.904  16.345  27.590  1.00  0.00     0.191 C 
HETATM   40  O4  UNL     1      12.878  17.222  26.687  1.00  0.00    -0.647 OA
HETATM   41  O5  UNL     1      11.747  16.210  28.362  1.00  0.00    -0.647 OA
ENDBRANCH  38  39
ENDBRANCH  36  38
ENDBRANCH   1  34
TORSDOF 13
ENDMDL
