MODEL 8
REMARK VINA RESULT: -7.508595842      2.849      5.846
REMARK  13 active torsions:
REMARK  status: ('A' for Active; 'I' for Inactive)
REMARK    1  A    between atoms: N1_1  and  C1_5 
REMARK    2  A    between atoms: C1_5  and  C2_6 
REMARK    3  A    between atoms: C1_5  and  C24_39 
REMARK    4  A    between atoms: C2_6  and  C3_7 
REMARK    5  A    between atoms: C3_7  and  C4_8 
REMARK       I    between atoms: C4_8  and  N2_10 
REMARK    6  A    between atoms: N2_10  and  C5_12 
REMARK    7  A    between atoms: C5_12  and  C6_13 
REMARK    8  A    between atoms: C5_12  and  C21_31 
REMARK    9  A    between atoms: C6_13  and  S1_14 
REMARK   10  A    between atoms: S1_14  and  C7_15 
REMARK   11  A    between atoms: C20_28  and  O2_29 
REMARK       I    between atoms: C21_31  and  N3_33 
REMARK   12  A    between atoms: N3_33  and  C22_35 
REMARK   13  A    between atoms: C22_35  and  C23_36 
ROOT
HETATM    1  C5  UNL     1      20.826  18.475  32.767  1.00  0.00     0.185 C 
ENDROOT
BRANCH   1   2
HETATM    2  N2  UNL     1      19.911  17.414  33.023  1.00  0.00    -0.347 N 
HETATM    3  C4  UNL     1      19.863  16.819  34.341  1.00  0.00     0.218 C 
HETATM    4  O1  UNL     1      20.639  17.262  35.221  1.00  0.00    -0.274 OA
ATOM      5  H2  UNL     1      19.295  17.077  32.284  1.00  0.00     0.163 HD
BRANCH   3   6
HETATM    6  C3  UNL     1      18.898  15.705  34.602  1.00  0.00     0.105 C 
BRANCH   6   7
HETATM    7  C2  UNL     1      18.099  15.377  33.380  1.00  0.00     0.053 C 
BRANCH   7   8
HETATM    8  C1  UNL     1      17.359  14.073  33.442  1.00  0.00     0.283 C 
BRANCH   8   9
HETATM    9  N1  UNL     1      17.151  13.611  32.054  1.00  0.00    -0.065 N 
ATOM     10  H13 UNL     1      16.165  13.518  31.810  1.00  0.00     0.275 HD
ATOM     11  H12 UNL     1      17.395  14.318  31.360  1.00  0.00     0.275 HD
ATOM     12  H11 UNL     1      17.673  12.743  31.936  1.00  0.00     0.275 HD
ENDBRANCH   8   9
BRANCH   8  13
HETATM   13  C24 UNL     1      16.073  14.130  34.150  1.00  0.00     0.204 C 
HETATM   14  O6  UNL     1      15.409  15.185  34.252  1.00  0.00    -0.646 OA
HETATM   15  O7  UNL     1      15.561  12.958  34.739  1.00  0.00    -0.646 OA
ENDBRANCH   8  13
ENDBRANCH   7   8
ENDBRANCH   6   7
ENDBRANCH   3   6
ENDBRANCH   1   2
BRANCH   1  16
HETATM   16  C6  UNL     1      21.687  18.352  31.557  1.00  0.00     0.109 C 
BRANCH  16  17
HETATM   17  S1  UNL     1      21.489  16.811  30.656  1.00  0.00    -0.154 SA
BRANCH  17  18
HETATM   18  C7  UNL     1      20.853  16.991  28.975  1.00  0.00     0.114 C 
HETATM   19  C8  UNL     1      19.375  17.089  29.040  1.00  0.00    -0.030 A 
HETATM   20  C9  UNL     1      18.637  15.943  29.305  1.00  0.00     0.009 A 
HETATM   21  C13 UNL     1      18.679  18.283  28.909  1.00  0.00    -0.018 A 
HETATM   22  C10 UNL     1      17.252  16.000  29.437  1.00  0.00     0.001 A 
HETATM   23  C11 UNL     1      16.575  17.179  29.309  1.00  0.00     0.001 A 
HETATM   24  C12 UNL     1      17.303  18.337  29.041  1.00  0.00     0.013 A 
HETATM   25  C14 UNL     1      19.415  19.493  28.543  1.00  0.00    -0.017 A 
HETATM   26  C15 UNL     1      18.792  20.726  28.448  1.00  0.00     0.013 A 
HETATM   27  C19 UNL     1      20.778  19.394  28.331  1.00  0.00    -0.017 A 
HETATM   28  C16 UNL     1      19.499  21.872  28.147  1.00  0.00     0.001 A 
HETATM   29  C17 UNL     1      20.858  21.778  27.937  1.00  0.00     0.001 A 
HETATM   30  C18 UNL     1      21.463  20.548  28.033  1.00  0.00     0.011 A 
HETATM   31  C20 UNL     1      21.543  18.151  28.357  1.00  0.00     0.170 C 
BRANCH  31  32
HETATM   32  O2  UNL     1      21.974  17.815  27.051  1.00  0.00    -0.389 OA
ATOM     33  H2  UNL     1      22.746  17.264  27.097  1.00  0.00     0.210 HD
ENDBRANCH  31  32
ENDBRANCH  17  18
ENDBRANCH  16  17
ENDBRANCH   1  16
BRANCH   1  34
HETATM   34  C21 UNL     1      20.131  19.801  32.703  1.00  0.00     0.241 C 
HETATM   35  O3  UNL     1      19.036  19.886  32.097  1.00  0.00    -0.271 OA
HETATM   36  N3  UNL     1      20.652  20.971  33.299  1.00  0.00    -0.349 N 
ATOM     37  H3  UNL     1      21.540  20.927  33.799  1.00  0.00     0.163 HD
BRANCH  36  38
HETATM   38  C22 UNL     1      19.930  22.255  33.208  1.00  0.00     0.235 C 
BRANCH  38  39
HETATM   39  C23 UNL     1      20.145  22.794  31.850  1.00  0.00     0.191 C 
HETATM   40  O4  UNL     1      19.213  23.165  31.089  1.00  0.00    -0.647 OA
HETATM   41  O5  UNL     1      21.444  22.911  31.348  1.00  0.00    -0.647 OA
ENDBRANCH  38  39
ENDBRANCH  36  38
ENDBRANCH   1  34
TORSDOF 13
ENDMDL
