MODEL 4
REMARK VINA RESULT: -7.720978327      3.521      6.906
REMARK  13 active torsions:
REMARK  status: ('A' for Active; 'I' for Inactive)
REMARK    1  A    between atoms: N1_1  and  C1_5 
REMARK    2  A    between atoms: C1_5  and  C2_6 
REMARK    3  A    between atoms: C1_5  and  C24_39 
REMARK    4  A    between atoms: C2_6  and  C3_7 
REMARK    5  A    between atoms: C3_7  and  C4_8 
REMARK       I    between atoms: C4_8  and  N2_10 
REMARK    6  A    between atoms: N2_10  and  C5_12 
REMARK    7  A    between atoms: C5_12  and  C6_13 
REMARK    8  A    between atoms: C5_12  and  C21_31 
REMARK    9  A    between atoms: C6_13  and  S1_14 
REMARK   10  A    between atoms: S1_14  and  C7_15 
REMARK   11  A    between atoms: C20_28  and  O2_29 
REMARK       I    between atoms: C21_31  and  N3_33 
REMARK   12  A    between atoms: N3_33  and  C22_35 
REMARK   13  A    between atoms: C22_35  and  C23_36 
ROOT
HETATM    1  C5  UNL     1      19.346  16.848  32.946  1.00  0.00     0.185 C 
ENDROOT
BRANCH   1   2
HETATM    2  N2  UNL     1      19.458  17.953  32.054  1.00  0.00    -0.347 N 
HETATM    3  C4  UNL     1      20.020  17.749  30.737  1.00  0.00     0.218 C 
HETATM    4  O1  UNL     1      20.394  16.595  30.424  1.00  0.00    -0.274 OA
ATOM      5  H2  UNL     1      19.144  18.880  32.342  1.00  0.00     0.163 HD
BRANCH   3   6
HETATM    6  C3  UNL     1      20.132  18.916  29.805  1.00  0.00     0.105 C 
BRANCH   6   7
HETATM    7  C2  UNL     1      19.180  20.007  30.179  1.00  0.00     0.053 C 
BRANCH   7   8
HETATM    8  C1  UNL     1      19.800  21.367  30.312  1.00  0.00     0.283 C 
BRANCH   8   9
HETATM    9  N1  UNL     1      20.820  21.498  29.252  1.00  0.00    -0.065 N 
ATOM     10  H13 UNL     1      21.488  20.726  29.245  1.00  0.00     0.275 HD
ATOM     11  H12 UNL     1      20.441  21.354  28.316  1.00  0.00     0.275 HD
ATOM     12  H11 UNL     1      21.267  22.408  29.363  1.00  0.00     0.275 HD
ENDBRANCH   8   9
BRANCH   8  13
HETATM   13  C24 UNL     1      20.401  21.642  31.625  1.00  0.00     0.204 C 
HETATM   14  O6  UNL     1      20.231  20.893  32.611  1.00  0.00    -0.646 OA
HETATM   15  O7  UNL     1      21.199  22.791  31.786  1.00  0.00    -0.646 OA
ENDBRANCH   8  13
ENDBRANCH   7   8
ENDBRANCH   6   7
ENDBRANCH   3   6
ENDBRANCH   1   2
BRANCH   1  16
HETATM   16  C6  UNL     1      20.004  16.981  34.277  1.00  0.00     0.109 C 
BRANCH  16  17
HETATM   17  S1  UNL     1      21.706  16.412  34.327  1.00  0.00    -0.154 SA
BRANCH  17  18
HETATM   18  C7  UNL     1      22.947  17.712  34.139  1.00  0.00     0.114 C 
HETATM   19  C8  UNL     1      24.247  17.194  34.628  1.00  0.00    -0.030 A 
HETATM   20  C9  UNL     1      24.446  17.061  35.995  1.00  0.00     0.009 A 
HETATM   21  C13 UNL     1      25.269  16.772  33.788  1.00  0.00    -0.018 A 
HETATM   22  C10 UNL     1      25.628  16.521  36.496  1.00  0.00     0.001 A 
HETATM   23  C11 UNL     1      26.627  16.106  35.663  1.00  0.00     0.001 A 
HETATM   24  C12 UNL     1      26.442  16.236  34.288  1.00  0.00     0.013 A 
HETATM   25  C14 UNL     1      25.129  16.979  32.347  1.00  0.00    -0.017 A 
HETATM   26  C15 UNL     1      26.086  16.535  31.449  1.00  0.00     0.013 A 
HETATM   27  C19 UNL     1      23.984  17.598  31.880  1.00  0.00    -0.017 A 
HETATM   28  C16 UNL     1      25.928  16.692  30.088  1.00  0.00     0.001 A 
HETATM   29  C17 UNL     1      24.787  17.307  29.617  1.00  0.00     0.001 A 
HETATM   30  C18 UNL     1      23.847  17.743  30.520  1.00  0.00     0.011 A 
HETATM   31  C20 UNL     1      22.926  18.149  32.721  1.00  0.00     0.170 C 
BRANCH  31  32
HETATM   32  O2  UNL     1      22.934  19.563  32.653  1.00  0.00    -0.389 OA
ATOM     33  H2  UNL     1      23.724  19.902  33.056  1.00  0.00     0.210 HD
ENDBRANCH  31  32
ENDBRANCH  17  18
ENDBRANCH  16  17
ENDBRANCH   1  16
BRANCH   1  34
HETATM   34  C21 UNL     1      17.916  16.466  33.177  1.00  0.00     0.241 C 
HETATM   35  O3  UNL     1      17.011  17.271  32.850  1.00  0.00    -0.271 OA
HETATM   36  N3  UNL     1      17.533  15.232  33.748  1.00  0.00    -0.349 N 
ATOM     37  H3  UNL     1      18.251  14.561  34.020  1.00  0.00     0.163 HD
BRANCH  36  38
HETATM   38  C22 UNL     1      16.110  14.901  33.956  1.00  0.00     0.235 C 
BRANCH  38  39
HETATM   39  C23 UNL     1      16.047  13.536  34.518  1.00  0.00     0.191 C 
HETATM   40  O4  UNL     1      15.145  12.704  34.236  1.00  0.00    -0.647 OA
HETATM   41  O5  UNL     1      17.028  13.112  35.417  1.00  0.00    -0.647 OA
ENDBRANCH  38  39
ENDBRANCH  36  38
ENDBRANCH   1  34
TORSDOF 13
ENDMDL
