MODEL 7
REMARK VINA RESULT: -7.550510325      1.970      5.603
REMARK  13 active torsions:
REMARK  status: ('A' for Active; 'I' for Inactive)
REMARK    1  A    between atoms: N1_1  and  C1_5 
REMARK    2  A    between atoms: C1_5  and  C2_6 
REMARK    3  A    between atoms: C1_5  and  C24_39 
REMARK    4  A    between atoms: C2_6  and  C3_7 
REMARK    5  A    between atoms: C3_7  and  C4_8 
REMARK       I    between atoms: C4_8  and  N2_10 
REMARK    6  A    between atoms: N2_10  and  C5_12 
REMARK    7  A    between atoms: C5_12  and  C6_13 
REMARK    8  A    between atoms: C5_12  and  C21_31 
REMARK    9  A    between atoms: C6_13  and  S1_14 
REMARK   10  A    between atoms: S1_14  and  C7_15 
REMARK   11  A    between atoms: C20_28  and  O2_29 
REMARK       I    between atoms: C21_31  and  N3_33 
REMARK   12  A    between atoms: N3_33  and  C22_35 
REMARK   13  A    between atoms: C22_35  and  C23_36 
ROOT
HETATM    1  C5  UNL     1      17.476  16.622  31.037  1.00  0.00     0.185 C 
ENDROOT
BRANCH   1   2
HETATM    2  N2  UNL     1      16.489  16.977  30.073  1.00  0.00    -0.347 N 
HETATM    3  C4  UNL     1      16.163  16.048  29.013  1.00  0.00     0.218 C 
HETATM    4  O1  UNL     1      16.768  14.950  28.980  1.00  0.00    -0.274 OA
ATOM      5  H2  UNL     1      16.016  17.879  30.129  1.00  0.00     0.163 HD
BRANCH   3   6
HETATM    6  C3  UNL     1      15.124  16.428  28.005  1.00  0.00     0.105 C 
BRANCH   6   7
HETATM    7  C2  UNL     1      14.987  15.384  26.942  1.00  0.00     0.053 C 
BRANCH   7   8
HETATM    8  C1  UNL     1      15.219  15.875  25.542  1.00  0.00     0.283 C 
BRANCH   8   9
HETATM    9  N1  UNL     1      14.516  14.956  24.625  1.00  0.00    -0.065 N 
ATOM     10  H13 UNL     1      13.568  15.262  24.406  1.00  0.00     0.275 HD
ATOM     11  H12 UNL     1      14.887  14.983  23.675  1.00  0.00     0.275 HD
ATOM     12  H11 UNL     1      14.548  14.024  25.037  1.00  0.00     0.275 HD
ENDBRANCH   8   9
BRANCH   8  13
HETATM   13  C24 UNL     1      16.634  15.985  25.158  1.00  0.00     0.204 C 
HETATM   14  O6  UNL     1      17.040  16.825  24.325  1.00  0.00    -0.646 OA
HETATM   15  O7  UNL     1      17.574  15.116  25.745  1.00  0.00    -0.646 OA
ENDBRANCH   8  13
ENDBRANCH   7   8
ENDBRANCH   6   7
ENDBRANCH   3   6
ENDBRANCH   1   2
BRANCH   1  16
HETATM   16  C6  UNL     1      18.610  17.570  31.228  1.00  0.00     0.109 C 
BRANCH  16  17
HETATM   17  S1  UNL     1      19.358  18.153  29.702  1.00  0.00    -0.154 SA
BRANCH  17  18
HETATM   18  C7  UNL     1      20.815  19.198  29.923  1.00  0.00     0.114 C 
HETATM   19  C8  UNL     1      20.535  20.525  29.323  1.00  0.00    -0.030 A 
HETATM   20  C9  UNL     1      20.531  20.648  27.940  1.00  0.00     0.009 A 
HETATM   21  C13 UNL     1      20.217  21.651  30.068  1.00  0.00    -0.018 A 
HETATM   22  C10 UNL     1      20.213  21.861  27.333  1.00  0.00     0.001 A 
HETATM   23  C11 UNL     1      19.898  22.964  28.074  1.00  0.00     0.001 A 
HETATM   24  C12 UNL     1      19.901  22.854  29.463  1.00  0.00     0.013 A 
HETATM   25  C14 UNL     1      20.298  21.580  31.527  1.00  0.00    -0.017 A 
HETATM   26  C15 UNL     1      19.944  22.649  32.332  1.00  0.00     0.013 A 
HETATM   27  C19 UNL     1      20.702  20.389  32.105  1.00  0.00    -0.017 A 
HETATM   28  C16 UNL     1      19.979  22.562  33.708  1.00  0.00     0.001 A 
HETATM   29  C17 UNL     1      20.379  21.376  34.289  1.00  0.00     0.001 A 
HETATM   30  C18 UNL     1      20.729  20.324  33.477  1.00  0.00     0.011 A 
HETATM   31  C20 UNL     1      21.144  19.208  31.370  1.00  0.00     0.170 C 
BRANCH  31  32
HETATM   32  O2  UNL     1      22.534  19.012  31.550  1.00  0.00    -0.389 OA
ATOM     33  H2  UNL     1      22.751  19.061  32.473  1.00  0.00     0.210 HD
ENDBRANCH  31  32
ENDBRANCH  17  18
ENDBRANCH  16  17
ENDBRANCH   1  16
BRANCH   1  34
HETATM   34  C21 UNL     1      16.866  16.359  32.380  1.00  0.00     0.241 C 
HETATM   35  O3  UNL     1      16.640  17.326  33.146  1.00  0.00    -0.271 OA
HETATM   36  N3  UNL     1      16.528  15.064  32.829  1.00  0.00    -0.349 N 
ATOM     37  H3  UNL     1      16.700  14.261  32.223  1.00  0.00     0.163 HD
BRANCH  36  38
HETATM   38  C22 UNL     1      15.929  14.853  34.162  1.00  0.00     0.235 C 
BRANCH  38  39
HETATM   39  C23 UNL     1      16.092  13.426  34.505  1.00  0.00     0.191 C 
HETATM   40  O4  UNL     1      15.503  12.490  33.903  1.00  0.00    -0.647 OA
HETATM   41  O5  UNL     1      16.941  13.058  35.553  1.00  0.00    -0.647 OA
ENDBRANCH  38  39
ENDBRANCH  36  38
ENDBRANCH   1  34
TORSDOF 13
ENDMDL
