MODEL 2
REMARK VINA RESULT: -7.799277575      1.633      5.274
REMARK  13 active torsions:
REMARK  status: ('A' for Active; 'I' for Inactive)
REMARK    1  A    between atoms: N1_1  and  C1_5 
REMARK    2  A    between atoms: C1_5  and  C2_6 
REMARK    3  A    between atoms: C1_5  and  C24_39 
REMARK    4  A    between atoms: C2_6  and  C3_7 
REMARK    5  A    between atoms: C3_7  and  C4_8 
REMARK       I    between atoms: C4_8  and  N2_10 
REMARK    6  A    between atoms: N2_10  and  C5_12 
REMARK    7  A    between atoms: C5_12  and  C6_13 
REMARK    8  A    between atoms: C5_12  and  C21_31 
REMARK    9  A    between atoms: C6_13  and  S1_14 
REMARK   10  A    between atoms: S1_14  and  C7_15 
REMARK   11  A    between atoms: C20_28  and  O2_29 
REMARK       I    between atoms: C21_31  and  N3_33 
REMARK   12  A    between atoms: N3_33  and  C22_35 
REMARK   13  A    between atoms: C22_35  and  C23_36 
ROOT
HETATM    1  C5  UNL     1      17.865  16.452  31.121  1.00  0.00     0.185 C 
ENDROOT
BRANCH   1   2
HETATM    2  N2  UNL     1      17.114  16.108  29.960  1.00  0.00    -0.347 N 
HETATM    3  C4  UNL     1      17.224  14.774  29.411  1.00  0.00     0.218 C 
HETATM    4  O1  UNL     1      17.986  13.959  29.982  1.00  0.00    -0.274 OA
ATOM      5  H2  UNL     1      16.503  16.796  29.520  1.00  0.00     0.163 HD
BRANCH   3   6
HETATM    6  C3  UNL     1      16.430  14.421  28.192  1.00  0.00     0.105 C 
BRANCH   6   7
HETATM    7  C2  UNL     1      15.497  15.526  27.809  1.00  0.00     0.053 C 
BRANCH   7   8
HETATM    8  C1  UNL     1      14.221  15.076  27.158  1.00  0.00     0.283 C 
BRANCH   8   9
HETATM    9  N1  UNL     1      14.445  15.065  25.698  1.00  0.00    -0.065 N 
ATOM     10  H13 UNL     1      13.605  14.827  25.170  1.00  0.00     0.275 HD
ATOM     11  H12 UNL     1      14.586  15.998  25.311  1.00  0.00     0.275 HD
ATOM     12  H11 UNL     1      15.225  14.435  25.510  1.00  0.00     0.275 HD
ENDBRANCH   8   9
BRANCH   8  13
HETATM   13  C24 UNL     1      13.046  15.897  27.481  1.00  0.00     0.204 C 
HETATM   14  O6  UNL     1      12.238  15.589  28.384  1.00  0.00    -0.646 OA
HETATM   15  O7  UNL     1      12.813  17.079  26.750  1.00  0.00    -0.646 OA
ENDBRANCH   8  13
ENDBRANCH   7   8
ENDBRANCH   6   7
ENDBRANCH   3   6
ENDBRANCH   1   2
BRANCH   1  16
HETATM   16  C6  UNL     1      18.468  17.814  31.160  1.00  0.00     0.109 C 
BRANCH  16  17
HETATM   17  S1  UNL     1      19.310  18.299  29.650  1.00  0.00    -0.154 SA
BRANCH  17  18
HETATM   18  C7  UNL     1      20.786  19.313  29.897  1.00  0.00     0.114 C 
HETATM   19  C8  UNL     1      20.530  20.659  29.331  1.00  0.00    -0.030 A 
HETATM   20  C9  UNL     1      20.528  20.818  27.951  1.00  0.00     0.009 A 
HETATM   21  C13 UNL     1      20.231  21.771  30.104  1.00  0.00    -0.018 A 
HETATM   22  C10 UNL     1      20.232  22.051  27.375  1.00  0.00     0.001 A 
HETATM   23  C11 UNL     1      19.936  23.140  28.144  1.00  0.00     0.001 A 
HETATM   24  C12 UNL     1      19.937  22.995  29.529  1.00  0.00     0.013 A 
HETATM   25  C14 UNL     1      20.311  21.662  31.561  1.00  0.00    -0.017 A 
HETATM   26  C15 UNL     1      19.976  22.717  32.393  1.00  0.00     0.013 A 
HETATM   27  C19 UNL     1      20.694  20.450  32.108  1.00  0.00    -0.017 A 
HETATM   28  C16 UNL     1      20.010  22.594  33.766  1.00  0.00     0.001 A 
HETATM   29  C17 UNL     1      20.388  21.387  34.316  1.00  0.00     0.001 A 
HETATM   30  C18 UNL     1      20.719  20.349  33.478  1.00  0.00     0.011 A 
HETATM   31  C20 UNL     1      21.114  19.280  31.344  1.00  0.00     0.170 C 
BRANCH  31  32
HETATM   32  O2  UNL     1      22.501  19.055  31.518  1.00  0.00    -0.389 OA
ATOM     33  H2  UNL     1      22.824  19.575  32.244  1.00  0.00     0.210 HD
ENDBRANCH  31  32
ENDBRANCH  17  18
ENDBRANCH  16  17
ENDBRANCH   1  16
BRANCH   1  34
HETATM   34  C21 UNL     1      17.062  16.268  32.373  1.00  0.00     0.241 C 
HETATM   35  O3  UNL     1      16.672  17.282  33.000  1.00  0.00    -0.271 OA
HETATM   36  N3  UNL     1      16.719  14.998  32.885  1.00  0.00    -0.349 N 
ATOM     37  H3  UNL     1      17.022  14.158  32.392  1.00  0.00     0.163 HD
BRANCH  36  38
HETATM   38  C22 UNL     1      15.926  14.867  34.123  1.00  0.00     0.235 C 
BRANCH  38  39
HETATM   39  C23 UNL     1      16.004  13.457  34.557  1.00  0.00     0.191 C 
HETATM   40  O4  UNL     1      15.192  12.567  34.194  1.00  0.00    -0.647 OA
HETATM   41  O5  UNL     1      17.026  13.054  35.420  1.00  0.00    -0.647 OA
ENDBRANCH  38  39
ENDBRANCH  36  38
ENDBRANCH   1  34
TORSDOF 13
ENDMDL
