MODEL 9
REMARK VINA RESULT: -7.545566117      7.070      9.318
REMARK  6 active torsions:
REMARK  status: ('A' for Active; 'I' for Inactive)
REMARK    1  A    between atoms: N5_13  and  C6_14 
REMARK    2  A    between atoms: C7_16  and  C8_17 
REMARK    3  A    between atoms: C8_17  and  O2_18 
REMARK    4  A    between atoms: O2_18  and  P1_19 
REMARK    5  A    between atoms: C9_23  and  O6_24 
REMARK    6  A    between atoms: C10_26  and  O7_27 
ROOT
HETATM    1  C6  UNL     1      34.170  43.823  22.431  1.00  0.00     0.262 C 
HETATM    2  O1  UNL     1      32.810  43.696  22.395  1.00  0.00    -0.353 OA
HETATM    3  C7  UNL     1      32.213  44.866  22.758  1.00  0.00     0.180 C 
HETATM    4  C9  UNL     1      33.283  45.825  23.238  1.00  0.00     0.182 C 
HETATM    5  C10 UNL     1      34.508  45.282  22.552  1.00  0.00     0.198 C 
ENDROOT
BRANCH   1   6
HETATM    6  N5  UNL     1      34.746  43.221  21.269  1.00  0.00    -0.297 N 
HETATM    7  C3  UNL     1      34.132  42.735  20.157  1.00  0.00     0.142 A 
HETATM    8  N3  UNL     1      32.835  42.687  19.854  1.00  0.00    -0.336 N 
HETATM    9  C4  UNL     1      35.078  42.240  19.275  1.00  0.00     0.119 A 
HETATM   10  C2  UNL     1      32.477  42.149  18.674  1.00  0.00     0.183 A 
ATOM     11  H3  UNL     1      32.133  43.049  20.499  1.00  0.00     0.168 HD
HETATM   12  N2  UNL     1      33.386  41.656  17.791  1.00  0.00    -0.339 N 
HETATM   13  C1  UNL     1      34.703  41.687  18.061  1.00  0.00     0.148 A 
ATOM     14  H2  UNL     1      33.064  41.258  16.908  1.00  0.00     0.167 HD
HETATM   15  N1  UNL     1      35.702  41.188  17.181  1.00  0.00    -0.080 NA
HETATM   16  N4  UNL     1      36.261  42.436  19.871  1.00  0.00    -0.346 N 
HETATM   17  C5  UNL     1      36.061  43.023  21.063  1.00  0.00     0.188 A 
ATOM     18  H4  UNL     1      37.169  42.180  19.483  1.00  0.00     0.167 HD
ENDBRANCH   1   6
BRANCH   5  19
HETATM   19  O7  UNL     1      35.613  45.522  23.360  1.00  0.00    -0.388 OA
ATOM     20  H7  UNL     1      35.602  45.021  24.166  1.00  0.00     0.210 HD
ENDBRANCH   5  19
BRANCH   3  21
HETATM   21  C8  UNL     1      31.592  45.519  21.523  1.00  0.00     0.217 C 
BRANCH  21  22
HETATM   22  O2  UNL     1      30.260  45.617  21.670  1.00  0.00    -0.280 OA
BRANCH  22  23
HETATM   23  P1  UNL     1      29.267  44.397  21.410  1.00  0.00     0.422 P 
HETATM   24  O3  UNL     1      29.838  42.811  21.295  1.00  0.00    -0.617 OA
HETATM   25  O4  UNL     1      27.664  44.625  20.963  1.00  0.00    -0.617 OA
HETATM   26  O5  UNL     1      28.882  44.171  22.860  1.00  0.00    -0.617 OA
ENDBRANCH  22  23
ENDBRANCH  21  22
ENDBRANCH   3  21
BRANCH   4  27
HETATM   27  O6  UNL     1      33.438  45.668  24.600  1.00  0.00    -0.390 OA
ATOM     28  H6  UNL     1      32.929  46.337  25.042  1.00  0.00     0.210 HD
ENDBRANCH   4  27
TORSDOF 6
ENDMDL
