MODEL 1
REMARK VINA RESULT: -8.206144324      0.000      0.000
REMARK  6 active torsions:
REMARK  status: ('A' for Active; 'I' for Inactive)
REMARK    1  A    between atoms: N5_13  and  C6_14 
REMARK    2  A    between atoms: C7_16  and  C8_17 
REMARK    3  A    between atoms: C8_17  and  O2_18 
REMARK    4  A    between atoms: O2_18  and  P1_19 
REMARK    5  A    between atoms: C9_23  and  O6_24 
REMARK    6  A    between atoms: C10_26  and  O7_27 
ROOT
HETATM    1  C6  UNL     1      25.449  43.065  17.481  1.00  0.00     0.262 C 
HETATM    2  O1  UNL     1      26.662  42.664  17.965  1.00  0.00    -0.353 OA
HETATM    3  C7  UNL     1      27.163  43.596  18.824  1.00  0.00     0.180 C 
HETATM    4  C9  UNL     1      26.266  44.816  18.790  1.00  0.00     0.182 C 
HETATM    5  C10 UNL     1      24.969  44.226  18.306  1.00  0.00     0.198 C 
ENDROOT
BRANCH   1   6
HETATM    6  N5  UNL     1      24.533  41.967  17.495  1.00  0.00    -0.297 N 
HETATM    7  C3  UNL     1      24.594  40.786  16.824  1.00  0.00     0.142 A 
HETATM    8  N3  UNL     1      25.520  40.337  15.976  1.00  0.00    -0.336 N 
HETATM    9  C4  UNL     1      23.489  40.010  17.133  1.00  0.00     0.119 A 
HETATM   10  C2  UNL     1      25.349  39.116  15.436  1.00  0.00     0.183 A 
ATOM     11  H3  UNL     1      26.336  40.903  15.743  1.00  0.00     0.168 HD
HETATM   12  N2  UNL     1      24.274  38.335  15.723  1.00  0.00    -0.339 N 
HETATM   13  C1  UNL     1      23.319  38.754  16.573  1.00  0.00     0.148 A 
ATOM     14  H2  UNL     1      24.189  37.417  15.287  1.00  0.00     0.167 HD
HETATM   15  N1  UNL     1      22.172  37.986  16.914  1.00  0.00    -0.080 NA
HETATM   16  N4  UNL     1      22.770  40.740  17.995  1.00  0.00    -0.346 N 
HETATM   17  C5  UNL     1      23.395  41.909  18.211  1.00  0.00     0.188 A 
ATOM     18  H4  UNL     1      21.887  40.454  18.419  1.00  0.00     0.167 HD
ENDBRANCH   1   6
BRANCH   5  19
HETATM   19  O7  UNL     1      24.295  45.185  17.559  1.00  0.00    -0.388 OA
ATOM     20  H7  UNL     1      24.180  46.006  18.022  1.00  0.00     0.210 HD
ENDBRANCH   5  19
BRANCH   3  21
HETATM   21  C8  UNL     1      27.081  43.059  20.254  1.00  0.00     0.217 C 
BRANCH  21  22
HETATM   22  O2  UNL     1      27.487  43.997  21.126  1.00  0.00    -0.280 OA
BRANCH  22  23
HETATM   23  P1  UNL     1      29.024  44.335  21.382  1.00  0.00     0.422 P 
HETATM   24  O3  UNL     1      29.566  45.932  21.476  1.00  0.00    -0.617 OA
HETATM   25  O4  UNL     1      30.226  43.165  21.298  1.00  0.00    -0.617 OA
HETATM   26  O5  UNL     1      28.973  44.245  22.896  1.00  0.00    -0.617 OA
ENDBRANCH  22  23
ENDBRANCH  21  22
ENDBRANCH   3  21
BRANCH   4  27
HETATM   27  O6  UNL     1      26.739  45.685  17.827  1.00  0.00    -0.390 OA
ATOM     28  H6  UNL     1      27.031  46.481  18.254  1.00  0.00     0.210 HD
ENDBRANCH   4  27
TORSDOF 6
ENDMDL
