MODEL 7
REMARK VINA RESULT: -7.616588970      6.548      8.873
REMARK  6 active torsions:
REMARK  status: ('A' for Active; 'I' for Inactive)
REMARK    1  A    between atoms: N5_13  and  C6_14 
REMARK    2  A    between atoms: C7_16  and  C8_17 
REMARK    3  A    between atoms: C8_17  and  O2_18 
REMARK    4  A    between atoms: O2_18  and  P1_19 
REMARK    5  A    between atoms: C9_23  and  O6_24 
REMARK    6  A    between atoms: C10_26  and  O7_27 
ROOT
HETATM    1  C6  UNL     1      32.372  44.357  22.032  1.00  0.00     0.262 C 
HETATM    2  O1  UNL     1      33.005  44.984  23.066  1.00  0.00    -0.353 OA
HETATM    3  C7  UNL     1      34.331  44.671  23.073  1.00  0.00     0.180 C 
HETATM    4  C9  UNL     1      34.579  43.600  22.030  1.00  0.00     0.182 C 
HETATM    5  C10 UNL     1      33.414  43.805  21.100  1.00  0.00     0.198 C 
ENDROOT
BRANCH   1   6
HETATM    6  N5  UNL     1      31.482  45.267  21.380  1.00  0.00    -0.297 N 
HETATM    7  C3  UNL     1      30.136  45.181  21.210  1.00  0.00     0.142 A 
HETATM    8  N3  UNL     1      29.287  44.230  21.600  1.00  0.00    -0.336 N 
HETATM    9  C4  UNL     1      29.676  46.290  20.518  1.00  0.00     0.119 A 
HETATM   10  C2  UNL     1      27.984  44.379  21.305  1.00  0.00     0.183 A 
ATOM     11  H3  UNL     1      29.619  43.410  22.109  1.00  0.00     0.168 HD
HETATM   12  N2  UNL     1      27.508  45.458  20.628  1.00  0.00    -0.339 N 
HETATM   13  C1  UNL     1      28.332  46.438  20.217  1.00  0.00     0.148 A 
ATOM     14  H2  UNL     1      26.509  45.525  20.428  1.00  0.00     0.167 HD
HETATM   15  N1  UNL     1      27.897  47.589  19.506  1.00  0.00    -0.080 NA
HETATM   16  N4  UNL     1      30.762  47.037  20.279  1.00  0.00    -0.346 N 
HETATM   17  C5  UNL     1      31.840  46.425  20.795  1.00  0.00     0.188 A 
ATOM     18  H4  UNL     1      30.768  47.929  19.783  1.00  0.00     0.167 HD
ENDBRANCH   1   6
BRANCH   5  19
HETATM   19  O7  UNL     1      33.062  42.579  20.550  1.00  0.00    -0.388 OA
ATOM     20  H7  UNL     1      33.734  41.916  20.655  1.00  0.00     0.210 HD
ENDBRANCH   5  19
BRANCH   3  21
HETATM   21  C8  UNL     1      35.139  45.887  22.620  1.00  0.00     0.217 C 
BRANCH  21  22
HETATM   22  O2  UNL     1      34.617  47.011  23.139  1.00  0.00    -0.280 OA
BRANCH  22  23
HETATM   23  P1  UNL     1      34.911  48.460  22.542  1.00  0.00     0.422 P 
HETATM   24  O3  UNL     1      34.116  49.829  23.132  1.00  0.00    -0.617 OA
HETATM   25  O4  UNL     1      35.799  48.687  21.135  1.00  0.00    -0.617 OA
HETATM   26  O5  UNL     1      36.117  48.765  23.412  1.00  0.00    -0.617 OA
ENDBRANCH  22  23
ENDBRANCH  21  22
ENDBRANCH   3  21
BRANCH   4  27
HETATM   27  O6  UNL     1      34.449  42.363  22.629  1.00  0.00    -0.390 OA
ATOM     28  H6  UNL     1      34.739  41.697  22.017  1.00  0.00     0.210 HD
ENDBRANCH   4  27
TORSDOF 6
ENDMDL
