MODEL 3
REMARK VINA RESULT: -7.826487674      0.621      1.134
REMARK  6 active torsions:
REMARK  status: ('A' for Active; 'I' for Inactive)
REMARK    1  A    between atoms: N5_13  and  C6_14 
REMARK    2  A    between atoms: C7_16  and  C8_17 
REMARK    3  A    between atoms: C8_17  and  O2_18 
REMARK    4  A    between atoms: O2_18  and  P1_19 
REMARK    5  A    between atoms: C9_23  and  O6_24 
REMARK    6  A    between atoms: C10_26  and  O7_27 
ROOT
HETATM    1  C6  UNL     1      25.636  43.457  17.405  1.00  0.00     0.262 C 
HETATM    2  O1  UNL     1      26.820  43.136  18.005  1.00  0.00    -0.353 OA
HETATM    3  C7  UNL     1      27.248  44.162  18.795  1.00  0.00     0.180 C 
HETATM    4  C9  UNL     1      26.335  45.351  18.575  1.00  0.00     0.182 C 
HETATM    5  C10 UNL     1      25.083  44.686  18.072  1.00  0.00     0.198 C 
ENDROOT
BRANCH   1   6
HETATM    6  N5  UNL     1      24.739  42.346  17.473  1.00  0.00    -0.297 N 
HETATM    7  C3  UNL     1      24.789  41.158  16.813  1.00  0.00     0.142 A 
HETATM    8  N3  UNL     1      25.682  40.712  15.930  1.00  0.00    -0.336 N 
HETATM    9  C4  UNL     1      23.711  40.369  17.181  1.00  0.00     0.119 A 
HETATM   10  C2  UNL     1      25.506  39.483  15.412  1.00  0.00     0.183 A 
ATOM     11  H3  UNL     1      26.478  41.288  15.654  1.00  0.00     0.168 HD
HETATM   12  N2  UNL     1      24.457  38.690  15.756  1.00  0.00    -0.339 N 
HETATM   13  C1  UNL     1      23.535  39.104  16.644  1.00  0.00     0.148 A 
ATOM     14  H2  UNL     1      24.368  37.765  15.335  1.00  0.00     0.167 HD
HETATM   15  N1  UNL     1      22.418  38.323  17.044  1.00  0.00    -0.080 NA
HETATM   16  N4  UNL     1      23.019  41.099  18.066  1.00  0.00    -0.346 N 
HETATM   17  C5  UNL     1      23.635  42.280  18.240  1.00  0.00     0.188 A 
ATOM     18  H4  UNL     1      22.162  40.804  18.532  1.00  0.00     0.167 HD
ENDBRANCH   1   6
BRANCH   5  19
HETATM   19  O7  UNL     1      24.446  45.548  17.188  1.00  0.00    -0.388 OA
ATOM     20  H7  UNL     1      24.375  46.435  17.517  1.00  0.00     0.210 HD
ENDBRANCH   5  19
BRANCH   3  21
HETATM   21  C8  UNL     1      27.079  43.772  20.263  1.00  0.00     0.217 C 
BRANCH  21  22
HETATM   22  O2  UNL     1      28.204  43.201  20.724  1.00  0.00    -0.280 OA
BRANCH  22  23
HETATM   23  P1  UNL     1      29.225  43.953  21.691  1.00  0.00     0.422 P 
HETATM   24  O3  UNL     1      29.977  43.146  22.971  1.00  0.00    -0.617 OA
HETATM   25  O4  UNL     1      29.407  45.623  21.679  1.00  0.00    -0.617 OA
HETATM   26  O5  UNL     1      30.457  43.763  20.826  1.00  0.00    -0.617 OA
ENDBRANCH  22  23
ENDBRANCH  21  22
ENDBRANCH   3  21
BRANCH   4  27
HETATM   27  O6  UNL     1      26.858  46.128  17.561  1.00  0.00    -0.390 OA
ATOM     28  H6  UNL     1      26.144  46.580  17.127  1.00  0.00     0.210 HD
ENDBRANCH   4  27
TORSDOF 6
ENDMDL
