MODEL 4
REMARK VINA RESULT: -7.800040887      1.416      1.829
REMARK  6 active torsions:
REMARK  status: ('A' for Active; 'I' for Inactive)
REMARK    1  A    between atoms: N5_13  and  C6_14 
REMARK    2  A    between atoms: C7_16  and  C8_17 
REMARK    3  A    between atoms: C8_17  and  O2_18 
REMARK    4  A    between atoms: O2_18  and  P1_19 
REMARK    5  A    between atoms: C9_23  and  O6_24 
REMARK    6  A    between atoms: C10_26  and  O7_27 
ROOT
HETATM    1  C6  UNL     1      26.824  44.134  17.439  1.00  0.00     0.262 C 
HETATM    2  O1  UNL     1      27.929  43.491  17.919  1.00  0.00    -0.353 OA
HETATM    3  C7  UNL     1      28.700  44.348  18.647  1.00  0.00     0.180 C 
HETATM    4  C9  UNL     1      28.131  45.745  18.506  1.00  0.00     0.182 C 
HETATM    5  C10 UNL     1      26.700  45.457  18.143  1.00  0.00     0.198 C 
ENDROOT
BRANCH   1   6
HETATM    6  N5  UNL     1      25.668  43.311  17.613  1.00  0.00    -0.297 N 
HETATM    7  C3  UNL     1      25.420  42.062  17.135  1.00  0.00     0.142 A 
HETATM    8  N3  UNL     1      26.184  41.274  16.378  1.00  0.00    -0.336 N 
HETATM    9  C4  UNL     1      24.168  41.638  17.548  1.00  0.00     0.119 A 
HETATM   10  C2  UNL     1      25.705  40.066  16.032  1.00  0.00     0.183 A 
ATOM     11  H3  UNL     1      27.107  41.580  16.069  1.00  0.00     0.168 HD
HETATM   12  N2  UNL     1      24.480  39.626  16.425  1.00  0.00    -0.339 N 
HETATM   13  C1  UNL     1      23.681  40.392  17.189  1.00  0.00     0.148 A 
ATOM     14  H2  UNL     1      24.162  38.701  16.136  1.00  0.00     0.167 HD
HETATM   15  N1  UNL     1      22.391  39.991  17.631  1.00  0.00    -0.080 NA
HETATM   16  N4  UNL     1      23.672  42.646  18.278  1.00  0.00    -0.346 N 
HETATM   17  C5  UNL     1      24.570  43.645  18.316  1.00  0.00     0.188 A 
ATOM     18  H4  UNL     1      22.759  42.654  18.731  1.00  0.00     0.167 HD
ENDBRANCH   1   6
BRANCH   5  19
HETATM   19  O7  UNL     1      26.237  46.474  17.317  1.00  0.00    -0.388 OA
ATOM     20  H7  UNL     1      25.762  47.149  17.786  1.00  0.00     0.210 HD
ENDBRANCH   5  19
BRANCH   3  21
HETATM   21  C8  UNL     1      28.581  43.997  20.130  1.00  0.00     0.217 C 
BRANCH  21  22
HETATM   22  O2  UNL     1      29.802  43.831  20.667  1.00  0.00    -0.280 OA
BRANCH  22  23
HETATM   23  P1  UNL     1      30.082  43.938  22.232  1.00  0.00     0.422 P 
HETATM   24  O3  UNL     1      30.770  45.326  22.907  1.00  0.00    -0.617 OA
HETATM   25  O4  UNL     1      29.975  42.611  23.256  1.00  0.00    -0.617 OA
HETATM   26  O5  UNL     1      28.696  44.415  22.626  1.00  0.00    -0.617 OA
ENDBRANCH  22  23
ENDBRANCH  21  22
ENDBRANCH   3  21
BRANCH   4  27
HETATM   27  O6  UNL     1      28.740  46.364  17.434  1.00  0.00    -0.390 OA
ATOM     28  H6  UNL     1      28.117  46.415  16.719  1.00  0.00     0.210 HD
ENDBRANCH   4  27
TORSDOF 6
ENDMDL
