MODEL 5
REMARK VINA RESULT: -7.793654891      7.296      9.465
REMARK  6 active torsions:
REMARK  status: ('A' for Active; 'I' for Inactive)
REMARK    1  A    between atoms: N5_13  and  C6_14 
REMARK    2  A    between atoms: C7_16  and  C8_17 
REMARK    3  A    between atoms: C8_17  and  O2_18 
REMARK    4  A    between atoms: O2_18  and  P1_19 
REMARK    5  A    between atoms: C9_23  and  O6_24 
REMARK    6  A    between atoms: C10_26  and  O7_27 
ROOT
HETATM    1  C6  UNL     1      33.151  44.326  23.236  1.00  0.00     0.262 C 
HETATM    2  O1  UNL     1      33.655  45.589  23.355  1.00  0.00    -0.353 OA
HETATM    3  C7  UNL     1      34.929  45.642  22.875  1.00  0.00     0.180 C 
HETATM    4  C9  UNL     1      35.378  44.233  22.545  1.00  0.00     0.182 C 
HETATM    5  C10 UNL     1      34.062  43.534  22.339  1.00  0.00     0.198 C 
ENDROOT
BRANCH   1   6
HETATM    6  N5  UNL     1      31.810  44.380  22.743  1.00  0.00    -0.297 N 
HETATM    7  C3  UNL     1      31.271  45.203  21.804  1.00  0.00     0.142 A 
HETATM    8  N3  UNL     1      31.845  46.176  21.094  1.00  0.00    -0.336 N 
HETATM    9  C4  UNL     1      29.928  44.909  21.634  1.00  0.00     0.119 A 
HETATM   10  C2  UNL     1      31.085  46.855  20.216  1.00  0.00     0.183 A 
ATOM     11  H3  UNL     1      32.833  46.398  21.215  1.00  0.00     0.168 HD
HETATM   12  N2  UNL     1      29.766  46.585  20.030  1.00  0.00    -0.339 N 
HETATM   13  C1  UNL     1      29.151  45.613  20.727  1.00  0.00     0.148 A 
ATOM     14  H2  UNL     1      29.232  47.130  19.351  1.00  0.00     0.167 HD
HETATM   15  N1  UNL     1      27.777  45.283  20.580  1.00  0.00    -0.080 NA
HETATM   16  N4  UNL     1      29.673  43.903  22.480  1.00  0.00    -0.346 N 
HETATM   17  C5  UNL     1      30.798  43.588  23.142  1.00  0.00     0.188 A 
ATOM     18  H4  UNL     1      28.767  43.449  22.603  1.00  0.00     0.167 HD
ENDBRANCH   1   6
BRANCH   5  19
HETATM   19  O7  UNL     1      34.196  42.207  22.731  1.00  0.00    -0.388 OA
ATOM     20  H7  UNL     1      35.101  41.927  22.796  1.00  0.00     0.210 HD
ENDBRANCH   5  19
BRANCH   3  21
HETATM   21  C8  UNL     1      34.937  46.403  21.549  1.00  0.00     0.217 C 
BRANCH  21  22
HETATM   22  O2  UNL     1      34.390  47.619  21.708  1.00  0.00    -0.280 OA
BRANCH  22  23
HETATM   23  P1  UNL     1      35.084  48.777  22.555  1.00  0.00     0.422 P 
HETATM   24  O3  UNL     1      36.696  48.658  23.047  1.00  0.00    -0.617 OA
HETATM   25  O4  UNL     1      34.208  50.037  23.240  1.00  0.00    -0.617 OA
HETATM   26  O5  UNL     1      35.491  49.638  21.373  1.00  0.00    -0.617 OA
ENDBRANCH  22  23
ENDBRANCH  21  22
ENDBRANCH   3  21
BRANCH   4  27
HETATM   27  O6  UNL     1      35.992  43.693  23.658  1.00  0.00    -0.390 OA
ATOM     28  H6  UNL     1      35.406  43.781  24.400  1.00  0.00     0.210 HD
ENDBRANCH   4  27
TORSDOF 6
ENDMDL
