MODEL 10
REMARK VINA RESULT: -7.462841777      1.754      2.280
REMARK  6 active torsions:
REMARK  status: ('A' for Active; 'I' for Inactive)
REMARK    1  A    between atoms: N5_13  and  C6_14 
REMARK    2  A    between atoms: C7_16  and  C8_17 
REMARK    3  A    between atoms: C8_17  and  O2_18 
REMARK    4  A    between atoms: O2_18  and  P1_19 
REMARK    5  A    between atoms: C9_23  and  O6_24 
REMARK    6  A    between atoms: C10_26  and  O7_27 
ROOT
HETATM    1  C6  UNL     1      26.443  43.813  18.974  1.00  0.00     0.262 C 
HETATM    2  O1  UNL     1      27.798  43.647  18.932  1.00  0.00    -0.353 OA
HETATM    3  C7  UNL     1      28.364  44.049  20.106  1.00  0.00     0.180 C 
HETATM    4  C9  UNL     1      27.293  44.696  20.960  1.00  0.00     0.182 C 
HETATM    5  C10 UNL     1      26.041  44.080  20.398  1.00  0.00     0.198 C 
ENDROOT
BRANCH   1   6
HETATM    6  N5  UNL     1      25.795  42.661  18.429  1.00  0.00    -0.297 N 
HETATM    7  C3  UNL     1      26.042  42.005  17.263  1.00  0.00     0.142 A 
HETATM    8  N3  UNL     1      26.951  42.258  16.321  1.00  0.00    -0.336 N 
HETATM    9  C4  UNL     1      25.171  40.936  17.129  1.00  0.00     0.119 A 
HETATM   10  C2  UNL     1      26.995  41.450  15.246  1.00  0.00     0.183 A 
ATOM     11  H3  UNL     1      27.595  43.044  16.412  1.00  0.00     0.168 HD
HETATM   12  N2  UNL     1      26.151  40.395  15.091  1.00  0.00    -0.339 N 
HETATM   13  C1  UNL     1      25.222  40.108  16.020  1.00  0.00     0.148 A 
ATOM     14  H2  UNL     1      26.225  39.812  14.257  1.00  0.00     0.167 HD
HETATM   15  N1  UNL     1      24.312  39.021  15.917  1.00  0.00    -0.080 NA
HETATM   16  N4  UNL     1      24.403  40.962  18.226  1.00  0.00    -0.346 N 
HETATM   17  C5  UNL     1      24.777  41.993  19.002  1.00  0.00     0.188 A 
ATOM     18  H4  UNL     1      23.653  40.304  18.438  1.00  0.00     0.167 HD
ENDBRANCH   1   6
BRANCH   5  19
HETATM   19  O7  UNL     1      25.004  44.998  20.510  1.00  0.00    -0.388 OA
ATOM     20  H7  UNL     1      25.276  45.891  20.336  1.00  0.00     0.210 HD
ENDBRANCH   5  19
BRANCH   3  21
HETATM   21  C8  UNL     1      28.833  42.820  20.886  1.00  0.00     0.217 C 
BRANCH  21  22
HETATM   22  O2  UNL     1      30.163  42.867  21.069  1.00  0.00    -0.280 OA
BRANCH  22  23
HETATM   23  P1  UNL     1      30.849  43.727  22.223  1.00  0.00     0.422 P 
HETATM   24  O3  UNL     1      30.126  45.134  22.816  1.00  0.00    -0.617 OA
HETATM   25  O4  UNL     1      32.430  43.458  22.723  1.00  0.00    -0.617 OA
HETATM   26  O5  UNL     1      30.293  42.930  23.389  1.00  0.00    -0.617 OA
ENDBRANCH  22  23
ENDBRANCH  21  22
ENDBRANCH   3  21
BRANCH   4  27
HETATM   27  O6  UNL     1      27.274  46.050  20.692  1.00  0.00    -0.390 OA
ATOM     28  H6  UNL     1      28.163  46.380  20.729  1.00  0.00     0.210 HD
ENDBRANCH   4  27
TORSDOF 6
ENDMDL
