MODEL 2
REMARK VINA RESULT: -8.833780217      1.990      3.011
REMARK  10 active torsions:
REMARK  status: ('A' for Active; 'I' for Inactive)
REMARK    1  A    between atoms: C1_2  and  C2_6 
REMARK    2  A    between atoms: C6_10  and  C7_11 
REMARK    3  A    between atoms: C7_11  and  C8_12 
REMARK    4  A    between atoms: C8_12  and  N3_13 
REMARK    5  A    between atoms: C8_12  and  C19_28 
REMARK    6  A    between atoms: N3_13  and  S1_15 
REMARK    7  A    between atoms: S1_15  and  C9_18 
REMARK       I    between atoms: C19_28  and  N4_30 
REMARK    8  A    between atoms: C22_33  and  C23_34 
REMARK    9  A    between atoms: C23_34  and  C24_35 
REMARK   10  A    between atoms: C24_35  and  N5_36 
ROOT
HETATM    1  C8  UNL     1      17.106  63.344  25.415  1.00  0.00     0.189 C 
ENDROOT
BRANCH   1   2
HETATM    2  C7  UNL     1      18.585  62.914  25.398  1.00  0.00     0.074 C 
BRANCH   2   3
HETATM    3  C6  UNL     1      18.787  61.569  24.842  1.00  0.00    -0.055 A 
HETATM    4  C5  UNL     1      18.447  61.234  23.543  1.00  0.00     0.007 A 
HETATM    5  C4  UNL     1      18.640  59.970  23.023  1.00  0.00     0.002 A 
HETATM    6  C3  UNL     1      19.193  59.036  23.854  1.00  0.00     0.015 A 
HETATM    7  C2  UNL     1      19.551  59.319  25.164  1.00  0.00     0.005 A 
HETATM    8  C28 UNL     1      19.350  60.581  25.658  1.00  0.00     0.022 A 
BRANCH   7   9
HETATM    9  C1  UNL     1      20.133  58.247  25.959  1.00  0.00     0.120 C 
HETATM   10  N1  UNL     1      19.876  56.891  25.650  1.00  0.00    -0.082 NA
HETATM   11  N2  UNL     1      20.900  58.496  26.961  1.00  0.00    -0.387 N 
ATOM     12  H22 UNL     1      21.309  57.745  27.518  1.00  0.00     0.157 HD
ATOM     13  H21 UNL     1      21.086  59.474  27.183  1.00  0.00     0.157 HD
ENDBRANCH   7   9
ENDBRANCH   2   3
ENDBRANCH   1   2
BRANCH   1  14
HETATM   14  N3  UNL     1      17.049  64.656  24.765  1.00  0.00    -0.301 N 
ATOM     15  H3  UNL     1      17.603  65.456  25.073  1.00  0.00     0.173 HD
BRANCH  14  16
HETATM   16  S1  UNL     1      15.974  64.720  23.449  1.00  0.00     0.259 S 
HETATM   17  O1  UNL     1      15.647  63.369  22.878  1.00  0.00    -0.201 OA
HETATM   18  O2  UNL     1      16.655  65.508  22.355  1.00  0.00    -0.201 OA
BRANCH  16  19
HETATM   19  C9  UNL     1      14.475  65.501  23.828  1.00  0.00     0.080 A 
HETATM   20  C10 UNL     1      14.230  66.085  25.068  1.00  0.00     0.026 A 
HETATM   21  C11 UNL     1      13.016  66.679  25.282  1.00  0.00     0.014 A 
HETATM   22  C12 UNL     1      12.010  66.736  24.335  1.00  0.00    -0.026 A 
HETATM   23  C13 UNL     1      10.797  67.342  24.583  1.00  0.00     0.012 A 
HETATM   24  C17 UNL     1      12.283  66.148  23.114  1.00  0.00    -0.025 A 
HETATM   25  C14 UNL     1       9.811  67.385  23.625  1.00  0.00     0.001 A 
HETATM   26  C15 UNL     1      10.065  66.807  22.408  1.00  0.00     0.001 A 
HETATM   27  C16 UNL     1      11.272  66.206  22.165  1.00  0.00     0.012 A 
HETATM   28  C18 UNL     1      13.499  65.545  22.880  1.00  0.00     0.037 A 
ENDBRANCH  16  19
ENDBRANCH  14  16
ENDBRANCH   1  14
BRANCH   1  29
HETATM   29  C19 UNL     1      16.631  63.471  26.791  1.00  0.00     0.243 C 
HETATM   30  O3  UNL     1      17.491  63.873  27.658  1.00  0.00    -0.271 OA
HETATM   31  N4  UNL     1      15.347  63.211  27.297  1.00  0.00    -0.350 N 
HETATM   32  C20 UNL     1      14.280  62.790  26.433  1.00  0.00     0.126 C 
HETATM   33  C27 UNL     1      15.010  63.354  28.706  1.00  0.00     0.126 C 
HETATM   34  C21 UNL     1      12.987  62.908  27.259  1.00  0.00     0.024 C 
HETATM   35  C22 UNL     1      12.861  64.253  27.924  1.00  0.00    -0.010 C 
HETATM   36  C26 UNL     1      14.056  64.554  28.760  1.00  0.00     0.024 C 
BRANCH  35  37
HETATM   37  C23 UNL     1      11.572  64.264  28.710  1.00  0.00     0.024 C 
BRANCH  37  38
HETATM   38  C24 UNL     1      10.571  63.257  28.247  1.00  0.00     0.122 C 
BRANCH  38  39
HETATM   39  N5  UNL     1       9.984  62.648  29.439  1.00  0.00    -0.367 N 
HETATM   40  C25 UNL     1       9.937  61.361  29.573  1.00  0.00     0.196 C 
HETATM   41  N6  UNL     1       9.371  60.753  30.720  1.00  0.00    -0.067 NA
HETATM   42  N7  UNL     1      10.469  60.521  28.540  1.00  0.00    -0.067 NA
ATOM     43  H5  UNL     1       9.605  63.244  30.175  1.00  0.00     0.161 HD
ENDBRANCH  38  39
ENDBRANCH  37  38
ENDBRANCH  35  37
ENDBRANCH   1  29
TORSDOF 10
ENDMDL
