MODEL 1
REMARK VINA RESULT: -8.917883816      0.000      0.000
REMARK  10 active torsions:
REMARK  status: ('A' for Active; 'I' for Inactive)
REMARK    1  A    between atoms: C1_2  and  C2_6 
REMARK    2  A    between atoms: C6_10  and  C7_11 
REMARK    3  A    between atoms: C7_11  and  C8_12 
REMARK    4  A    between atoms: C8_12  and  N3_13 
REMARK    5  A    between atoms: C8_12  and  C19_28 
REMARK    6  A    between atoms: N3_13  and  S1_15 
REMARK    7  A    between atoms: S1_15  and  C9_18 
REMARK       I    between atoms: C19_28  and  N4_30 
REMARK    8  A    between atoms: C22_33  and  C23_34 
REMARK    9  A    between atoms: C23_34  and  C24_35 
REMARK   10  A    between atoms: C24_35  and  N5_36 
ROOT
HETATM    1  C8  UNL     1      17.898  63.704  25.279  1.00  0.00     0.189 C 
ENDROOT
BRANCH   1   2
HETATM    2  C7  UNL     1      19.270  63.007  25.200  1.00  0.00     0.074 C 
BRANCH   2   3
HETATM    3  C6  UNL     1      19.179  61.605  24.772  1.00  0.00    -0.055 A 
HETATM    4  C5  UNL     1      18.598  61.221  23.575  1.00  0.00     0.007 A 
HETATM    5  C4  UNL     1      18.516  59.903  23.175  1.00  0.00     0.002 A 
HETATM    6  C3  UNL     1      19.040  58.964  24.020  1.00  0.00     0.015 A 
HETATM    7  C2  UNL     1      19.632  59.295  25.230  1.00  0.00     0.005 A 
HETATM    8  C28 UNL     1      19.703  60.610  25.606  1.00  0.00     0.022 A 
BRANCH   7   9
HETATM    9  C1  UNL     1      20.160  58.214  26.049  1.00  0.00     0.120 C 
HETATM   10  N1  UNL     1      19.863  56.863  25.750  1.00  0.00    -0.082 NA
HETATM   11  N2  UNL     1      20.911  58.448  27.066  1.00  0.00    -0.387 N 
ATOM     12  H22 UNL     1      21.281  57.690  27.640  1.00  0.00     0.157 HD
ATOM     13  H21 UNL     1      21.125  59.422  27.282  1.00  0.00     0.157 HD
ENDBRANCH   7   9
ENDBRANCH   2   3
ENDBRANCH   1   2
BRANCH   1  14
HETATM   14  N3  UNL     1      17.678  64.333  23.974  1.00  0.00    -0.301 N 
ATOM     15  H3  UNL     1      18.404  64.842  23.470  1.00  0.00     0.173 HD
BRANCH  14  16
HETATM   16  S1  UNL     1      16.097  64.133  23.379  1.00  0.00     0.259 S 
HETATM   17  O1  UNL     1      15.836  62.761  22.825  1.00  0.00    -0.201 OA
HETATM   18  O2  UNL     1      15.923  65.109  22.239  1.00  0.00    -0.201 OA
BRANCH  16  19
HETATM   19  C9  UNL     1      14.875  64.457  24.564  1.00  0.00     0.080 A 
HETATM   20  C10 UNL     1      14.338  65.727  24.755  1.00  0.00     0.026 A 
HETATM   21  C11 UNL     1      13.378  65.893  25.715  1.00  0.00     0.014 A 
HETATM   22  C12 UNL     1      12.903  64.868  26.513  1.00  0.00    -0.026 A 
HETATM   23  C13 UNL     1      11.934  65.069  27.473  1.00  0.00     0.012 A 
HETATM   24  C17 UNL     1      13.455  63.618  26.300  1.00  0.00    -0.025 A 
HETATM   25  C14 UNL     1      11.479  64.034  28.256  1.00  0.00     0.001 A 
HETATM   26  C15 UNL     1      12.015  62.787  28.058  1.00  0.00     0.001 A 
HETATM   27  C16 UNL     1      12.978  62.592  27.102  1.00  0.00     0.012 A 
HETATM   28  C18 UNL     1      14.423  63.432  25.338  1.00  0.00     0.037 A 
ENDBRANCH  16  19
ENDBRANCH  14  16
ENDBRANCH   1  14
BRANCH   1  29
HETATM   29  C19 UNL     1      17.915  64.739  26.312  1.00  0.00     0.243 C 
HETATM   30  O3  UNL     1      18.537  65.826  26.022  1.00  0.00    -0.271 OA
HETATM   31  N4  UNL     1      17.335  64.703  27.590  1.00  0.00    -0.350 N 
HETATM   32  C20 UNL     1      16.580  63.563  28.031  1.00  0.00     0.126 C 
HETATM   33  C27 UNL     1      17.450  65.800  28.540  1.00  0.00     0.126 C 
HETATM   34  C21 UNL     1      15.854  64.001  29.315  1.00  0.00     0.024 C 
HETATM   35  C22 UNL     1      15.118  65.302  29.134  1.00  0.00    -0.010 C 
HETATM   36  C26 UNL     1      16.031  66.373  28.647  1.00  0.00     0.024 C 
BRANCH  35  37
HETATM   37  C23 UNL     1      14.450  65.644  30.444  1.00  0.00     0.024 C 
BRANCH  37  38
HETATM   38  C24 UNL     1      14.418  64.516  31.421  1.00  0.00     0.122 C 
BRANCH  38  39
HETATM   39  N5  UNL     1      13.017  64.142  31.609  1.00  0.00    -0.367 N 
HETATM   40  C25 UNL     1      12.665  62.898  31.671  1.00  0.00     0.196 C 
HETATM   41  N6  UNL     1      11.312  62.517  31.852  1.00  0.00    -0.067 NA
HETATM   42  N7  UNL     1      13.660  61.872  31.554  1.00  0.00    -0.067 NA
ATOM     43  H5  UNL     1      12.308  64.871  31.693  1.00  0.00     0.161 HD
ENDBRANCH  38  39
ENDBRANCH  37  38
ENDBRANCH  35  37
ENDBRANCH   1  29
TORSDOF 10
ENDMDL
