MODEL 3
REMARK VINA RESULT: -8.730152837      3.211      8.219
REMARK  10 active torsions:
REMARK  status: ('A' for Active; 'I' for Inactive)
REMARK    1  A    between atoms: C1_2  and  C2_6 
REMARK    2  A    between atoms: C6_10  and  C7_11 
REMARK    3  A    between atoms: C7_11  and  C8_12 
REMARK    4  A    between atoms: C8_12  and  N3_13 
REMARK    5  A    between atoms: C8_12  and  C19_28 
REMARK    6  A    between atoms: N3_13  and  S1_15 
REMARK    7  A    between atoms: S1_15  and  C9_18 
REMARK       I    between atoms: C19_28  and  N4_30 
REMARK    8  A    between atoms: C22_33  and  C23_34 
REMARK    9  A    between atoms: C23_34  and  C24_35 
REMARK   10  A    between atoms: C24_35  and  N5_36 
ROOT
HETATM    1  C8  UNL     1      15.257  64.179  29.608  1.00  0.00     0.189 C 
ENDROOT
BRANCH   1   2
HETATM    2  C7  UNL     1      14.205  65.104  28.968  1.00  0.00     0.074 C 
BRANCH   2   3
HETATM    3  C6  UNL     1      12.949  64.414  28.648  1.00  0.00    -0.055 A 
HETATM    4  C5  UNL     1      12.909  63.168  28.045  1.00  0.00     0.007 A 
HETATM    5  C4  UNL     1      11.727  62.521  27.747  1.00  0.00     0.002 A 
HETATM    6  C3  UNL     1      10.567  63.165  28.075  1.00  0.00     0.015 A 
HETATM    7  C2  UNL     1      10.551  64.414  28.680  1.00  0.00     0.005 A 
HETATM    8  C28 UNL     1      11.736  65.037  28.967  1.00  0.00     0.022 A 
BRANCH   7   9
HETATM    9  C1  UNL     1       9.257  65.006  28.987  1.00  0.00     0.120 C 
HETATM   10  N1  UNL     1       8.922  65.375  30.312  1.00  0.00    -0.082 NA
HETATM   11  N2  UNL     1       8.381  65.216  28.070  1.00  0.00    -0.387 N 
ATOM     12  H22 UNL     1       7.474  65.631  28.285  1.00  0.00     0.157 HD
ATOM     13  H21 UNL     1       8.623  64.950  27.115  1.00  0.00     0.157 HD
ENDBRANCH   7   9
ENDBRANCH   2   3
ENDBRANCH   1   2
BRANCH   1  14
HETATM   14  N3  UNL     1      15.212  64.435  31.050  1.00  0.00    -0.301 N 
ATOM     15  H3  UNL     1      15.444  65.338  31.464  1.00  0.00     0.173 HD
BRANCH  14  16
HETATM   16  S1  UNL     1      14.733  63.085  31.968  1.00  0.00     0.259 S 
HETATM   17  O1  UNL     1      15.170  63.154  33.403  1.00  0.00    -0.201 OA
HETATM   18  O2  UNL     1      15.404  61.875  31.361  1.00  0.00    -0.201 OA
BRANCH  16  19
HETATM   19  C9  UNL     1      13.022  62.822  31.955  1.00  0.00     0.080 A 
HETATM   20  C10 UNL     1      12.133  63.647  32.640  1.00  0.00     0.026 A 
HETATM   21  C11 UNL     1      10.797  63.364  32.576  1.00  0.00     0.014 A 
HETATM   22  C12 UNL     1      10.269  62.299  31.868  1.00  0.00    -0.026 A 
HETATM   23  C13 UNL     1       8.915  62.040  31.826  1.00  0.00     0.012 A 
HETATM   24  C17 UNL     1      11.175  61.498  31.199  1.00  0.00    -0.025 A 
HETATM   25  C14 UNL     1       8.414  60.974  31.116  1.00  0.00     0.001 A 
HETATM   26  C15 UNL     1       9.299  60.168  30.446  1.00  0.00     0.001 A 
HETATM   27  C16 UNL     1      10.643  60.430  30.490  1.00  0.00     0.012 A 
HETATM   28  C18 UNL     1      12.525  61.767  31.251  1.00  0.00     0.037 A 
ENDBRANCH  16  19
ENDBRANCH  14  16
ENDBRANCH   1  14
BRANCH   1  29
HETATM   29  C19 UNL     1      16.590  64.506  29.106  1.00  0.00     0.243 C 
HETATM   30  O3  UNL     1      17.325  65.237  29.866  1.00  0.00    -0.271 OA
HETATM   31  N4  UNL     1      17.181  64.122  27.891  1.00  0.00    -0.350 N 
HETATM   32  C20 UNL     1      16.487  63.274  26.962  1.00  0.00     0.126 C 
HETATM   33  C27 UNL     1      18.519  64.541  27.497  1.00  0.00     0.126 C 
HETATM   34  C21 UNL     1      17.534  62.821  25.930  1.00  0.00     0.024 C 
HETATM   35  C22 UNL     1      18.774  62.274  26.585  1.00  0.00    -0.010 C 
HETATM   36  C26 UNL     1      19.358  63.257  27.538  1.00  0.00     0.024 C 
BRANCH  35  37
HETATM   37  C23 UNL     1      19.734  61.866  25.493  1.00  0.00     0.024 C 
BRANCH  37  38
HETATM   38  C24 UNL     1      19.322  60.639  24.750  1.00  0.00     0.122 C 
BRANCH  38  39
HETATM   39  N5  UNL     1      19.765  59.486  25.532  1.00  0.00    -0.367 N 
HETATM   40  C25 UNL     1      19.573  58.280  25.104  1.00  0.00     0.196 C 
HETATM   41  N6  UNL     1      19.994  57.151  25.849  1.00  0.00    -0.067 NA
HETATM   42  N7  UNL     1      18.918  58.070  23.846  1.00  0.00    -0.067 NA
ATOM     43  H5  UNL     1      20.230  59.634  26.427  1.00  0.00     0.161 HD
ENDBRANCH  38  39
ENDBRANCH  37  38
ENDBRANCH  35  37
ENDBRANCH   1  29
TORSDOF 10
ENDMDL
