MODEL 3
REMARK VINA RESULT: -7.817905280      1.368      2.732
REMARK  13 active torsions:
REMARK  status: ('A' for Active; 'I' for Inactive)
REMARK    1  A    between atoms: C2_2  and  C4_4 
REMARK    2  A    between atoms: C6_6  and  C7_7 
REMARK    3  A    between atoms: C10_10  and  S1_11 
REMARK    4  A    between atoms: S1_11  and  N1_14 
REMARK    5  A    between atoms: N1_14  and  C11_16 
REMARK    6  A    between atoms: C11_16  and  C12_17 
REMARK    7  A    between atoms: C11_16  and  C20_29 
REMARK    8  A    between atoms: C12_17  and  C13_18 
REMARK    9  A    between atoms: C17_22  and  C18_23 
REMARK   10  A    between atoms: C20_29  and  O3_30 
REMARK   11  A    between atoms: C20_29  and  N4_32 
REMARK       I    between atoms: N5_35  and  C23_36 
REMARK   12  A    between atoms: C23_36  and  C24_38 
REMARK   13  A    between atoms: C32_49  and  C33_50 
ROOT
HETATM    1  C11 UNL     1      12.123  65.314  27.105  1.00  0.00     0.171 C 
ENDROOT
BRANCH   1   2
HETATM    2  N1  UNL     1      12.306  66.637  27.698  1.00  0.00    -0.302 N 
ATOM      3  H1  UNL     1      11.934  67.477  27.253  1.00  0.00     0.173 HD
BRANCH   2   4
HETATM    4  S1  UNL     1      13.150  66.712  29.136  1.00  0.00     0.260 S 
HETATM    5  O1  UNL     1      14.614  67.053  28.744  1.00  0.00    -0.200 OA
HETATM    6  O2  UNL     1      12.742  68.053  29.797  1.00  0.00    -0.200 OA
BRANCH   4   7
HETATM    7  C10 UNL     1      13.106  65.429  30.247  1.00  0.00     0.092 A 
HETATM    8  C6  UNL     1      13.915  64.323  30.024  1.00  0.00    -0.030 A 
HETATM    9  C5  UNL     1      13.863  63.191  30.820  1.00  0.00     0.016 A 
HETATM   10  C4  UNL     1      12.994  63.117  31.881  1.00  0.00    -0.054 A 
HETATM   11  C36 UNL     1      12.192  64.197  32.114  1.00  0.00     0.016 A 
HETATM   12  C32 UNL     1      12.241  65.345  31.309  1.00  0.00    -0.030 A 
BRANCH   8  13
HETATM   13  C7  UNL     1      14.905  64.352  28.934  1.00  0.00     0.012 C 
HETATM   14  C8  UNL     1      14.857  63.057  28.116  1.00  0.00     0.015 C 
HETATM   15  C9  UNL     1      16.292  64.354  29.614  1.00  0.00     0.015 C 
ENDBRANCH   8  13
BRANCH  10  16
HETATM   16  C2  UNL     1      12.943  61.904  32.725  1.00  0.00     0.010 C 
HETATM   17  C1  UNL     1      12.566  62.389  34.132  1.00  0.00     0.015 C 
HETATM   18  C3  UNL     1      14.217  61.125  32.746  1.00  0.00     0.015 C 
ENDBRANCH  10  16
BRANCH  12  19
HETATM   19  C33 UNL     1      11.323  66.467  31.609  1.00  0.00     0.012 C 
HETATM   20  C34 UNL     1       9.945  66.165  30.970  1.00  0.00     0.015 C 
HETATM   21  C35 UNL     1      11.035  66.452  33.096  1.00  0.00     0.015 C 
ENDBRANCH  12  19
ENDBRANCH   4   7
ENDBRANCH   2   4
ENDBRANCH   1   2
BRANCH   1  22
HETATM   22  C12 UNL     1      10.832  64.701  27.356  1.00  0.00     0.072 C 
BRANCH  22  23
HETATM   23  C13 UNL     1      10.841  63.384  28.040  1.00  0.00    -0.055 A 
HETATM   24  C14 UNL     1      11.599  62.370  27.499  1.00  0.00     0.007 A 
HETATM   25  C15 UNL     1      11.612  61.150  28.147  1.00  0.00     0.002 A 
HETATM   26  C16 UNL     1      10.913  60.897  29.299  1.00  0.00     0.015 A 
HETATM   27  C17 UNL     1      10.150  61.919  29.844  1.00  0.00     0.005 A 
HETATM   28  C19 UNL     1      10.117  63.151  29.219  1.00  0.00     0.022 A 
BRANCH  27  29
HETATM   29  C18 UNL     1       9.394  61.650  31.061  1.00  0.00     0.120 C 
HETATM   30  N2  UNL     1       8.933  62.778  31.824  1.00  0.00    -0.082 NA
HETATM   31  N3  UNL     1       9.148  60.449  31.446  1.00  0.00    -0.387 N 
ATOM     32  H32 UNL     1       9.475  59.648  30.905  1.00  0.00     0.157 HD
ATOM     33  H31 UNL     1       8.619  60.260  32.297  1.00  0.00     0.157 HD
ENDBRANCH  27  29
ENDBRANCH  22  23
ENDBRANCH   1  22
BRANCH   1  34
HETATM   34  C20 UNL     1      12.445  65.514  25.650  1.00  0.00     0.138 C 
BRANCH  34  35
HETATM   35  O3  UNL     1      11.381  65.675  24.919  1.00  0.00    -0.348 OA
ATOM     36  H3  UNL     1      11.126  66.587  24.839  1.00  0.00     0.219 HD
ENDBRANCH  34  35
BRANCH  34  37
HETATM   37  N4  UNL     1      13.648  65.552  24.989  1.00  0.00    -0.361 N 
HETATM   38  C21 UNL     1      13.948  64.411  24.032  1.00  0.00     0.144 C 
HETATM   39  C22 UNL     1      15.151  63.676  24.585  1.00  0.00     0.145 C 
HETATM   40  N5  UNL     1      16.248  64.623  24.482  1.00  0.00    -0.349 N 
HETATM   41  C23 UNL     1      17.570  64.141  24.575  1.00  0.00     0.224 C 
HETATM   42  C30 UNL     1      15.944  66.002  24.267  1.00  0.00     0.145 C 
HETATM   43  O4  UNL     1      18.522  64.953  24.540  1.00  0.00    -0.273 OA
HETATM   44  C31 UNL     1      14.743  66.481  25.046  1.00  0.00     0.144 C 
BRANCH  41  45
HETATM   45  C24 UNL     1      17.847  62.710  24.708  1.00  0.00     0.081 C 
HETATM   46  C25 UNL     1      19.053  62.422  25.627  1.00  0.00     0.034 C 
HETATM   47  C26 UNL     1      18.924  60.926  25.947  1.00  0.00     0.126 C 
HETATM   48  N6  UNL     1      18.944  60.158  24.735  1.00  0.00    -0.358 N 
HETATM   49  C27 UNL     1      19.608  59.029  24.673  1.00  0.00     0.199 C 
HETATM   50  C28 UNL     1      18.233  60.592  23.539  1.00  0.00     0.126 C 
HETATM   51  N7  UNL     1      20.292  58.614  25.840  1.00  0.00    -0.067 NA
HETATM   52  N8  UNL     1      19.626  58.280  23.480  1.00  0.00    -0.067 NA
HETATM   53  C29 UNL     1      18.284  62.094  23.373  1.00  0.00     0.034 C 
ENDBRANCH  41  45
ENDBRANCH  34  37
ENDBRANCH   1  34
TORSDOF 13
ENDMDL
