MODEL 1
REMARK VINA RESULT: -7.936093347      0.000      0.000
REMARK  13 active torsions:
REMARK  status: ('A' for Active; 'I' for Inactive)
REMARK    1  A    between atoms: C2_2  and  C4_4 
REMARK    2  A    between atoms: C6_6  and  C7_7 
REMARK    3  A    between atoms: C10_10  and  S1_11 
REMARK    4  A    between atoms: S1_11  and  N1_14 
REMARK    5  A    between atoms: N1_14  and  C11_16 
REMARK    6  A    between atoms: C11_16  and  C12_17 
REMARK    7  A    between atoms: C11_16  and  C20_29 
REMARK    8  A    between atoms: C12_17  and  C13_18 
REMARK    9  A    between atoms: C17_22  and  C18_23 
REMARK   10  A    between atoms: C20_29  and  O3_30 
REMARK   11  A    between atoms: C20_29  and  N4_32 
REMARK       I    between atoms: N5_35  and  C23_36 
REMARK   12  A    between atoms: C23_36  and  C24_38 
REMARK   13  A    between atoms: C32_49  and  C33_50 
ROOT
HETATM    1  C11 UNL     1      12.921  65.050  26.341  1.00  0.00     0.171 C 
ENDROOT
BRANCH   1   2
HETATM    2  N1  UNL     1      13.590  66.160  27.015  1.00  0.00    -0.302 N 
ATOM      3  H1  UNL     1      13.547  67.111  26.648  1.00  0.00     0.173 HD
BRANCH   2   4
HETATM    4  S1  UNL     1      14.428  65.801  28.414  1.00  0.00     0.260 S 
HETATM    5  O1  UNL     1      15.493  64.747  28.004  1.00  0.00    -0.200 OA
HETATM    6  O2  UNL     1      15.355  67.015  28.675  1.00  0.00    -0.200 OA
BRANCH   4   7
HETATM    7  C10 UNL     1      13.614  65.321  29.825  1.00  0.00     0.092 A 
HETATM    8  C6  UNL     1      12.607  66.134  30.325  1.00  0.00    -0.030 A 
HETATM    9  C5  UNL     1      11.966  65.871  31.524  1.00  0.00     0.016 A 
HETATM   10  C4  UNL     1      12.308  64.775  32.280  1.00  0.00    -0.054 A 
HETATM   11  C36 UNL     1      13.297  63.965  31.800  1.00  0.00     0.016 A 
HETATM   12  C32 UNL     1      13.949  64.229  30.586  1.00  0.00    -0.030 A 
BRANCH   8  13
HETATM   13  C7  UNL     1      12.154  67.298  29.545  1.00  0.00     0.012 C 
HETATM   14  C8  UNL     1      12.542  68.607  30.242  1.00  0.00     0.015 C 
HETATM   15  C9  UNL     1      10.611  67.261  29.576  1.00  0.00     0.015 C 
ENDBRANCH   8  13
BRANCH  10  16
HETATM   16  C2  UNL     1      11.621  64.502  33.559  1.00  0.00     0.010 C 
HETATM   17  C1  UNL     1      11.567  62.974  33.688  1.00  0.00     0.015 C 
HETATM   18  C3  UNL     1      10.256  65.100  33.656  1.00  0.00     0.015 C 
ENDBRANCH  10  16
BRANCH  12  19
HETATM   19  C33 UNL     1      15.029  63.318  30.143  1.00  0.00     0.012 C 
HETATM   20  C34 UNL     1      16.256  63.518  31.065  1.00  0.00     0.015 C 
HETATM   21  C35 UNL     1      14.593  61.898  30.436  1.00  0.00     0.015 C 
ENDBRANCH  12  19
ENDBRANCH   4   7
ENDBRANCH   2   4
ENDBRANCH   1   2
BRANCH   1  22
HETATM   22  C12 UNL     1      11.550  64.815  26.755  1.00  0.00     0.072 C 
BRANCH  22  23
HETATM   23  C13 UNL     1      11.309  63.639  27.628  1.00  0.00    -0.055 A 
HETATM   24  C14 UNL     1      11.965  62.464  27.338  1.00  0.00     0.007 A 
HETATM   25  C15 UNL     1      11.745  61.376  28.160  1.00  0.00     0.002 A 
HETATM   26  C16 UNL     1      10.910  61.406  29.249  1.00  0.00     0.015 A 
HETATM   27  C17 UNL     1      10.250  62.591  29.540  1.00  0.00     0.005 A 
HETATM   28  C19 UNL     1      10.451  63.696  28.735  1.00  0.00     0.022 A 
BRANCH  27  29
HETATM   29  C18 UNL     1       9.352  62.622  30.687  1.00  0.00     0.120 C 
HETATM   30  N2  UNL     1       9.259  61.436  31.495  1.00  0.00    -0.082 NA
HETATM   31  N3  UNL     1       8.661  63.668  30.970  1.00  0.00    -0.387 N 
ATOM     32  H32 UNL     1       8.726  64.509  30.397  1.00  0.00     0.157 HD
ATOM     33  H31 UNL     1       8.032  63.690  31.773  1.00  0.00     0.157 HD
ENDBRANCH  27  29
ENDBRANCH  22  23
ENDBRANCH   1  22
BRANCH   1  34
HETATM   34  C20 UNL     1      13.086  65.354  24.877  1.00  0.00     0.138 C 
BRANCH  34  35
HETATM   35  O3  UNL     1      12.247  66.256  24.455  1.00  0.00    -0.348 OA
ATOM     36  H3  UNL     1      12.638  66.856  23.831  1.00  0.00     0.219 HD
ENDBRANCH  34  35
BRANCH  34  37
HETATM   37  N4  UNL     1      13.954  64.847  23.943  1.00  0.00    -0.361 N 
HETATM   38  C21 UNL     1      13.922  63.346  23.711  1.00  0.00     0.144 C 
HETATM   39  C22 UNL     1      15.272  62.805  24.132  1.00  0.00     0.145 C 
HETATM   40  N5  UNL     1      16.214  63.367  23.179  1.00  0.00    -0.349 N 
HETATM   41  C23 UNL     1      17.494  62.786  23.068  1.00  0.00     0.224 C 
HETATM   42  C30 UNL     1      15.798  64.472  22.375  1.00  0.00     0.145 C 
HETATM   43  O4  UNL     1      18.331  63.293  22.287  1.00  0.00    -0.273 OA
HETATM   44  C31 UNL     1      14.954  65.476  23.124  1.00  0.00     0.144 C 
BRANCH  41  45
HETATM   45  C24 UNL     1      17.857  61.599  23.845  1.00  0.00     0.081 C 
HETATM   46  C25 UNL     1      19.132  61.811  24.689  1.00  0.00     0.034 C 
HETATM   47  C26 UNL     1      19.105  60.650  25.693  1.00  0.00     0.126 C 
HETATM   48  N6  UNL     1      19.093  59.396  24.998  1.00  0.00    -0.358 N 
HETATM   49  C27 UNL     1      19.813  58.388  25.429  1.00  0.00     0.199 C 
HETATM   50  C28 UNL     1      18.287  59.189  23.801  1.00  0.00     0.126 C 
HETATM   51  N7  UNL     1      20.589  58.597  26.593  1.00  0.00    -0.067 NA
HETATM   52  N8  UNL     1      19.799  57.158  24.741  1.00  0.00    -0.067 NA
HETATM   53  C29 UNL     1      18.244  60.427  22.935  1.00  0.00     0.034 C 
ENDBRANCH  41  45
ENDBRANCH  34  37
ENDBRANCH   1  34
TORSDOF 13
ENDMDL
