MODEL 2
REMARK VINA RESULT: -7.834351500      2.246      8.588
REMARK  13 active torsions:
REMARK  status: ('A' for Active; 'I' for Inactive)
REMARK    1  A    between atoms: C2_2  and  C4_4 
REMARK    2  A    between atoms: C6_6  and  C7_7 
REMARK    3  A    between atoms: C10_10  and  S1_11 
REMARK    4  A    between atoms: S1_11  and  N1_14 
REMARK    5  A    between atoms: N1_14  and  C11_16 
REMARK    6  A    between atoms: C11_16  and  C12_17 
REMARK    7  A    between atoms: C11_16  and  C20_29 
REMARK    8  A    between atoms: C12_17  and  C13_18 
REMARK    9  A    between atoms: C17_22  and  C18_23 
REMARK   10  A    between atoms: C20_29  and  O3_30 
REMARK   11  A    between atoms: C20_29  and  N4_32 
REMARK       I    between atoms: N5_35  and  C23_36 
REMARK   12  A    between atoms: C23_36  and  C24_38 
REMARK   13  A    between atoms: C32_49  and  C33_50 
ROOT
HETATM    1  C11 UNL     1      17.901  63.112  26.369  1.00  0.00     0.171 C 
ENDROOT
BRANCH   1   2
HETATM    2  N1  UNL     1      16.687  63.894  26.149  1.00  0.00    -0.302 N 
ATOM      3  H1  UNL     1      16.714  64.911  26.074  1.00  0.00     0.173 HD
BRANCH   2   4
HETATM    4  S1  UNL     1      15.253  63.046  26.024  1.00  0.00     0.260 S 
HETATM    5  O1  UNL     1      15.366  62.226  24.710  1.00  0.00    -0.200 OA
HETATM    6  O2  UNL     1      15.352  61.895  27.056  1.00  0.00    -0.200 OA
BRANCH   4   7
HETATM    7  C10 UNL     1      13.755  63.840  26.115  1.00  0.00     0.092 A 
HETATM    8  C6  UNL     1      13.570  65.005  25.383  1.00  0.00    -0.030 A 
HETATM    9  C5  UNL     1      12.420  65.769  25.481  1.00  0.00     0.016 A 
HETATM   10  C4  UNL     1      11.397  65.399  26.321  1.00  0.00    -0.054 A 
HETATM   11  C36 UNL     1      11.565  64.255  27.047  1.00  0.00     0.016 A 
HETATM   12  C32 UNL     1      12.729  63.478  26.951  1.00  0.00    -0.030 A 
BRANCH   8  13
HETATM   13  C7  UNL     1      14.603  65.436  24.426  1.00  0.00     0.012 C 
HETATM   14  C8  UNL     1      14.822  66.952  24.504  1.00  0.00     0.015 C 
HETATM   15  C9  UNL     1      14.019  65.181  23.020  1.00  0.00     0.015 C 
ENDBRANCH   8  13
BRANCH  10  16
HETATM   16  C2  UNL     1      10.174  66.221  26.421  1.00  0.00     0.010 C 
HETATM   17  C1  UNL     1       9.633  66.344  24.990  1.00  0.00     0.015 C 
HETATM   18  C3  UNL     1      10.394  67.566  27.032  1.00  0.00     0.015 C 
ENDBRANCH  10  16
BRANCH  12  19
HETATM   19  C33 UNL     1      12.848  62.262  27.788  1.00  0.00     0.012 C 
HETATM   20  C34 UNL     1      12.951  62.691  29.273  1.00  0.00     0.015 C 
HETATM   21  C35 UNL     1      11.529  61.519  27.724  1.00  0.00     0.015 C 
ENDBRANCH  12  19
ENDBRANCH   4   7
ENDBRANCH   2   4
ENDBRANCH   1   2
BRANCH   1  22
HETATM   22  C12 UNL     1      18.751  62.953  25.203  1.00  0.00     0.072 C 
BRANCH  22  23
HETATM   23  C13 UNL     1      18.871  61.582  24.647  1.00  0.00    -0.055 A 
HETATM   24  C14 UNL     1      18.480  61.369  23.344  1.00  0.00     0.007 A 
HETATM   25  C15 UNL     1      18.605  60.094  22.828  1.00  0.00     0.002 A 
HETATM   26  C16 UNL     1      19.098  59.032  23.543  1.00  0.00     0.015 A 
HETATM   27  C17 UNL     1      19.492  59.249  24.856  1.00  0.00     0.005 A 
HETATM   28  C19 UNL     1      19.379  60.514  25.399  1.00  0.00     0.022 A 
BRANCH  27  29
HETATM   29  C18 UNL     1      20.004  58.120  25.623  1.00  0.00     0.120 C 
HETATM   30  N2  UNL     1      19.649  56.798  25.183  1.00  0.00    -0.082 NA
HETATM   31  N3  UNL     1      20.743  58.293  26.660  1.00  0.00    -0.387 N 
ATOM     32  H32 UNL     1      20.995  59.231  26.972  1.00  0.00     0.157 HD
ATOM     33  H31 UNL     1      21.101  57.504  27.197  1.00  0.00     0.157 HD
ENDBRANCH  27  29
ENDBRANCH  22  23
ENDBRANCH   1  22
BRANCH   1  34
HETATM   34  C20 UNL     1      18.566  63.785  27.538  1.00  0.00     0.138 C 
BRANCH  34  35
HETATM   35  O3  UNL     1      19.778  63.354  27.742  1.00  0.00    -0.348 OA
ATOM     36  H3  UNL     1      20.395  64.058  27.900  1.00  0.00     0.219 HD
ENDBRANCH  34  35
BRANCH  34  37
HETATM   37  N4  UNL     1      18.113  64.753  28.399  1.00  0.00    -0.361 N 
HETATM   38  C21 UNL     1      17.501  64.284  29.707  1.00  0.00     0.144 C 
HETATM   39  C22 UNL     1      16.046  64.706  29.691  1.00  0.00     0.145 C 
HETATM   40  N5  UNL     1      16.078  66.158  29.727  1.00  0.00    -0.349 N 
HETATM   41  C23 UNL     1      14.902  66.853  30.081  1.00  0.00     0.224 C 
HETATM   42  C30 UNL     1      17.305  66.824  29.426  1.00  0.00     0.145 C 
HETATM   43  O4  UNL     1      14.903  68.104  30.067  1.00  0.00    -0.273 OA
HETATM   44  C31 UNL     1      18.073  66.187  28.293  1.00  0.00     0.144 C 
BRANCH  41  45
HETATM   45  C24 UNL     1      13.687  66.135  30.469  1.00  0.00     0.081 C 
HETATM   46  C25 UNL     1      12.402  66.919  30.128  1.00  0.00     0.034 C 
HETATM   47  C26 UNL     1      11.290  65.866  30.232  1.00  0.00     0.126 C 
HETATM   48  N6  UNL     1      11.269  65.298  31.549  1.00  0.00    -0.358 N 
HETATM   49  C27 UNL     1      10.129  65.057  32.153  1.00  0.00     0.199 C 
HETATM   50  C28 UNL     1      12.496  64.965  32.261  1.00  0.00     0.126 C 
HETATM   51  N7  UNL     1       8.943  65.381  31.452  1.00  0.00    -0.067 NA
HETATM   52  N8  UNL     1      10.115  64.501  33.447  1.00  0.00    -0.067 NA
HETATM   53  C29 UNL     1      13.590  65.973  31.991  1.00  0.00     0.034 C 
ENDBRANCH  41  45
ENDBRANCH  34  37
ENDBRANCH   1  34
TORSDOF 13
ENDMDL
