MODEL 19
REMARK VINA RESULT: -10.543284101      3.581     11.673
REMARK  10 active torsions:
REMARK  status: ('A' for Active; 'I' for Inactive)
REMARK    1  A    between atoms: C1_2  and  C2_3 
REMARK       I    between atoms: C1_2  and  N2_12 
REMARK    2  A    between atoms: C3_4  and  C4_5 
REMARK    3  A    between atoms: N2_12  and  C9_14 
REMARK    4  A    between atoms: C9_14  and  C10_15 
REMARK    5  A    between atoms: C10_15  and  C11_16 
REMARK    6  A    between atoms: C11_16  and  C12_17 
REMARK    7  A    between atoms: C12_17  and  C13_18 
REMARK    8  A    between atoms: N3_21  and  C16_22 
REMARK    9  A    between atoms: C16_22  and  O2_23 
REMARK   10  A    between atoms: C16_22  and  C17_25 
ROOT
HETATM    1  C11 UNL     1       9.861  -5.194  44.878  1.00  0.00     0.002 C 
ENDROOT
BRANCH   1   2
HETATM    2  C10 UNL     1       9.647  -6.647  45.245  1.00  0.00     0.020 C 
BRANCH   2   3
HETATM    3  C9  UNL     1      10.666  -7.552  44.625  1.00  0.00     0.123 C 
BRANCH   3   4
HETATM    4  N2  UNL     1      10.217  -7.949  43.312  1.00  0.00    -0.358 N 
HETATM    5  C1  UNL     1      11.168  -8.388  42.352  1.00  0.00     0.241 C 
HETATM    6  O1  UNL     1      12.370  -8.416  42.677  1.00  0.00    -0.269 OA
ATOM      7  H2  UNL     1       9.226  -7.914  43.076  1.00  0.00     0.162 HD
BRANCH   5   8
HETATM    8  C2  UNL     1      10.715  -8.795  41.004  1.00  0.00     0.075 C 
HETATM    9  C3  UNL     1      11.463  -8.591  39.942  1.00  0.00     0.018 C 
BRANCH   9  10
HETATM   10  C4  UNL     1      11.082  -8.967  38.577  1.00  0.00    -0.021 A 
HETATM   11  C5  UNL     1      10.013  -9.827  38.358  1.00  0.00     0.014 A 
HETATM   12  C6  UNL     1       9.651 -10.181  37.079  1.00  0.00     0.018 A 
HETATM   13  C7  UNL     1      10.359  -9.679  36.006  1.00  0.00     0.087 A 
HETATM   14  N1  UNL     1      11.384  -8.856  36.203  1.00  0.00    -0.374 N 
HETATM   15  C8  UNL     1      11.726  -8.516  37.458  1.00  0.00     0.099 A 
ATOM     16  H1  UNL     1      11.906  -8.485  35.409  1.00  0.00     0.164 HD
ENDBRANCH   9  10
ENDBRANCH   5   8
ENDBRANCH   3   4
ENDBRANCH   2   3
ENDBRANCH   1   2
BRANCH   1  17
HETATM   17  C12 UNL     1      10.428  -4.427  46.022  1.00  0.00     0.005 C 
BRANCH  17  18
HETATM   18  C13 UNL     1       9.495  -4.303  47.204  1.00  0.00    -0.012 C 
HETATM   19  C14 UNL     1       8.366  -3.336  46.919  1.00  0.00     0.024 C 
HETATM   20  C15 UNL     1       8.226  -2.327  48.018  1.00  0.00     0.125 C 
HETATM   21  N3  UNL     1       8.330  -2.926  49.356  1.00  0.00    -0.361 N 
HETATM   22  C23 UNL     1       9.431  -3.793  49.596  1.00  0.00     0.125 C 
HETATM   23  C24 UNL     1      10.336  -3.762  48.355  1.00  0.00     0.024 C 
BRANCH  21  24
HETATM   24  C16 UNL     1       7.372  -2.603  50.330  1.00  0.00     0.148 C 
BRANCH  24  25
HETATM   25  O2  UNL     1       7.903  -2.435  51.518  1.00  0.00    -0.346 OA
ATOM     26  H2  UNL     1       7.303  -2.664  52.219  1.00  0.00     0.219 HD
ENDBRANCH  24  25
BRANCH  24  27
HETATM   27  C17 UNL     1       5.976  -2.440  50.215  1.00  0.00     0.015 A 
HETATM   28  C18 UNL     1       5.193  -1.448  50.718  1.00  0.00     0.016 A 
HETATM   29  C19 UNL     1       3.805  -1.358  50.521  1.00  0.00     0.001 A 
HETATM   30  C20 UNL     1       3.201  -2.327  49.778  1.00  0.00     0.000 A 
HETATM   31  C21 UNL     1       3.932  -3.363  49.239  1.00  0.00     0.001 A 
HETATM   32  C22 UNL     1       5.282  -3.408  49.457  1.00  0.00     0.016 A 
ENDBRANCH  24  27
ENDBRANCH  21  24
ENDBRANCH  17  18
ENDBRANCH   1  17
TORSDOF 10
ENDMDL
