MODEL 15
REMARK VINA RESULT: -10.629668376      3.502     11.548
REMARK  10 active torsions:
REMARK  status: ('A' for Active; 'I' for Inactive)
REMARK    1  A    between atoms: C1_2  and  C2_3 
REMARK       I    between atoms: C1_2  and  N2_12 
REMARK    2  A    between atoms: C3_4  and  C4_5 
REMARK    3  A    between atoms: N2_12  and  C9_14 
REMARK    4  A    between atoms: C9_14  and  C10_15 
REMARK    5  A    between atoms: C10_15  and  C11_16 
REMARK    6  A    between atoms: C11_16  and  C12_17 
REMARK    7  A    between atoms: C12_17  and  C13_18 
REMARK    8  A    between atoms: N3_21  and  C16_22 
REMARK    9  A    between atoms: C16_22  and  O2_23 
REMARK   10  A    between atoms: C16_22  and  C17_25 
ROOT
HETATM    1  C11 UNL     1      10.568  -5.630  45.042  1.00  0.00     0.002 C 
ENDROOT
BRANCH   1   2
HETATM    2  C10 UNL     1      11.894  -6.127  44.506  1.00  0.00     0.020 C 
BRANCH   2   3
HETATM    3  C9  UNL     1      11.931  -7.617  44.359  1.00  0.00     0.123 C 
BRANCH   3   4
HETATM    4  N2  UNL     1      11.762  -7.964  42.968  1.00  0.00    -0.358 N 
HETATM    5  C1  UNL     1      10.541  -8.551  42.539  1.00  0.00     0.241 C 
HETATM    6  O1  UNL     1       9.649  -8.750  43.383  1.00  0.00    -0.269 OA
ATOM      7  H2  UNL     1      12.513  -7.790  42.300  1.00  0.00     0.162 HD
BRANCH   5   8
HETATM    8  C2  UNL     1      10.362  -8.910  41.115  1.00  0.00     0.075 C 
HETATM    9  C3  UNL     1      11.266  -8.597  40.213  1.00  0.00     0.018 C 
BRANCH   9  10
HETATM   10  C4  UNL     1      11.157  -8.921  38.787  1.00  0.00    -0.021 A 
HETATM   11  C5  UNL     1      12.040  -8.362  37.870  1.00  0.00     0.014 A 
HETATM   12  C6  UNL     1      11.942  -8.663  36.532  1.00  0.00     0.018 A 
HETATM   13  C7  UNL     1      10.957  -9.527  36.097  1.00  0.00     0.087 A 
HETATM   14  N1  UNL     1      10.107 -10.068  36.964  1.00  0.00    -0.374 N 
HETATM   15  C8  UNL     1      10.214  -9.766  38.269  1.00  0.00     0.099 A 
ATOM     16  H1  UNL     1       9.380 -10.706  36.641  1.00  0.00     0.164 HD
ENDBRANCH   9  10
ENDBRANCH   5   8
ENDBRANCH   3   4
ENDBRANCH   2   3
ENDBRANCH   1   2
BRANCH   1  17
HETATM   17  C12 UNL     1      10.757  -4.463  45.948  1.00  0.00     0.005 C 
BRANCH  17  18
HETATM   18  C13 UNL     1       9.845  -4.463  47.152  1.00  0.00    -0.012 C 
HETATM   19  C14 UNL     1       8.461  -3.961  46.798  1.00  0.00     0.024 C 
HETATM   20  C15 UNL     1       8.012  -2.894  47.749  1.00  0.00     0.125 C 
HETATM   21  N3  UNL     1       8.317  -3.216  49.151  1.00  0.00    -0.361 N 
HETATM   22  C23 UNL     1       9.641  -3.640  49.447  1.00  0.00     0.125 C 
HETATM   23  C24 UNL     1      10.476  -3.513  48.164  1.00  0.00     0.024 C 
BRANCH  21  24
HETATM   24  C16 UNL     1       7.315  -3.069  50.122  1.00  0.00     0.148 C 
BRANCH  24  25
HETATM   25  O2  UNL     1       7.786  -3.154  51.345  1.00  0.00    -0.346 OA
ATOM     26  H2  UNL     1       8.552  -3.714  51.400  1.00  0.00     0.219 HD
ENDBRANCH  24  25
BRANCH  24  27
HETATM   27  C17 UNL     1       5.929  -2.853  49.976  1.00  0.00     0.015 A 
HETATM   28  C18 UNL     1       5.029  -3.575  49.255  1.00  0.00     0.016 A 
HETATM   29  C19 UNL     1       3.653  -3.294  49.197  1.00  0.00     0.001 A 
HETATM   30  C20 UNL     1       3.188  -2.231  49.909  1.00  0.00     0.000 A 
HETATM   31  C21 UNL     1       4.042  -1.455  50.661  1.00  0.00     0.001 A 
HETATM   32  C22 UNL     1       5.374  -1.767  50.687  1.00  0.00     0.016 A 
ENDBRANCH  24  27
ENDBRANCH  21  24
ENDBRANCH  17  18
ENDBRANCH   1  17
TORSDOF 10
ENDMDL
