MODEL 3
REMARK VINA RESULT: -10.932310359      3.987      5.562
REMARK  10 active torsions:
REMARK  status: ('A' for Active; 'I' for Inactive)
REMARK    1  A    between atoms: C1_2  and  C2_3 
REMARK       I    between atoms: C1_2  and  N2_12 
REMARK    2  A    between atoms: C3_4  and  C4_5 
REMARK    3  A    between atoms: N2_12  and  C9_14 
REMARK    4  A    between atoms: C9_14  and  C10_15 
REMARK    5  A    between atoms: C10_15  and  C11_16 
REMARK    6  A    between atoms: C11_16  and  C12_17 
REMARK    7  A    between atoms: C12_17  and  C13_18 
REMARK    8  A    between atoms: N3_21  and  C16_22 
REMARK    9  A    between atoms: C16_22  and  O2_23 
REMARK   10  A    between atoms: C16_22  and  C17_25 
ROOT
HETATM    1  C11 UNL     1       9.457  -4.920  45.457  1.00  0.00     0.002 C 
ENDROOT
BRANCH   1   2
HETATM    2  C10 UNL     1       9.629  -3.539  46.054  1.00  0.00     0.020 C 
BRANCH   2   3
HETATM    3  C9  UNL     1       8.424  -2.674  45.854  1.00  0.00     0.123 C 
BRANCH   3   4
HETATM    4  N2  UNL     1       8.035  -2.095  47.118  1.00  0.00    -0.358 N 
HETATM    5  C1  UNL     1       7.185  -2.828  47.989  1.00  0.00     0.241 C 
HETATM    6  O1  UNL     1       6.797  -3.955  47.631  1.00  0.00    -0.269 OA
ATOM      7  H2  UNL     1       8.369  -1.168  47.383  1.00  0.00     0.162 HD
BRANCH   5   8
HETATM    8  C2  UNL     1       6.782  -2.240  49.285  1.00  0.00     0.075 C 
HETATM    9  C3  UNL     1       5.655  -2.584  49.870  1.00  0.00     0.018 C 
BRANCH   9  10
HETATM   10  C4  UNL     1       5.191  -2.046  51.153  1.00  0.00    -0.021 A 
HETATM   11  C5  UNL     1       5.801  -2.434  52.339  1.00  0.00     0.014 A 
HETATM   12  C6  UNL     1       5.369  -1.931  53.544  1.00  0.00     0.018 A 
HETATM   13  C7  UNL     1       4.320  -1.034  53.573  1.00  0.00     0.087 A 
HETATM   14  N1  UNL     1       3.729  -0.656  52.445  1.00  0.00    -0.374 N 
HETATM   15  C8  UNL     1       4.161  -1.154  51.274  1.00  0.00     0.099 A 
ATOM     16  H1  UNL     1       2.953   0.007  52.467  1.00  0.00     0.164 HD
ENDBRANCH   9  10
ENDBRANCH   5   8
ENDBRANCH   3   4
ENDBRANCH   2   3
ENDBRANCH   1   2
BRANCH   1  17
HETATM   17  C12 UNL     1      10.772  -5.516  45.091  1.00  0.00     0.005 C 
BRANCH  17  18
HETATM   18  C13 UNL     1      10.762  -6.277  43.786  1.00  0.00    -0.012 C 
HETATM   19  C14 UNL     1       9.389  -6.836  43.482  1.00  0.00     0.024 C 
HETATM   20  C15 UNL     1       9.460  -8.293  43.139  1.00  0.00     0.125 C 
HETATM   21  N3  UNL     1      10.575  -8.611  42.236  1.00  0.00    -0.361 N 
HETATM   22  C23 UNL     1      11.858  -8.105  42.584  1.00  0.00     0.125 C 
HETATM   23  C24 UNL     1      11.743  -7.432  43.960  1.00  0.00     0.024 C 
BRANCH  21  24
HETATM   24  C16 UNL     1      10.337  -9.408  41.106  1.00  0.00     0.148 C 
BRANCH  24  25
HETATM   25  O2  UNL     1       9.686 -10.510  41.397  1.00  0.00    -0.346 OA
ATOM     26  H2  UNL     1      10.236 -11.283  41.338  1.00  0.00     0.219 HD
ENDBRANCH  24  25
BRANCH  24  27
HETATM   27  C17 UNL     1      10.686  -9.200  39.755  1.00  0.00     0.015 A 
HETATM   28  C18 UNL     1      11.691  -8.438  39.246  1.00  0.00     0.016 A 
HETATM   29  C19 UNL     1      11.978  -8.319  37.876  1.00  0.00     0.001 A 
HETATM   30  C20 UNL     1      11.201  -9.012  36.998  1.00  0.00     0.000 A 
HETATM   31  C21 UNL     1      10.165  -9.803  37.443  1.00  0.00     0.001 A 
HETATM   32  C22 UNL     1       9.924  -9.888  38.787  1.00  0.00     0.016 A 
ENDBRANCH  24  27
ENDBRANCH  21  24
ENDBRANCH  17  18
ENDBRANCH   1  17
TORSDOF 10
ENDMDL
