MODEL 5
REMARK VINA RESULT: -10.877576784      4.415      5.812
REMARK  10 active torsions:
REMARK  status: ('A' for Active; 'I' for Inactive)
REMARK    1  A    between atoms: C1_2  and  C2_3 
REMARK       I    between atoms: C1_2  and  N2_12 
REMARK    2  A    between atoms: C3_4  and  C4_5 
REMARK    3  A    between atoms: N2_12  and  C9_14 
REMARK    4  A    between atoms: C9_14  and  C10_15 
REMARK    5  A    between atoms: C10_15  and  C11_16 
REMARK    6  A    between atoms: C11_16  and  C12_17 
REMARK    7  A    between atoms: C12_17  and  C13_18 
REMARK    8  A    between atoms: N3_21  and  C16_22 
REMARK    9  A    between atoms: C16_22  and  O2_23 
REMARK   10  A    between atoms: C16_22  and  C17_25 
ROOT
HETATM    1  C11 UNL     1       9.420  -4.545  45.411  1.00  0.00     0.002 C 
ENDROOT
BRANCH   1   2
HETATM    2  C10 UNL     1       8.862  -4.649  46.815  1.00  0.00     0.020 C 
BRANCH   2   3
HETATM    3  C9  UNL     1       7.604  -3.855  46.992  1.00  0.00     0.123 C 
BRANCH   3   4
HETATM    4  N2  UNL     1       7.438  -3.529  48.388  1.00  0.00    -0.358 N 
HETATM    5  C1  UNL     1       6.183  -3.756  49.014  1.00  0.00     0.241 C 
HETATM    6  O1  UNL     1       5.257  -4.232  48.332  1.00  0.00    -0.269 OA
ATOM      7  H2  UNL     1       8.216  -3.139  48.921  1.00  0.00     0.162 HD
BRANCH   5   8
HETATM    8  C2  UNL     1       6.006  -3.423  50.444  1.00  0.00     0.075 C 
HETATM    9  C3  UNL     1       5.315  -2.369  50.819  1.00  0.00     0.018 C 
BRANCH   9  10
HETATM   10  C4  UNL     1       5.096  -1.976  52.214  1.00  0.00    -0.021 A 
HETATM   11  C5  UNL     1       5.676  -2.702  53.248  1.00  0.00     0.014 A 
HETATM   12  C6  UNL     1       5.474  -2.337  54.558  1.00  0.00     0.018 A 
HETATM   13  C7  UNL     1       4.687  -1.240  54.847  1.00  0.00     0.087 A 
HETATM   14  N1  UNL     1       4.126  -0.539  53.868  1.00  0.00    -0.374 N 
HETATM   15  C8  UNL     1       4.332  -0.906  52.591  1.00  0.00     0.099 A 
ATOM     16  H1  UNL     1       3.544   0.271  54.083  1.00  0.00     0.164 HD
ENDBRANCH   9  10
ENDBRANCH   5   8
ENDBRANCH   3   4
ENDBRANCH   2   3
ENDBRANCH   1   2
BRANCH   1  17
HETATM   17  C12 UNL     1      10.625  -5.404  45.245  1.00  0.00     0.005 C 
BRANCH  17  18
HETATM   18  C13 UNL     1      10.654  -6.185  43.953  1.00  0.00    -0.012 C 
HETATM   19  C14 UNL     1       9.291  -6.750  43.618  1.00  0.00     0.024 C 
HETATM   20  C15 UNL     1       9.374  -8.212  43.299  1.00  0.00     0.125 C 
HETATM   21  N3  UNL     1      10.515  -8.542  42.434  1.00  0.00    -0.361 N 
HETATM   22  C23 UNL     1      11.786  -8.029  42.810  1.00  0.00     0.125 C 
HETATM   23  C24 UNL     1      11.631  -7.335  44.172  1.00  0.00     0.024 C 
BRANCH  21  24
HETATM   24  C16 UNL     1      10.310  -9.356  41.309  1.00  0.00     0.148 C 
BRANCH  24  25
HETATM   25  O2  UNL     1       9.694 -10.476  41.606  1.00  0.00    -0.346 OA
ATOM     26  H2  UNL     1      10.118 -11.236  41.226  1.00  0.00     0.219 HD
ENDBRANCH  24  25
BRANCH  24  27
HETATM   27  C17 UNL     1      10.661  -9.148  39.959  1.00  0.00     0.015 A 
HETATM   28  C18 UNL     1      11.653  -8.369  39.450  1.00  0.00     0.016 A 
HETATM   29  C19 UNL     1      11.944  -8.252  38.080  1.00  0.00     0.001 A 
HETATM   30  C20 UNL     1      11.185  -8.965  37.203  1.00  0.00     0.000 A 
HETATM   31  C21 UNL     1      10.163  -9.775  37.647  1.00  0.00     0.001 A 
HETATM   32  C22 UNL     1       9.917  -9.857  38.991  1.00  0.00     0.016 A 
ENDBRANCH  24  27
ENDBRANCH  21  24
ENDBRANCH  17  18
ENDBRANCH   1  17
TORSDOF 10
ENDMDL
