MODEL 1
REMARK VINA RESULT: -11.217397266      0.000      0.000
REMARK  10 active torsions:
REMARK  status: ('A' for Active; 'I' for Inactive)
REMARK    1  A    between atoms: C1_2  and  C2_3 
REMARK       I    between atoms: C1_2  and  N2_12 
REMARK    2  A    between atoms: C3_4  and  C4_5 
REMARK    3  A    between atoms: N2_12  and  C9_14 
REMARK    4  A    between atoms: C9_14  and  C10_15 
REMARK    5  A    between atoms: C10_15  and  C11_16 
REMARK    6  A    between atoms: C11_16  and  C12_17 
REMARK    7  A    between atoms: C12_17  and  C13_18 
REMARK    8  A    between atoms: N3_21  and  C16_22 
REMARK    9  A    between atoms: C16_22  and  O2_23 
REMARK   10  A    between atoms: C16_22  and  C17_25 
ROOT
HETATM    1  C11 UNL     1       9.284  -5.898  46.019  1.00  0.00     0.002 C 
ENDROOT
BRANCH   1   2
HETATM    2  C10 UNL     1       9.101  -4.948  47.184  1.00  0.00     0.020 C 
BRANCH   2   3
HETATM    3  C9  UNL     1       9.520  -3.548  46.854  1.00  0.00     0.123 C 
BRANCH   3   4
HETATM    4  N2  UNL     1      10.787  -3.268  47.486  1.00  0.00    -0.358 N 
HETATM    5  C1  UNL     1      11.592  -2.206  46.993  1.00  0.00     0.241 C 
HETATM    6  O1  UNL     1      11.177  -1.547  46.022  1.00  0.00    -0.269 OA
ATOM      7  H2  UNL     1      11.101  -3.826  48.279  1.00  0.00     0.162 HD
BRANCH   5   8
HETATM    8  C2  UNL     1      12.892  -1.913  47.635  1.00  0.00     0.075 C 
HETATM    9  C3  UNL     1      12.962  -1.527  48.890  1.00  0.00     0.018 C 
BRANCH   9  10
HETATM   10  C4  UNL     1      14.212  -1.220  49.592  1.00  0.00    -0.021 A 
HETATM   11  C5  UNL     1      14.371  -0.005  50.247  1.00  0.00     0.014 A 
HETATM   12  C6  UNL     1      15.542   0.286  50.907  1.00  0.00     0.018 A 
HETATM   13  C7  UNL     1      16.567  -0.639  50.918  1.00  0.00     0.087 A 
HETATM   14  N1  UNL     1      16.428  -1.804  50.296  1.00  0.00    -0.374 N 
HETATM   15  C8  UNL     1      15.278  -2.076  49.654  1.00  0.00     0.099 A 
ATOM     16  H1  UNL     1      17.186  -2.486  50.304  1.00  0.00     0.164 HD
ENDBRANCH   9  10
ENDBRANCH   5   8
ENDBRANCH   3   4
ENDBRANCH   2   3
ENDBRANCH   1   2
BRANCH   1  17
HETATM   17  C12 UNL     1      10.211  -5.330  45.001  1.00  0.00     0.005 C 
BRANCH  17  18
HETATM   18  C13 UNL     1      10.318  -6.152  43.738  1.00  0.00    -0.012 C 
HETATM   19  C14 UNL     1       9.016  -6.857  43.424  1.00  0.00     0.024 C 
HETATM   20  C15 UNL     1       9.238  -8.315  43.160  1.00  0.00     0.125 C 
HETATM   21  N3  UNL     1      10.408  -8.566  42.307  1.00  0.00    -0.361 N 
HETATM   22  C23 UNL     1      11.624  -7.920  42.664  1.00  0.00     0.125 C 
HETATM   23  C24 UNL     1      11.399  -7.195  43.999  1.00  0.00     0.024 C 
BRANCH  21  24
HETATM   24  C16 UNL     1      10.286  -9.436  41.213  1.00  0.00     0.148 C 
BRANCH  24  25
HETATM   25  O2  UNL     1       9.767 -10.594  41.550  1.00  0.00    -0.346 OA
ATOM     26  H2  UNL     1      10.152 -11.318  41.070  1.00  0.00     0.219 HD
ENDBRANCH  24  25
BRANCH  24  27
HETATM   27  C17 UNL     1      10.630  -9.250  39.858  1.00  0.00     0.015 A 
HETATM   28  C18 UNL     1      11.667  -8.541  39.335  1.00  0.00     0.016 A 
HETATM   29  C19 UNL     1      11.945  -8.441  37.962  1.00  0.00     0.001 A 
HETATM   30  C20 UNL     1      11.124  -9.096  37.095  1.00  0.00     0.000 A 
HETATM   31  C21 UNL     1      10.054  -9.832  37.553  1.00  0.00     0.001 A 
HETATM   32  C22 UNL     1       9.823  -9.901  38.900  1.00  0.00     0.016 A 
ENDBRANCH  24  27
ENDBRANCH  21  24
ENDBRANCH  17  18
ENDBRANCH   1  17
TORSDOF 10
ENDMDL
