MODEL 2
REMARK VINA RESULT: -6.743412615      1.054      1.878
REMARK  5 active torsions:
REMARK  status: ('A' for Active; 'I' for Inactive)
REMARK    1  A    between atoms: N1_1  and  P1_4 
REMARK    2  A    between atoms: P1_4  and  O2_6 
REMARK    3  A    between atoms: P1_4  and  O3_12 
REMARK    4  A    between atoms: O2_6  and  C1_7 
REMARK    5  A    between atoms: O3_12  and  C6_13 
ROOT
HETATM    1  P1  UNL     1      18.011   2.583  61.526  1.00  0.00     0.429 P 
HETATM    2  O1  UNL     1      17.065   2.198  60.406  1.00  0.00    -0.235 OA
ENDROOT
BRANCH   1   3
HETATM    3  N1  UNL     1      17.566   4.170  62.092  1.00  0.00    -0.337 N 
ATOM      4  H12 UNL     1      16.740   4.689  61.794  1.00  0.00     0.161 HD
ATOM      5  H11 UNL     1      18.270   4.478  62.762  1.00  0.00     0.161 HD
ENDBRANCH   1   3
BRANCH   1   6
HETATM    6  O2  UNL     1      17.970   1.439  62.765  1.00  0.00    -0.293 OA
BRANCH   6   7
HETATM    7  C1  UNL     1      19.195   1.225  63.342  1.00  0.00     0.133 C 
HETATM    8  C2  UNL     1      19.138  -0.074  64.157  1.00  0.00     0.032 C 
HETATM    9  C3  UNL     1      20.478   0.023  64.890  1.00  0.00     0.002 C 
HETATM   10  C4  UNL     1      20.659   1.480  65.164  1.00  0.00     0.002 C 
HETATM   11  C5  UNL     1      19.551   2.214  64.420  1.00  0.00     0.032 C 
ENDBRANCH   6   7
ENDBRANCH   1   6
BRANCH   1  12
HETATM   12  O3  UNL     1      19.584   2.651  60.931  1.00  0.00    -0.293 OA
BRANCH  12  13
HETATM   13  C6  UNL     1      19.588   3.452  59.812  1.00  0.00     0.133 C 
HETATM   14  C7  UNL     1      20.455   4.670  60.014  1.00  0.00     0.032 C 
HETATM   15  C8  UNL     1      21.080   4.993  58.693  1.00  0.00     0.002 C 
HETATM   16  C9  UNL     1      20.501   4.007  57.725  1.00  0.00     0.002 C 
HETATM   17  C10 UNL     1      20.269   2.794  58.618  1.00  0.00     0.032 C 
ENDBRANCH  12  13
ENDBRANCH   1  12
TORSDOF 5
ENDMDL
