MODEL 1
REMARK VINA RESULT: -6.866014342      0.000      0.000
REMARK  5 active torsions:
REMARK  status: ('A' for Active; 'I' for Inactive)
REMARK    1  A    between atoms: N1_1  and  P1_4 
REMARK    2  A    between atoms: P1_4  and  O2_6 
REMARK    3  A    between atoms: P1_4  and  O3_12 
REMARK    4  A    between atoms: O2_6  and  C1_7 
REMARK    5  A    between atoms: O3_12  and  C6_13 
ROOT
HETATM    1  P1  UNL     1      18.140   2.903  60.862  1.00  0.00     0.429 P 
HETATM    2  O1  UNL     1      16.951   1.973  60.731  1.00  0.00    -0.235 OA
ENDROOT
BRANCH   1   3
HETATM    3  N1  UNL     1      17.704   4.193  61.950  1.00  0.00    -0.337 N 
ATOM      4  H12 UNL     1      16.756   4.535  62.104  1.00  0.00     0.161 HD
ATOM      5  H11 UNL     1      18.555   4.536  62.394  1.00  0.00     0.161 HD
ENDBRANCH   1   3
BRANCH   1   6
HETATM    6  O2  UNL     1      19.502   2.063  61.397  1.00  0.00    -0.293 OA
BRANCH   6   7
HETATM    7  C1  UNL     1      19.203   1.059  62.282  1.00  0.00     0.133 C 
HETATM    8  C2  UNL     1      19.368   1.594  63.711  1.00  0.00     0.032 C 
HETATM    9  C3  UNL     1      19.243   0.284  64.492  1.00  0.00     0.002 C 
HETATM   10  C4  UNL     1      19.896  -0.742  63.625  1.00  0.00     0.002 C 
HETATM   11  C5  UNL     1      20.199  -0.070  62.291  1.00  0.00     0.032 C 
ENDBRANCH   6   7
ENDBRANCH   1   6
BRANCH   1  12
HETATM   12  O3  UNL     1      18.497   3.572  59.359  1.00  0.00    -0.293 OA
BRANCH  12  13
HETATM   13  C6  UNL     1      19.865   3.631  59.227  1.00  0.00     0.133 C 
HETATM   14  C7  UNL     1      20.318   2.999  57.933  1.00  0.00     0.032 C 
HETATM   15  C8  UNL     1      21.510   3.768  57.458  1.00  0.00     0.002 C 
HETATM   16  C9  UNL     1      21.781   4.785  58.525  1.00  0.00     0.002 C 
HETATM   17  C10 UNL     1      20.381   5.055  59.061  1.00  0.00     0.032 C 
ENDBRANCH  12  13
ENDBRANCH   1  12
TORSDOF 5
ENDMDL
