MODEL 3
REMARK VINA RESULT: -6.702272552      1.445      1.752
REMARK  5 active torsions:
REMARK  status: ('A' for Active; 'I' for Inactive)
REMARK    1  A    between atoms: N1_1  and  P1_4 
REMARK    2  A    between atoms: P1_4  and  O2_6 
REMARK    3  A    between atoms: P1_4  and  O3_12 
REMARK    4  A    between atoms: O2_6  and  C1_7 
REMARK    5  A    between atoms: O3_12  and  C6_13 
ROOT
HETATM    1  P1  UNL     1      18.820   3.079  61.348  1.00  0.00     0.429 P 
HETATM    2  O1  UNL     1      19.516   1.938  60.634  1.00  0.00    -0.235 OA
ENDROOT
BRANCH   1   3
HETATM    3  N1  UNL     1      17.108   2.944  61.047  1.00  0.00    -0.337 N 
ATOM      4  H12 UNL     1      16.598   2.068  60.943  1.00  0.00     0.161 HD
ATOM      5  H11 UNL     1      16.719   3.886  60.995  1.00  0.00     0.161 HD
ENDBRANCH   1   3
BRANCH   1   6
HETATM    6  O2  UNL     1      19.172   3.057  62.998  1.00  0.00    -0.293 OA
BRANCH   6   7
HETATM    7  C1  UNL     1      19.646   1.846  63.432  1.00  0.00     0.133 C 
HETATM    8  C2  UNL     1      18.465   1.003  63.934  1.00  0.00     0.032 C 
HETATM    9  C3  UNL     1      19.231  -0.152  64.583  1.00  0.00     0.002 C 
HETATM   10  C4  UNL     1      20.451   0.480  65.169  1.00  0.00     0.002 C 
HETATM   11  C5  UNL     1      20.482   1.923  64.682  1.00  0.00     0.032 C 
ENDBRANCH   6   7
ENDBRANCH   1   6
BRANCH   1  12
HETATM   12  O3  UNL     1      19.358   4.544  60.719  1.00  0.00    -0.293 OA
BRANCH  12  13
HETATM   13  C6  UNL     1      19.992   4.294  59.524  1.00  0.00     0.133 C 
HETATM   14  C7  UNL     1      19.306   5.002  58.383  1.00  0.00     0.032 C 
HETATM   15  C8  UNL     1      20.368   5.402  57.407  1.00  0.00     0.002 C 
HETATM   16  C9  UNL     1      21.646   4.848  57.958  1.00  0.00     0.002 C 
HETATM   17  C10 UNL     1      21.388   4.902  59.459  1.00  0.00     0.032 C 
ENDBRANCH  12  13
ENDBRANCH   1  12
TORSDOF 5
ENDMDL
