MODEL 4
REMARK VINA RESULT: -6.638886464      0.927      5.747
REMARK  5 active torsions:
REMARK  status: ('A' for Active; 'I' for Inactive)
REMARK    1  A    between atoms: N1_1  and  P1_4 
REMARK    2  A    between atoms: P1_4  and  O2_6 
REMARK    3  A    between atoms: P1_4  and  O3_12 
REMARK    4  A    between atoms: O2_6  and  C1_7 
REMARK    5  A    between atoms: O3_12  and  C6_13 
ROOT
HETATM    1  P1  UNL     1      18.786   2.745  60.881  1.00  0.00     0.429 P 
HETATM    2  O1  UNL     1      20.009   3.333  61.555  1.00  0.00    -0.235 OA
ENDROOT
BRANCH   1   3
HETATM    3  N1  UNL     1      17.380   3.581  61.482  1.00  0.00    -0.337 N 
ATOM      4  H12 UNL     1      17.338   4.106  62.354  1.00  0.00     0.161 HD
ATOM      5  H11 UNL     1      16.621   3.449  60.813  1.00  0.00     0.161 HD
ENDBRANCH   1   3
BRANCH   1   6
HETATM    6  O2  UNL     1      18.915   2.857  59.203  1.00  0.00    -0.293 OA
BRANCH   6   7
HETATM    7  C1  UNL     1      20.115   3.373  58.787  1.00  0.00     0.133 C 
HETATM    8  C2  UNL     1      19.906   4.834  58.366  1.00  0.00     0.032 C 
HETATM    9  C3  UNL     1      21.265   5.113  57.721  1.00  0.00     0.002 C 
HETATM   10  C4  UNL     1      21.646   3.828  57.061  1.00  0.00     0.002 C 
HETATM   11  C5  UNL     1      20.627   2.784  57.499  1.00  0.00     0.032 C 
ENDBRANCH   6   7
ENDBRANCH   1   6
BRANCH   1  12
HETATM   12  O3  UNL     1      18.652   1.116  61.286  1.00  0.00    -0.293 OA
BRANCH  12  13
HETATM   13  C6  UNL     1      19.284   0.919  62.492  1.00  0.00     0.133 C 
HETATM   14  C7  UNL     1      18.288   0.788  63.617  1.00  0.00     0.032 C 
HETATM   15  C8  UNL     1      18.856  -0.185  64.602  1.00  0.00     0.002 C 
HETATM   16  C9  UNL     1      20.211  -0.543  64.073  1.00  0.00     0.002 C 
HETATM   17  C10 UNL     1      20.001  -0.424  62.569  1.00  0.00     0.032 C 
ENDBRANCH  12  13
ENDBRANCH   1  12
TORSDOF 5
ENDMDL
