MODEL 5
REMARK VINA RESULT: -6.513331665      1.569      5.769
REMARK  5 active torsions:
REMARK  status: ('A' for Active; 'I' for Inactive)
REMARK    1  A    between atoms: N1_1  and  P1_4 
REMARK    2  A    between atoms: P1_4  and  O2_6 
REMARK    3  A    between atoms: P1_4  and  O3_12 
REMARK    4  A    between atoms: O2_6  and  C1_7 
REMARK    5  A    between atoms: O3_12  and  C6_13 
ROOT
HETATM    1  P1  UNL     1      18.405   2.665  61.175  1.00  0.00     0.429 P 
HETATM    2  O1  UNL     1      17.031   2.285  60.660  1.00  0.00    -0.235 OA
ENDROOT
BRANCH   1   3
HETATM    3  N1  UNL     1      19.539   1.452  60.646  1.00  0.00    -0.337 N 
ATOM      4  H12 UNL     1      19.476   0.932  59.771  1.00  0.00     0.161 HD
ATOM      5  H11 UNL     1      20.262   1.359  61.359  1.00  0.00     0.161 HD
ENDBRANCH   1   3
BRANCH   1   6
HETATM    6  O2  UNL     1      18.839   4.206  60.644  1.00  0.00    -0.293 OA
BRANCH   6   7
HETATM    7  C1  UNL     1      19.661   4.186  59.547  1.00  0.00     0.133 C 
HETATM    8  C2  UNL     1      20.990   4.862  59.912  1.00  0.00     0.032 C 
HETATM    9  C3  UNL     1      21.623   4.954  58.522  1.00  0.00     0.002 C 
HETATM   10  C4  UNL     1      20.479   5.218  57.599  1.00  0.00     0.002 C 
HETATM   11  C5  UNL     1      19.203   5.070  58.417  1.00  0.00     0.032 C 
ENDBRANCH   6   7
ENDBRANCH   1   6
BRANCH   1  12
HETATM   12  O3  UNL     1      18.387   2.679  62.858  1.00  0.00    -0.293 OA
BRANCH  12  13
HETATM   13  C6  UNL     1      19.267   1.722  63.307  1.00  0.00     0.133 C 
HETATM   14  C7  UNL     1      20.268   2.309  64.271  1.00  0.00     0.032 C 
HETATM   15  C8  UNL     1      20.579   1.254  65.285  1.00  0.00     0.002 C 
HETATM   16  C9  UNL     1      19.815   0.042  64.848  1.00  0.00     0.002 C 
HETATM   17  C10 UNL     1      18.597   0.666  64.178  1.00  0.00     0.032 C 
ENDBRANCH  12  13
ENDBRANCH   1  12
TORSDOF 5
ENDMDL
