MODEL 19
REMARK VINA RESULT: -5.090398477      1.960      4.017
REMARK  7 active torsions:
REMARK  status: ('A' for Active; 'I' for Inactive)
REMARK       I    between atoms: C1_2  and  N1_3 
REMARK    1  A    between atoms: C1_2  and  C2_7 
REMARK    2  A    between atoms: N1_3  and  O2_5 
REMARK    3  A    between atoms: C2_7  and  O3_8 
REMARK    4  A    between atoms: C2_7  and  C3_10 
REMARK    5  A    between atoms: C3_10  and  O4_11 
REMARK    6  A    between atoms: C3_10  and  C4_13 
REMARK    7  A    between atoms: C4_13  and  O5_14 
ROOT
HETATM    1  C2  UNL     1      16.559   6.302 -10.089  1.00  0.00     0.242 C 
ENDROOT
BRANCH   1   2
HETATM    2  C1  UNL     1      16.407   5.902 -11.503  1.00  0.00     0.272 C 
HETATM    3  O1  UNL     1      17.272   6.212 -12.360  1.00  0.00    -0.268 OA
HETATM    4  N1  UNL     1      15.282   5.163 -11.929  1.00  0.00    -0.235 N 
ATOM      5  H1  UNL     1      14.573   4.909 -11.243  1.00  0.00     0.197 HD
BRANCH   4   6
HETATM    6  O2  UNL     1      15.110   4.776 -13.225  1.00  0.00    -0.287 OA
ATOM      7  H2  UNL     1      14.458   4.135 -13.483  1.00  0.00     0.244 HD
ENDBRANCH   4   6
ENDBRANCH   1   2
BRANCH   1   8
HETATM    8  O3  UNL     1      16.156   7.642  -9.930  1.00  0.00    -0.383 OA
ATOM      9  H3  UNL     1      16.201   7.882  -9.012  1.00  0.00     0.210 HD
ENDBRANCH   1   8
BRANCH   1  10
HETATM   10  C3  UNL     1      17.996   6.138  -9.638  1.00  0.00     0.179 C 
BRANCH  10  11
HETATM   11  O4  UNL     1      18.558   5.050 -10.271  1.00  0.00    -0.390 OA
ATOM     12  H4  UNL     1      19.214   4.657  -9.708  1.00  0.00     0.210 HD
ENDBRANCH  10  11
BRANCH  10  13
HETATM   13  C4  UNL     1      18.095   6.045  -8.130  1.00  0.00     0.199 C 
BRANCH  13  14
HETATM   14  O5  UNL     1      18.780   4.851  -7.830  1.00  0.00    -0.398 OA
ATOM     15  H5  UNL     1      18.869   4.807  -6.886  1.00  0.00     0.209 HD
ENDBRANCH  13  14
ENDBRANCH  10  13
ENDBRANCH   1  10
TORSDOF 7
ENDMDL
