MODEL 10
REMARK VINA RESULT: -5.583949892      1.697      3.735
REMARK  7 active torsions:
REMARK  status: ('A' for Active; 'I' for Inactive)
REMARK       I    between atoms: C1_2  and  N1_3 
REMARK    1  A    between atoms: C1_2  and  C2_7 
REMARK    2  A    between atoms: N1_3  and  O2_5 
REMARK    3  A    between atoms: C2_7  and  O3_8 
REMARK    4  A    between atoms: C2_7  and  C3_10 
REMARK    5  A    between atoms: C3_10  and  O4_11 
REMARK    6  A    between atoms: C3_10  and  C4_13 
REMARK    7  A    between atoms: C4_13  and  O5_14 
ROOT
HETATM    1  C2  UNL     1      17.838   6.444 -10.712  1.00  0.00     0.242 C 
ENDROOT
BRANCH   1   2
HETATM    2  C1  UNL     1      16.879   6.088 -11.779  1.00  0.00     0.272 C 
HETATM    3  O1  UNL     1      17.169   6.246 -12.990  1.00  0.00    -0.268 OA
HETATM    4  N1  UNL     1      15.608   5.562 -11.462  1.00  0.00    -0.235 N 
ATOM      5  H1  UNL     1      15.360   5.432 -10.481  1.00  0.00     0.197 HD
BRANCH   4   6
HETATM    6  O2  UNL     1      14.699   5.220 -12.419  1.00  0.00    -0.287 OA
ATOM      7  H2  UNL     1      14.378   4.332 -12.524  1.00  0.00     0.244 HD
ENDBRANCH   4   6
ENDBRANCH   1   2
BRANCH   1   8
HETATM    8  O3  UNL     1      18.720   5.367 -10.491  1.00  0.00    -0.383 OA
ATOM      9  H3  UNL     1      18.646   5.075  -9.590  1.00  0.00     0.210 HD
ENDBRANCH   1   8
BRANCH   1  10
HETATM   10  C3  UNL     1      17.109   6.786  -9.429  1.00  0.00     0.179 C 
BRANCH  10  11
HETATM   11  O4  UNL     1      16.278   7.865  -9.643  1.00  0.00    -0.390 OA
ATOM     12  H4  UNL     1      15.877   8.126  -8.822  1.00  0.00     0.210 HD
ENDBRANCH  10  11
BRANCH  10  13
HETATM   13  C4  UNL     1      18.077   7.018  -8.289  1.00  0.00     0.199 C 
BRANCH  13  14
HETATM   14  O5  UNL     1      18.428   5.753  -7.775  1.00  0.00    -0.398 OA
ATOM     15  H5  UNL     1      19.376   5.726  -7.718  1.00  0.00     0.209 HD
ENDBRANCH  13  14
ENDBRANCH  10  13
ENDBRANCH   1  10
TORSDOF 7
ENDMDL
