MODEL 6
REMARK VINA RESULT: -5.645686646      1.950      3.833
REMARK  7 active torsions:
REMARK  status: ('A' for Active; 'I' for Inactive)
REMARK       I    between atoms: C1_2  and  N1_3 
REMARK    1  A    between atoms: C1_2  and  C2_7 
REMARK    2  A    between atoms: N1_3  and  O2_5 
REMARK    3  A    between atoms: C2_7  and  O3_8 
REMARK    4  A    between atoms: C2_7  and  C3_10 
REMARK    5  A    between atoms: C3_10  and  O4_11 
REMARK    6  A    between atoms: C3_10  and  C4_13 
REMARK    7  A    between atoms: C4_13  and  O5_14 
ROOT
HETATM    1  C2  UNL     1      17.938   6.470 -10.896  1.00  0.00     0.242 C 
ENDROOT
BRANCH   1   2
HETATM    2  C1  UNL     1      17.018   6.313 -12.042  1.00  0.00     0.272 C 
HETATM    3  O1  UNL     1      15.985   5.605 -11.950  1.00  0.00    -0.268 OA
HETATM    4  N1  UNL     1      17.278   6.955 -13.272  1.00  0.00    -0.235 N 
ATOM      5  H1  UNL     1      18.116   7.530 -13.358  1.00  0.00     0.197 HD
BRANCH   4   6
HETATM    6  O2  UNL     1      16.451   6.835 -14.349  1.00  0.00    -0.287 OA
ATOM      7  H2  UNL     1      16.637   6.247 -15.072  1.00  0.00     0.244 HD
ENDBRANCH   4   6
ENDBRANCH   1   2
BRANCH   1   8
HETATM    8  O3  UNL     1      18.746   5.322 -10.779  1.00  0.00    -0.383 OA
ATOM      9  H3  UNL     1      19.661   5.578 -10.747  1.00  0.00     0.210 HD
ENDBRANCH   1   8
BRANCH   1  10
HETATM   10  C3  UNL     1      17.163   6.689  -9.613  1.00  0.00     0.179 C 
BRANCH  10  11
HETATM   11  O4  UNL     1      16.225   7.682  -9.803  1.00  0.00    -0.390 OA
ATOM     12  H4  UNL     1      15.643   7.718  -9.053  1.00  0.00     0.210 HD
ENDBRANCH  10  11
BRANCH  10  13
HETATM   13  C4  UNL     1      18.088   6.980  -8.451  1.00  0.00     0.199 C 
BRANCH  13  14
HETATM   14  O5  UNL     1      18.405   5.746  -7.850  1.00  0.00    -0.398 OA
ATOM     15  H5  UNL     1      18.111   5.788  -6.948  1.00  0.00     0.209 HD
ENDBRANCH  13  14
ENDBRANCH  10  13
ENDBRANCH   1  10
TORSDOF 7
ENDMDL
