MODEL 14
REMARK VINA RESULT: -5.422882975      2.168      3.978
REMARK  7 active torsions:
REMARK  status: ('A' for Active; 'I' for Inactive)
REMARK       I    between atoms: C1_2  and  N1_3 
REMARK    1  A    between atoms: C1_2  and  C2_7 
REMARK    2  A    between atoms: N1_3  and  O2_5 
REMARK    3  A    between atoms: C2_7  and  O3_8 
REMARK    4  A    between atoms: C2_7  and  C3_10 
REMARK    5  A    between atoms: C3_10  and  O4_11 
REMARK    6  A    between atoms: C3_10  and  C4_13 
REMARK    7  A    between atoms: C4_13  and  O5_14 
ROOT
HETATM    1  C2  UNL     1      17.461   6.251 -11.629  1.00  0.00     0.242 C 
ENDROOT
BRANCH   1   2
HETATM    2  C1  UNL     1      16.204   5.992 -12.363  1.00  0.00     0.272 C 
HETATM    3  O1  UNL     1      15.288   6.849 -12.400  1.00  0.00    -0.268 OA
HETATM    4  N1  UNL     1      16.000   4.770 -13.039  1.00  0.00    -0.235 N 
ATOM      5  H1  UNL     1      16.737   4.065 -13.012  1.00  0.00     0.197 HD
BRANCH   4   6
HETATM    6  O2  UNL     1      14.855   4.497 -13.727  1.00  0.00    -0.287 OA
ATOM      7  H2  UNL     1      14.189   3.906 -13.394  1.00  0.00     0.244 HD
ENDBRANCH   4   6
ENDBRANCH   1   2
BRANCH   1   8
HETATM    8  O3  UNL     1      18.462   5.369 -12.081  1.00  0.00    -0.383 OA
ATOM      9  H3  UNL     1      19.227   5.865 -12.348  1.00  0.00     0.210 HD
ENDBRANCH   1   8
BRANCH   1  10
HETATM   10  C3  UNL     1      17.256   6.079 -10.139  1.00  0.00     0.179 C 
BRANCH  10  11
HETATM   11  O4  UNL     1      16.019   5.516  -9.904  1.00  0.00    -0.390 OA
ATOM     12  H4  UNL     1      16.049   4.587 -10.100  1.00  0.00     0.210 HD
ENDBRANCH  10  11
BRANCH  10  13
HETATM   13  C4  UNL     1      17.446   7.387  -9.400  1.00  0.00     0.199 C 
BRANCH  13  14
HETATM   14  O5  UNL     1      16.241   8.108  -9.511  1.00  0.00    -0.398 OA
ATOM     15  H5  UNL     1      15.625   7.724  -8.899  1.00  0.00     0.209 HD
ENDBRANCH  13  14
ENDBRANCH  10  13
ENDBRANCH   1  10
TORSDOF 7
ENDMDL
