MODEL 9
REMARK VINA RESULT: -6.930759326      4.330      7.602
REMARK  7 active torsions:
REMARK  status: ('A' for Active; 'I' for Inactive)
REMARK    1  A    between atoms: N5_13  and  C6_14 
REMARK    2  A    between atoms: C7_16  and  C8_17 
REMARK    3  A    between atoms: C8_17  and  O2_18 
REMARK    4  A    between atoms: O2_18  and  P1_19 
REMARK    5  A    between atoms: C9_23  and  O6_24 
REMARK    6  A    between atoms: C10_26  and  O7_27 
REMARK    7  A    between atoms: O7_27  and  P2_28 
ROOT
HETATM    1  C6  UNL     1       1.700  14.987  50.353  1.00  0.00     0.263 C 
HETATM    2  O1  UNL     1       0.657  14.065  50.301  1.00  0.00    -0.353 OA
HETATM    3  C7  UNL     1       0.715  13.516  51.581  1.00  0.00     0.180 C 
HETATM    4  C9  UNL     1       0.831  14.717  52.521  1.00  0.00     0.183 C 
HETATM    5  C10 UNL     1       1.403  15.771  51.580  1.00  0.00     0.216 C 
ENDROOT
BRANCH   1   6
HETATM    6  N5  UNL     1       1.803  15.757  49.137  1.00  0.00    -0.297 N 
HETATM    7  C3  UNL     1       0.960  16.686  48.695  1.00  0.00     0.142 A 
HETATM    8  N3  UNL     1      -0.178  17.197  49.170  1.00  0.00    -0.336 N 
HETATM    9  C4  UNL     1       1.451  17.161  47.487  1.00  0.00     0.119 A 
HETATM   10  C2  UNL     1      -0.831  18.159  48.477  1.00  0.00     0.183 A 
ATOM     11  H3  UNL     1      -0.556  16.862  50.057  1.00  0.00     0.168 HD
HETATM   12  N2  UNL     1      -0.359  18.631  47.293  1.00  0.00    -0.339 N 
HETATM   13  C1  UNL     1       0.789  18.145  46.770  1.00  0.00     0.148 A 
ATOM     14  H2  UNL     1      -0.874  19.358  46.796  1.00  0.00     0.167 HD
HETATM   15  N1  UNL     1       1.279  18.644  45.531  1.00  0.00    -0.080 NA
HETATM   16  N4  UNL     1       2.577  16.507  47.230  1.00  0.00    -0.346 N 
HETATM   17  C5  UNL     1       2.794  15.648  48.238  1.00  0.00     0.188 A 
ATOM     18  H4  UNL     1       3.173  16.635  46.411  1.00  0.00     0.167 HD
ENDBRANCH   1   6
BRANCH   5  19
HETATM   19  O7  UNL     1       2.556  16.316  52.034  1.00  0.00    -0.270 OA
BRANCH  19  20
HETATM   20  P2  UNL     1       2.640  17.790  52.371  1.00  0.00     0.422 P 
HETATM   21  O8  UNL     1       2.803  17.433  53.975  1.00  0.00    -0.617 OA
HETATM   22  O9  UNL     1       4.004  17.898  51.405  1.00  0.00    -0.617 OA
HETATM   23  O10 UNL     1       1.207  18.275  51.775  1.00  0.00    -0.617 OA
ENDBRANCH  19  20
ENDBRANCH   5  19
BRANCH   3  24
HETATM   24  C8  UNL     1      -0.513  12.736  51.889  1.00  0.00     0.217 C 
BRANCH  24  25
HETATM   25  O2  UNL     1      -0.570  12.664  53.302  1.00  0.00    -0.280 OA
BRANCH  25  26
HETATM   26  P1  UNL     1      -0.502  11.247  53.878  1.00  0.00     0.422 P 
HETATM   27  O3  UNL     1      -1.886  11.445  54.721  1.00  0.00    -0.617 OA
HETATM   28  O4  UNL     1      -0.451  10.563  52.409  1.00  0.00    -0.617 OA
HETATM   29  O5  UNL     1       0.954  11.697  54.606  1.00  0.00    -0.617 OA
ENDBRANCH  25  26
ENDBRANCH  24  25
ENDBRANCH   3  24
BRANCH   4  30
HETATM   30  O6  UNL     1       1.704  14.471  53.559  1.00  0.00    -0.390 OA
ATOM     31  H6  UNL     1       2.597  14.705  53.332  1.00  0.00     0.210 HD
ENDBRANCH   4  30
TORSDOF 7
ENDMDL
