MODEL 5
REMARK VINA RESULT: -7.478797879      0.935      2.068
REMARK  7 active torsions:
REMARK  status: ('A' for Active; 'I' for Inactive)
REMARK    1  A    between atoms: N5_13  and  C6_14 
REMARK    2  A    between atoms: C7_16  and  C8_17 
REMARK    3  A    between atoms: C8_17  and  O2_18 
REMARK    4  A    between atoms: O2_18  and  P1_19 
REMARK    5  A    between atoms: C9_23  and  O6_24 
REMARK    6  A    between atoms: C10_26  and  O7_27 
REMARK    7  A    between atoms: O7_27  and  P2_28 
ROOT
HETATM    1  C6  UNL     1      -0.669  12.164  52.666  1.00  0.00     0.263 C 
HETATM    2  O1  UNL     1      -0.611  13.402  52.029  1.00  0.00    -0.353 OA
HETATM    3  C7  UNL     1       0.597  13.900  52.514  1.00  0.00     0.180 C 
HETATM    4  C9  UNL     1       1.589  12.746  52.365  1.00  0.00     0.183 C 
HETATM    5  C10 UNL     1       0.644  11.550  52.341  1.00  0.00     0.216 C 
ENDROOT
BRANCH   1   6
HETATM    6  N5  UNL     1      -1.826  11.401  52.262  1.00  0.00    -0.297 N 
HETATM    7  C3  UNL     1      -2.853  11.030  53.020  1.00  0.00     0.142 A 
HETATM    8  N3  UNL     1      -3.162  11.211  54.306  1.00  0.00    -0.336 N 
HETATM    9  C4  UNL     1      -3.731  10.313  52.218  1.00  0.00     0.119 A 
HETATM   10  C2  UNL     1      -4.311  10.699  54.807  1.00  0.00     0.183 A 
ATOM     11  H3  UNL     1      -2.531  11.736  54.912  1.00  0.00     0.168 HD
HETATM   12  N2  UNL     1      -5.177   9.996  54.031  1.00  0.00    -0.339 N 
HETATM   13  C1  UNL     1      -4.909   9.785  52.723  1.00  0.00     0.148 A 
ATOM     14  H2  UNL     1      -6.035   9.625  54.438  1.00  0.00     0.167 HD
HETATM   15  N1  UNL     1      -5.820   9.048  51.915  1.00  0.00    -0.080 NA
HETATM   16  N4  UNL     1      -3.211  10.269  50.998  1.00  0.00    -0.346 N 
HETATM   17  C5  UNL     1      -2.045  10.935  51.023  1.00  0.00     0.188 A 
ATOM     18  H4  UNL     1      -3.625   9.811  50.185  1.00  0.00     0.167 HD
ENDBRANCH   1   6
BRANCH   5  19
HETATM   19  O7  UNL     1       0.935  10.626  53.286  1.00  0.00    -0.270 OA
BRANCH  19  20
HETATM   20  P2  UNL     1       1.427   9.246  52.901  1.00  0.00     0.422 P 
HETATM   21  O8  UNL     1       2.989   9.784  52.896  1.00  0.00    -0.617 OA
HETATM   22  O9  UNL     1       0.761   8.651  54.318  1.00  0.00    -0.617 OA
HETATM   23  O10 UNL     1       0.614   9.060  51.505  1.00  0.00    -0.617 OA
ENDBRANCH  19  20
ENDBRANCH   5  19
BRANCH   3  24
HETATM   24  C8  UNL     1       1.052  15.075  51.723  1.00  0.00     0.217 C 
BRANCH  24  25
HETATM   25  O2  UNL     1       2.131  15.628  52.454  1.00  0.00    -0.280 OA
BRANCH  25  26
HETATM   26  P1  UNL     1       2.523  17.051  52.048  1.00  0.00     0.422 P 
HETATM   27  O3  UNL     1       1.042  17.359  51.429  1.00  0.00    -0.617 OA
HETATM   28  O4  UNL     1       2.951  17.453  53.558  1.00  0.00    -0.617 OA
HETATM   29  O5  UNL     1       3.687  16.359  51.039  1.00  0.00    -0.617 OA
ENDBRANCH  25  26
ENDBRANCH  24  25
ENDBRANCH   3  24
BRANCH   4  30
HETATM   30  O6  UNL     1       2.444  12.663  53.444  1.00  0.00    -0.390 OA
ATOM     31  H6  UNL     1       3.350  12.580  53.171  1.00  0.00     0.210 HD
ENDBRANCH   4  30
TORSDOF 7
ENDMDL
