MODEL 11
REMARK VINA RESULT: -6.887174521      4.396      7.434
REMARK  7 active torsions:
REMARK  status: ('A' for Active; 'I' for Inactive)
REMARK    1  A    between atoms: N5_13  and  C6_14 
REMARK    2  A    between atoms: C7_16  and  C8_17 
REMARK    3  A    between atoms: C8_17  and  O2_18 
REMARK    4  A    between atoms: O2_18  and  P1_19 
REMARK    5  A    between atoms: C9_23  and  O6_24 
REMARK    6  A    between atoms: C10_26  and  O7_27 
REMARK    7  A    between atoms: O7_27  and  P2_28 
ROOT
HETATM    1  C6  UNL     1       1.558  15.086  51.167  1.00  0.00     0.263 C 
HETATM    2  O1  UNL     1       1.027  14.696  52.395  1.00  0.00    -0.353 OA
HETATM    3  C7  UNL     1       0.962  13.313  52.237  1.00  0.00     0.180 C 
HETATM    4  C9  UNL     1       2.322  12.917  51.660  1.00  0.00     0.183 C 
HETATM    5  C10 UNL     1       2.767  14.234  51.032  1.00  0.00     0.216 C 
ENDROOT
BRANCH   1   6
HETATM    6  N5  UNL     1       1.795  16.509  51.107  1.00  0.00    -0.297 N 
HETATM    7  C3  UNL     1       1.925  17.260  50.018  1.00  0.00     0.142 A 
HETATM    8  N3  UNL     1       1.887  16.999  48.709  1.00  0.00    -0.336 N 
HETATM    9  C4  UNL     1       2.142  18.567  50.431  1.00  0.00     0.119 A 
HETATM   10  C2  UNL     1       2.059  17.998  47.812  1.00  0.00     0.183 A 
ATOM     11  H3  UNL     1       1.728  16.045  48.385  1.00  0.00     0.168 HD
HETATM   12  N2  UNL     1       2.272  19.281  48.206  1.00  0.00    -0.339 N 
HETATM   13  C1  UNL     1       2.319  19.597  49.519  1.00  0.00     0.148 A 
ATOM     14  H2  UNL     1       2.396  20.012  47.505  1.00  0.00     0.167 HD
HETATM   15  N1  UNL     1       2.542  20.942  49.926  1.00  0.00    -0.080 NA
HETATM   16  N4  UNL     1       2.138  18.572  51.757  1.00  0.00    -0.346 N 
HETATM   17  C5  UNL     1       1.925  17.313  52.173  1.00  0.00     0.188 A 
ATOM     18  H4  UNL     1       2.271  19.388  52.355  1.00  0.00     0.167 HD
ENDBRANCH   1   6
BRANCH   5  19
HETATM   19  O7  UNL     1       3.070  14.118  49.718  1.00  0.00    -0.270 OA
BRANCH  19  20
HETATM   20  P2  UNL     1       4.486  14.329  49.223  1.00  0.00     0.422 P 
HETATM   21  O8  UNL     1       4.794  12.711  49.359  1.00  0.00    -0.617 OA
HETATM   22  O9  UNL     1       3.859  14.933  47.793  1.00  0.00    -0.617 OA
HETATM   23  O10 UNL     1       5.007  15.367  50.361  1.00  0.00    -0.617 OA
ENDBRANCH  19  20
ENDBRANCH   5  19
BRANCH   3  24
HETATM   24  C8  UNL     1       0.736  12.632  53.539  1.00  0.00     0.217 C 
BRANCH  24  25
HETATM   25  O2  UNL     1       1.317  11.348  53.400  1.00  0.00    -0.280 OA
BRANCH  25  26
HETATM   26  P1  UNL     1       0.359  10.178  53.634  1.00  0.00     0.422 P 
HETATM   27  O3  UNL     1       1.522   9.271  54.335  1.00  0.00    -0.617 OA
HETATM   28  O4  UNL     1      -0.681  11.090  54.478  1.00  0.00    -0.617 OA
HETATM   29  O5  UNL     1       0.176  10.093  51.957  1.00  0.00    -0.617 OA
ENDBRANCH  25  26
ENDBRANCH  24  25
ENDBRANCH   3  24
BRANCH   4  30
HETATM   30  O6  UNL     1       2.204  11.939  50.696  1.00  0.00    -0.390 OA
ATOM     31  H6  UNL     1       2.801  11.216  50.851  1.00  0.00     0.210 HD
ENDBRANCH   4  30
TORSDOF 7
ENDMDL
