MODEL 2
REMARK VINA RESULT: -7.698438532      0.963      1.894
REMARK  7 active torsions:
REMARK  status: ('A' for Active; 'I' for Inactive)
REMARK    1  A    between atoms: N5_13  and  C6_14 
REMARK    2  A    between atoms: C7_16  and  C8_17 
REMARK    3  A    between atoms: C8_17  and  O2_18 
REMARK    4  A    between atoms: O2_18  and  P1_19 
REMARK    5  A    between atoms: C9_23  and  O6_24 
REMARK    6  A    between atoms: C10_26  and  O7_27 
REMARK    7  A    between atoms: O7_27  and  P2_28 
ROOT
HETATM    1  C6  UNL     1       0.225  12.108  52.787  1.00  0.00     0.263 C 
HETATM    2  O1  UNL     1       0.322  13.240  51.980  1.00  0.00    -0.353 OA
HETATM    3  C7  UNL     1       1.673  13.554  52.113  1.00  0.00     0.180 C 
HETATM    4  C9  UNL     1       2.409  12.227  51.921  1.00  0.00     0.183 C 
HETATM    5  C10 UNL     1       1.310  11.231  52.276  1.00  0.00     0.216 C 
ENDROOT
BRANCH   1   6
HETATM    6  N5  UNL     1      -1.099  11.534  52.758  1.00  0.00    -0.297 N 
HETATM    7  C3  UNL     1      -1.988  11.506  53.746  1.00  0.00     0.142 A 
HETATM    8  N3  UNL     1      -1.982  11.956  55.003  1.00  0.00    -0.336 N 
HETATM    9  C4  UNL     1      -3.120  10.854  53.276  1.00  0.00     0.119 A 
HETATM   10  C2  UNL     1      -3.065  11.773  55.794  1.00  0.00     0.183 A 
ATOM     11  H3  UNL     1      -1.160  12.438  55.368  1.00  0.00     0.168 HD
HETATM   12  N2  UNL     1      -4.179  11.137  55.344  1.00  0.00    -0.339 N 
HETATM   13  C1  UNL     1      -4.233  10.663  54.080  1.00  0.00     0.148 A 
ATOM     14  H2  UNL     1      -4.980  11.017  55.965  1.00  0.00     0.167 HD
HETATM   15  N1  UNL     1      -5.402   9.998  53.613  1.00  0.00    -0.080 NA
HETATM   16  N4  UNL     1      -2.885  10.507  52.018  1.00  0.00    -0.346 N 
HETATM   17  C5  UNL     1      -1.649  10.921  51.699  1.00  0.00     0.188 A 
ATOM     18  H4  UNL     1      -3.531  10.012  51.401  1.00  0.00     0.167 HD
ENDBRANCH   1   6
BRANCH   5  19
HETATM   19  O7  UNL     1       1.671  10.373  53.259  1.00  0.00    -0.270 OA
BRANCH  19  20
HETATM   20  P2  UNL     1       1.778   8.885  52.993  1.00  0.00     0.422 P 
HETATM   21  O8  UNL     1       3.411   8.940  53.240  1.00  0.00    -0.617 OA
HETATM   22  O9  UNL     1       0.754   8.616  54.291  1.00  0.00    -0.617 OA
HETATM   23  O10 UNL     1       1.173   8.846  51.485  1.00  0.00    -0.617 OA
ENDBRANCH  19  20
ENDBRANCH   5  19
BRANCH   3  24
HETATM   24  C8  UNL     1       2.103  14.536  51.081  1.00  0.00     0.217 C 
BRANCH  24  25
HETATM   25  O2  UNL     1       2.579  15.657  51.802  1.00  0.00    -0.280 OA
BRANCH  25  26
HETATM   26  P1  UNL     1       3.268  16.726  50.949  1.00  0.00     0.422 P 
HETATM   27  O3  UNL     1       4.506  15.729  50.570  1.00  0.00    -0.617 OA
HETATM   28  O4  UNL     1       1.969  16.923  49.999  1.00  0.00    -0.617 OA
HETATM   29  O5  UNL     1       3.387  17.658  52.351  1.00  0.00    -0.617 OA
ENDBRANCH  25  26
ENDBRANCH  24  25
ENDBRANCH   3  24
BRANCH   4  30
HETATM   30  O6  UNL     1       3.473  12.101  52.789  1.00  0.00    -0.390 OA
ATOM     31  H6  UNL     1       3.206  11.740  53.625  1.00  0.00     0.210 HD
ENDBRANCH   4  30
TORSDOF 7
ENDMDL
