MODEL 14
REMARK VINA RESULT: -5.317987376      1.857      3.934
REMARK  3 active torsions:
REMARK  status: ('A' for Active; 'I' for Inactive)
REMARK    1  A    between atoms: C1_2  and  C2_4 
REMARK    2  A    between atoms: C2_4  and  C3_5 
REMARK    3  A    between atoms: C3_5  and  C4_7 
ROOT
HETATM    1  C3  UNL     1       7.835 -17.778 -40.998  1.00  0.00     0.234 C 
HETATM    2  O3  UNL     1       6.611 -18.061 -41.074  1.00  0.00    -0.285 OA
ENDROOT
BRANCH   1   3
HETATM    3  C2  UNL     1       8.764 -18.222 -42.064  1.00  0.00     0.203 C 
BRANCH   3   4
HETATM    4  C1  UNL     1       8.158 -19.381 -42.789  1.00  0.00     0.180 C 
HETATM    5  O1  UNL     1       8.237 -20.558 -42.352  1.00  0.00    -0.648 OA
HETATM    6  O2  UNL     1       7.489 -19.144 -43.977  1.00  0.00    -0.648 OA
ENDBRANCH   3   4
ENDBRANCH   1   3
BRANCH   1   7
HETATM    7  C4  UNL     1       8.321 -17.015 -39.860  1.00  0.00     0.247 C 
HETATM    8  O4  UNL     1       8.389 -17.540 -38.723  1.00  0.00    -0.642 OA
HETATM    9  O5  UNL     1       8.720 -15.695 -39.994  1.00  0.00    -0.642 OA
ENDBRANCH   1   7
TORSDOF 3
ENDMDL
