MODEL 13
REMARK VINA RESULT: -5.336190870      1.626      3.664
REMARK  3 active torsions:
REMARK  status: ('A' for Active; 'I' for Inactive)
REMARK    1  A    between atoms: C1_2  and  C2_4 
REMARK    2  A    between atoms: C2_4  and  C3_5 
REMARK    3  A    between atoms: C3_5  and  C4_7 
ROOT
HETATM    1  C3  UNL     1       9.149 -17.661 -41.550  1.00  0.00     0.234 C 
HETATM    2  O3  UNL     1      10.381 -17.465 -41.385  1.00  0.00    -0.285 OA
ENDROOT
BRANCH   1   3
HETATM    3  C2  UNL     1       8.666 -18.325 -42.783  1.00  0.00     0.203 C 
BRANCH   3   4
HETATM    4  C1  UNL     1       8.042 -19.635 -42.421  1.00  0.00     0.180 C 
HETATM    5  O1  UNL     1       6.796 -19.808 -42.434  1.00  0.00    -0.648 OA
HETATM    6  O2  UNL     1       8.868 -20.686 -42.061  1.00  0.00    -0.648 OA
ENDBRANCH   3   4
ENDBRANCH   1   3
BRANCH   1   7
HETATM    7  C4  UNL     1       8.215 -17.231 -40.523  1.00  0.00     0.247 C 
HETATM    8  O4  UNL     1       7.274 -16.450 -40.804  1.00  0.00    -0.642 OA
HETATM    9  O5  UNL     1       8.333 -17.666 -39.213  1.00  0.00    -0.642 OA
ENDBRANCH   1   7
TORSDOF 3
ENDMDL
