MODEL 1
REMARK VINA RESULT: -9.083162440      0.000      0.000
REMARK  4 active torsions:
REMARK  status: ('A' for Active; 'I' for Inactive)
REMARK    1  A    between atoms: C6_8  and  C7_9 
REMARK    2  A    between atoms: C7_9  and  N1_10 
REMARK    3  A    between atoms: N1_10  and  S1_12 
REMARK    4  A    between atoms: S1_12  and  N2_13 
ROOT
HETATM    1  C1  UNL     1      -4.380  -0.395  10.569  1.00  0.00     0.078 C 
HETATM    2  C2  UNL     1      -3.515   0.722  11.082  1.00  0.00     0.158 C 
HETATM    3  C3  UNL     1      -2.096   0.224  11.158  1.00  0.00     0.078 C 
HETATM    4  O1  UNL     1      -3.517   1.845  10.278  1.00  0.00    -0.346 OA
HETATM    5  C4  UNL     1      -4.041   2.897  11.033  1.00  0.00     0.180 C 
HETATM    6  C5  UNL     1      -2.986   3.502  11.947  1.00  0.00     0.206 C 
HETATM    7  O2  UNL     1      -3.115   3.038  13.224  1.00  0.00    -0.349 OA
HETATM    8  C6  UNL     1      -4.255   3.708  13.826  1.00  0.00     0.213 C 
HETATM    9  O5  UNL     1      -4.355   4.952  13.507  1.00  0.00    -0.315 OA
HETATM   10  C8  UNL     1      -5.590   5.197  12.906  1.00  0.00     0.161 C 
HETATM   11  C9  UNL     1      -5.386   6.187  11.784  1.00  0.00     0.078 C 
HETATM   12  C10 UNL     1      -6.575   5.808  13.868  1.00  0.00     0.078 C 
HETATM   13  O6  UNL     1      -6.117   4.011  12.465  1.00  0.00    -0.342 OA
HETATM   14  C11 UNL     1      -5.416   2.979  13.028  1.00  0.00     0.221 C 
HETATM   15  C12 UNL     1      -4.929   2.075  11.966  1.00  0.00     0.191 C 
HETATM   16  O7  UNL     1      -4.027   1.094  12.330  1.00  0.00    -0.345 OA
ENDROOT
BRANCH   8  17
HETATM   17  C7  UNL     1      -4.400   3.089  15.159  1.00  0.00     0.205 C 
BRANCH  17  18
HETATM   18  N1  UNL     1      -5.422   2.108  15.287  1.00  0.00    -0.298 N 
ATOM     19  H1  UNL     1      -6.381   2.173  14.945  1.00  0.00     0.173 HD
BRANCH  18  20
HETATM   20  S1  UNL     1      -4.691   0.754  16.159  1.00  0.00     0.312 S 
HETATM   21  O3  UNL     1      -3.296   1.006  16.543  1.00  0.00    -0.183 OA
HETATM   22  O4  UNL     1      -4.700  -0.377  15.090  1.00  0.00    -0.183 OA
BRANCH  20  23
HETATM   23  N2  UNL     1      -5.642   0.249  17.461  1.00  0.00    -0.312 N 
ATOM     24  H22 UNL     1      -6.166  -0.626  17.463  1.00  0.00     0.170 HD
ATOM     25  H21 UNL     1      -5.625   0.920  18.230  1.00  0.00     0.170 HD
ENDBRANCH  20  23
ENDBRANCH  18  20
ENDBRANCH  17  18
ENDBRANCH   8  17
TORSDOF 4
ENDMDL
