MODEL 4
REMARK VINA RESULT: -7.225014865      2.608      4.974
REMARK  4 active torsions:
REMARK  status: ('A' for Active; 'I' for Inactive)
REMARK    1  A    between atoms: C6_8  and  C7_9 
REMARK    2  A    between atoms: C7_9  and  N1_10 
REMARK    3  A    between atoms: N1_10  and  S1_12 
REMARK    4  A    between atoms: S1_12  and  N2_13 
ROOT
HETATM    1  C1  UNL     1      -5.803   5.456  15.160  1.00  0.00     0.078 C 
HETATM    2  C2  UNL     1      -5.780   5.351  13.661  1.00  0.00     0.158 C 
HETATM    3  C3  UNL     1      -7.094   5.864  13.131  1.00  0.00     0.078 C 
HETATM    4  O1  UNL     1      -4.777   6.090  13.064  1.00  0.00    -0.346 OA
HETATM    5  C4  UNL     1      -3.938   5.192  12.400  1.00  0.00     0.180 C 
HETATM    6  C5  UNL     1      -4.509   4.797  11.046  1.00  0.00     0.206 C 
HETATM    7  O2  UNL     1      -5.119   3.578  11.105  1.00  0.00    -0.349 OA
HETATM    8  C6  UNL     1      -4.080   2.564  11.145  1.00  0.00     0.213 C 
HETATM    9  O5  UNL     1      -3.074   2.820  10.383  1.00  0.00    -0.315 OA
HETATM   10  C8  UNL     1      -1.899   2.861  11.133  1.00  0.00     0.161 C 
HETATM   11  C9  UNL     1      -1.029   3.973  10.598  1.00  0.00     0.078 C 
HETATM   12  C10 UNL     1      -1.111   1.582  11.019  1.00  0.00     0.078 C 
HETATM   13  O6  UNL     1      -2.218   3.039  12.455  1.00  0.00    -0.342 OA
HETATM   14  C11 UNL     1      -3.556   2.808  12.622  1.00  0.00     0.221 C 
HETATM   15  C12 UNL     1      -4.178   3.971  13.287  1.00  0.00     0.191 C 
HETATM   16  O7  UNL     1      -5.558   4.005  13.350  1.00  0.00    -0.345 OA
ENDROOT
BRANCH   8  17
HETATM   17  C7  UNL     1      -4.801   1.285  11.311  1.00  0.00     0.205 C 
BRANCH  17  18
HETATM   18  N1  UNL     1      -4.175   0.318  12.146  1.00  0.00    -0.298 N 
ATOM     19  H1  UNL     1      -4.019   0.384  13.152  1.00  0.00     0.173 HD
BRANCH  18  20
HETATM   20  S1  UNL     1      -3.722  -1.022  11.084  1.00  0.00     0.312 S 
HETATM   21  O3  UNL     1      -3.632  -0.628   9.671  1.00  0.00    -0.183 OA
HETATM   22  O4  UNL     1      -4.928  -1.994  11.237  1.00  0.00    -0.183 OA
BRANCH  20  23
HETATM   23  N2  UNL     1      -2.335  -1.821  11.625  1.00  0.00    -0.312 N 
ATOM     24  H22 UNL     1      -2.133  -1.981  12.611  1.00  0.00     0.170 HD
ATOM     25  H21 UNL     1      -1.737  -2.117  10.852  1.00  0.00     0.170 HD
ENDBRANCH  20  23
ENDBRANCH  18  20
ENDBRANCH  17  18
ENDBRANCH   8  17
TORSDOF 4
ENDMDL
