MODEL 10
REMARK VINA RESULT: -6.945132975      3.791      5.186
REMARK  4 active torsions:
REMARK  status: ('A' for Active; 'I' for Inactive)
REMARK    1  A    between atoms: C6_8  and  C7_9 
REMARK    2  A    between atoms: C7_9  and  N1_10 
REMARK    3  A    between atoms: N1_10  and  S1_12 
REMARK    4  A    between atoms: S1_12  and  N2_13 
ROOT
HETATM    1  C1  UNL     1      -3.143  -1.321  11.381  1.00  0.00     0.078 C 
HETATM    2  C2  UNL     1      -3.794  -0.052  10.908  1.00  0.00     0.158 C 
HETATM    3  C3  UNL     1      -4.627  -0.372   9.694  1.00  0.00     0.078 C 
HETATM    4  O1  UNL     1      -4.631   0.528  11.841  1.00  0.00    -0.346 OA
HETATM    5  C4  UNL     1      -4.104   1.786  12.146  1.00  0.00     0.180 C 
HETATM    6  C5  UNL     1      -4.491   2.818  11.097  1.00  0.00     0.206 C 
HETATM    7  O2  UNL     1      -3.469   3.036  10.219  1.00  0.00    -0.349 OA
HETATM    8  C6  UNL     1      -2.474   3.853  10.891  1.00  0.00     0.213 C 
HETATM    9  O5  UNL     1      -2.976   4.772  11.641  1.00  0.00    -0.315 OA
HETATM   10  C8  UNL     1      -2.525   4.624  12.953  1.00  0.00     0.161 C 
HETATM   11  C9  UNL     1      -3.665   4.944  13.889  1.00  0.00     0.078 C 
HETATM   12  C10 UNL     1      -1.402   5.576  13.274  1.00  0.00     0.078 C 
HETATM   13  O6  UNL     1      -2.053   3.348  13.122  1.00  0.00    -0.342 OA
HETATM   14  C11 UNL     1      -1.901   2.766  11.893  1.00  0.00     0.221 C 
HETATM   15  C12 UNL     1      -2.634   1.483  11.860  1.00  0.00     0.191 C 
HETATM   16  O7  UNL     1      -2.766   0.858  10.636  1.00  0.00    -0.345 OA
ENDROOT
BRANCH   8  17
HETATM   17  C7  UNL     1      -1.359   3.964   9.929  1.00  0.00     0.205 C 
BRANCH  17  18
HETATM   18  N1  UNL     1      -0.289   3.042  10.103  1.00  0.00    -0.298 N 
ATOM     19  H1  UNL     1      -0.358   2.026  10.166  1.00  0.00     0.173 HD
BRANCH  18  20
HETATM   20  S1  UNL     1       1.185   4.017  10.185  1.00  0.00     0.312 S 
HETATM   21  O3  UNL     1       1.109   5.240   9.375  1.00  0.00    -0.183 OA
HETATM   22  O4  UNL     1       2.245   3.078   9.541  1.00  0.00    -0.183 OA
BRANCH  20  23
HETATM   23  N2  UNL     1       1.657   4.323  11.779  1.00  0.00    -0.312 N 
ATOM     24  H22 UNL     1       1.402   3.719  12.561  1.00  0.00     0.170 HD
ATOM     25  H21 UNL     1       2.217   5.172  11.857  1.00  0.00     0.170 HD
ENDBRANCH  20  23
ENDBRANCH  18  20
ENDBRANCH  17  18
ENDBRANCH   8  17
TORSDOF 4
ENDMDL
