MODEL 8
REMARK VINA RESULT: -7.009812727      2.662      4.510
REMARK  4 active torsions:
REMARK  status: ('A' for Active; 'I' for Inactive)
REMARK    1  A    between atoms: C6_8  and  C7_9 
REMARK    2  A    between atoms: C7_9  and  N1_10 
REMARK    3  A    between atoms: N1_10  and  S1_12 
REMARK    4  A    between atoms: S1_12  and  N2_13 
ROOT
HETATM    1  C1  UNL     1      -6.292   6.908   9.508  1.00  0.00     0.078 C 
HETATM    2  C2  UNL     1      -5.017   6.125   9.658  1.00  0.00     0.158 C 
HETATM    3  C3  UNL     1      -4.347   6.052   8.311  1.00  0.00     0.078 C 
HETATM    4  O1  UNL     1      -4.115   6.690  10.538  1.00  0.00    -0.346 OA
HETATM    5  C4  UNL     1      -3.926   5.779  11.581  1.00  0.00     0.180 C 
HETATM    6  C5  UNL     1      -2.933   4.693  11.195  1.00  0.00     0.206 C 
HETATM    7  O2  UNL     1      -3.575   3.545  10.830  1.00  0.00    -0.349 OA
HETATM    8  C6  UNL     1      -4.055   2.903  12.040  1.00  0.00     0.213 C 
HETATM    9  O5  UNL     1      -3.233   2.975  13.030  1.00  0.00    -0.315 OA
HETATM   10  C8  UNL     1      -3.842   3.599  14.118  1.00  0.00     0.161 C 
HETATM   11  C9  UNL     1      -2.823   4.486  14.791  1.00  0.00     0.078 C 
HETATM   12  C10 UNL     1      -4.319   2.605  15.145  1.00  0.00     0.078 C 
HETATM   13  O6  UNL     1      -4.935   4.301  13.678  1.00  0.00    -0.342 OA
HETATM   14  C11 UNL     1      -5.229   3.907  12.401  1.00  0.00     0.221 C 
HETATM   15  C12 UNL     1      -5.289   5.090  11.519  1.00  0.00     0.191 C 
HETATM   16  O7  UNL     1      -5.368   4.867  10.158  1.00  0.00    -0.345 OA
ENDROOT
BRANCH   8  17
HETATM   17  C7  UNL     1      -4.823   1.731  11.571  1.00  0.00     0.205 C 
BRANCH  17  18
HETATM   18  N1  UNL     1      -4.404   0.467  12.073  1.00  0.00    -0.298 N 
ATOM     19  H1  UNL     1      -4.592   0.082  12.999  1.00  0.00     0.173 HD
BRANCH  18  20
HETATM   20  S1  UNL     1      -3.494  -0.300  10.764  1.00  0.00     0.312 S 
HETATM   21  O3  UNL     1      -2.230   0.387  10.468  1.00  0.00    -0.183 OA
HETATM   22  O4  UNL     1      -4.441  -0.114   9.544  1.00  0.00    -0.183 OA
BRANCH  20  23
HETATM   23  N2  UNL     1      -3.289  -1.957  11.019  1.00  0.00    -0.312 N 
ATOM     24  H22 UNL     1      -3.992  -2.543  11.470  1.00  0.00     0.170 HD
ATOM     25  H21 UNL     1      -2.388  -2.290  10.673  1.00  0.00     0.170 HD
ENDBRANCH  20  23
ENDBRANCH  18  20
ENDBRANCH  17  18
ENDBRANCH   8  17
TORSDOF 4
ENDMDL
