MODEL 2
REMARK VINA RESULT: -8.921082252      0.782      1.017
REMARK  4 active torsions:
REMARK  status: ('A' for Active; 'I' for Inactive)
REMARK    1  A    between atoms: C6_8  and  C7_9 
REMARK    2  A    between atoms: C7_9  and  N1_10 
REMARK    3  A    between atoms: N1_10  and  S1_12 
REMARK    4  A    between atoms: S1_12  and  N2_13 
ROOT
HETATM    1  C1  UNL     1      -4.391  -0.455  10.665  1.00  0.00     0.078 C 
HETATM    2  C2  UNL     1      -3.526   0.691  11.107  1.00  0.00     0.158 C 
HETATM    3  C3  UNL     1      -2.097   0.216  11.153  1.00  0.00     0.078 C 
HETATM    4  O1  UNL     1      -3.571   1.784  10.263  1.00  0.00    -0.346 OA
HETATM    5  C4  UNL     1      -4.086   2.856  10.997  1.00  0.00     0.180 C 
HETATM    6  C5  UNL     1      -3.009   3.509  11.852  1.00  0.00     0.206 C 
HETATM    7  O2  UNL     1      -3.088   3.090  13.149  1.00  0.00    -0.349 OA
HETATM    8  C6  UNL     1      -4.217   3.766  13.764  1.00  0.00     0.213 C 
HETATM    9  O5  UNL     1      -4.347   4.996  13.405  1.00  0.00    -0.315 OA
HETATM   10  C8  UNL     1      -5.604   5.202  12.837  1.00  0.00     0.161 C 
HETATM   11  C9  UNL     1      -5.453   6.153  11.674  1.00  0.00     0.078 C 
HETATM   12  C10 UNL     1      -6.565   5.834  13.810  1.00  0.00     0.078 C 
HETATM   13  O6  UNL     1      -6.128   3.993  12.458  1.00  0.00    -0.342 OA
HETATM   14  C11 UNL     1      -5.393   2.993  13.034  1.00  0.00     0.221 C 
HETATM   15  C12 UNL     1      -4.929   2.056  11.990  1.00  0.00     0.191 C 
HETATM   16  O7  UNL     1      -4.001   1.102  12.358  1.00  0.00    -0.345 OA
ENDROOT
BRANCH   8  17
HETATM   17  C7  UNL     1      -4.308   3.195  15.124  1.00  0.00     0.205 C 
BRANCH  17  18
HETATM   18  N1  UNL     1      -5.316   2.211  15.324  1.00  0.00    -0.298 N 
ATOM     19  H1  UNL     1      -6.312   2.303  15.124  1.00  0.00     0.173 HD
BRANCH  18  20
HETATM   20  S1  UNL     1      -4.490   0.796  15.989  1.00  0.00     0.312 S 
HETATM   21  O3  UNL     1      -5.236   0.158  17.082  1.00  0.00    -0.183 OA
HETATM   22  O4  UNL     1      -3.194   1.415  16.588  1.00  0.00    -0.183 OA
BRANCH  20  23
HETATM   23  N2  UNL     1      -4.037  -0.300  14.786  1.00  0.00    -0.312 N 
ATOM     24  H22 UNL     1      -4.660  -0.587  14.031  1.00  0.00     0.170 HD
ATOM     25  H21 UNL     1      -3.080  -0.633  14.909  1.00  0.00     0.170 HD
ENDBRANCH  20  23
ENDBRANCH  18  20
ENDBRANCH  17  18
ENDBRANCH   8  17
TORSDOF 4
ENDMDL
