MODEL 2
REMARK VINA RESULT: -9.985759658      0.372      1.147
REMARK  6 active torsions:
REMARK  status: ('A' for Active; 'I' for Inactive)
REMARK    1  A    between atoms: C1_2  and  C2_4 
REMARK    2  A    between atoms: C2_4  and  C3_5 
REMARK    3  A    between atoms: C2_4  and  N2_9 
REMARK    4  A    between atoms: C3_5  and  C4_6 
REMARK       I    between atoms: N2_9  and  C5_11 
REMARK    5  A    between atoms: C5_11  and  C6_13 
REMARK    6  A    between atoms: C6_13  and  P1_14 
ROOT
HETATM    1  N2  UNL     1      67.723  52.579  61.859  1.00  0.00    -0.347 N 
ATOM      2  H2  UNL     1      68.375  52.107  61.232  1.00  0.00     0.163 HD
HETATM    3  C5  UNL     1      67.532  52.106  63.180  1.00  0.00     0.231 C 
HETATM    4  O4  UNL     1      66.721  52.715  63.929  1.00  0.00    -0.273 OA
ENDROOT
BRANCH   1   5
HETATM    5  C2  UNL     1      66.988  53.733  61.407  1.00  0.00     0.183 C 
BRANCH   5   6
HETATM    6  C1  UNL     1      65.706  53.339  60.783  1.00  0.00     0.254 C 
HETATM    7  N1  UNL     1      65.093  54.172  59.818  1.00  0.00    -0.060 NA
HETATM    8  O1  UNL     1      65.172  52.265  61.115  1.00  0.00    -0.275 OA
ENDBRANCH   5   6
BRANCH   5   9
HETATM    9  C3  UNL     1      67.769  54.543  60.383  1.00  0.00     0.147 C 
BRANCH   9  10
HETATM   10  C4  UNL     1      68.535  53.703  59.455  1.00  0.00     0.174 C 
HETATM   11  O2  UNL     1      68.066  52.608  59.081  1.00  0.00    -0.648 OA
HETATM   12  O3  UNL     1      69.786  54.151  59.005  1.00  0.00    -0.648 OA
ENDBRANCH   9  10
ENDBRANCH   5   9
ENDBRANCH   1   5
BRANCH   3  13
HETATM   13  C6  UNL     1      68.245  50.924  63.719  1.00  0.00     0.248 C 
BRANCH  13  14
HETATM   14  P1  UNL     1      67.552  49.356  63.558  1.00  0.00     0.268 P 
HETATM   15  O5  UNL     1      67.038  49.476  62.109  1.00  0.00    -0.639 OA
HETATM   16  O6  UNL     1      65.970  49.042  64.010  1.00  0.00    -0.639 OA
HETATM   17  O7  UNL     1      68.505  48.072  63.084  1.00  0.00    -0.639 OA
ENDBRANCH  13  14
ENDBRANCH   3  13
TORSDOF 6
ENDMDL
