MODEL 3
REMARK VINA RESULT: -9.515647855      1.074      1.260
REMARK  6 active torsions:
REMARK  status: ('A' for Active; 'I' for Inactive)
REMARK    1  A    between atoms: C1_2  and  C2_4 
REMARK    2  A    between atoms: C2_4  and  C3_5 
REMARK    3  A    between atoms: C2_4  and  N2_9 
REMARK    4  A    between atoms: C3_5  and  C4_6 
REMARK       I    between atoms: N2_9  and  C5_11 
REMARK    5  A    between atoms: C5_11  and  C6_13 
REMARK    6  A    between atoms: C6_13  and  P1_14 
ROOT
HETATM    1  N2  UNL     1      67.524  52.115  61.771  1.00  0.00    -0.347 N 
ATOM      2  H2  UNL     1      67.837  51.336  61.192  1.00  0.00     0.163 HD
HETATM    3  C5  UNL     1      67.469  51.981  63.180  1.00  0.00     0.231 C 
HETATM    4  O4  UNL     1      67.081  52.965  63.865  1.00  0.00    -0.273 OA
ENDROOT
BRANCH   1   5
HETATM    5  C2  UNL     1      67.136  53.361  61.163  1.00  0.00     0.183 C 
BRANCH   5   6
HETATM    6  C1  UNL     1      65.693  53.368  60.835  1.00  0.00     0.254 C 
HETATM    7  N1  UNL     1      65.264  53.360  59.487  1.00  0.00    -0.060 NA
HETATM    8  O1  UNL     1      64.858  53.379  61.758  1.00  0.00    -0.275 OA
ENDBRANCH   5   6
BRANCH   5   9
HETATM    9  C3  UNL     1      67.901  53.633  59.877  1.00  0.00     0.147 C 
BRANCH   9  10
HETATM   10  C4  UNL     1      68.552  54.948  59.867  1.00  0.00     0.174 C 
HETATM   11  O2  UNL     1      69.755  55.046  60.186  1.00  0.00    -0.648 OA
HETATM   12  O3  UNL     1      67.803  56.075  59.497  1.00  0.00    -0.648 OA
ENDBRANCH   9  10
ENDBRANCH   5   9
ENDBRANCH   1   5
BRANCH   3  13
HETATM   13  C6  UNL     1      67.847  50.732  63.882  1.00  0.00     0.248 C 
BRANCH  13  14
HETATM   14  P1  UNL     1      67.718  49.219  63.071  1.00  0.00     0.268 P 
HETATM   15  O5  UNL     1      66.744  48.517  64.039  1.00  0.00    -0.639 OA
HETATM   16  O6  UNL     1      68.790  47.967  63.366  1.00  0.00    -0.639 OA
HETATM   17  O7  UNL     1      66.599  49.025  61.849  1.00  0.00    -0.639 OA
ENDBRANCH  13  14
ENDBRANCH   3  13
TORSDOF 6
ENDMDL
