MODEL 13
REMARK VINA RESULT: -8.076118321      2.601      5.801
REMARK  6 active torsions:
REMARK  status: ('A' for Active; 'I' for Inactive)
REMARK    1  A    between atoms: C1_2  and  C2_4 
REMARK    2  A    between atoms: C2_4  and  C3_5 
REMARK    3  A    between atoms: C2_4  and  N2_9 
REMARK    4  A    between atoms: C3_5  and  C4_6 
REMARK       I    between atoms: N2_9  and  C5_11 
REMARK    5  A    between atoms: C5_11  and  C6_13 
REMARK    6  A    between atoms: C6_13  and  P1_14 
ROOT
HETATM    1  N2  UNL     1      68.000  52.707  63.812  1.00  0.00    -0.347 N 
ATOM      2  H2  UNL     1      68.721  53.390  64.046  1.00  0.00     0.163 HD
HETATM    3  C5  UNL     1      67.148  52.921  62.701  1.00  0.00     0.231 C 
HETATM    4  O4  UNL     1      66.271  52.054  62.437  1.00  0.00    -0.273 OA
ENDROOT
BRANCH   1   5
HETATM    5  C2  UNL     1      67.842  51.518  64.608  1.00  0.00     0.183 C 
BRANCH   5   6
HETATM    6  C1  UNL     1      68.335  51.728  65.986  1.00  0.00     0.254 C 
HETATM    7  N1  UNL     1      67.472  51.548  67.092  1.00  0.00    -0.060 NA
HETATM    8  O1  UNL     1      69.520  52.065  66.165  1.00  0.00    -0.275 OA
ENDBRANCH   5   6
BRANCH   5   9
HETATM    9  C3  UNL     1      68.598  50.334  64.024  1.00  0.00     0.147 C 
BRANCH   9  10
HETATM   10  C4  UNL     1      67.729  49.185  63.741  1.00  0.00     0.174 C 
HETATM   11  O2  UNL     1      68.219  48.141  63.263  1.00  0.00    -0.648 OA
HETATM   12  O3  UNL     1      66.357  49.286  64.015  1.00  0.00    -0.648 OA
ENDBRANCH   9  10
ENDBRANCH   5   9
ENDBRANCH   1   5
BRANCH   3  13
HETATM   13  C6  UNL     1      67.244  54.119  61.835  1.00  0.00     0.248 C 
BRANCH  13  14
HETATM   14  P1  UNL     1      66.607  54.075  60.236  1.00  0.00     0.268 P 
HETATM   15  O5  UNL     1      67.368  55.280  59.647  1.00  0.00    -0.639 OA
HETATM   16  O6  UNL     1      65.190  54.871  59.830  1.00  0.00    -0.639 OA
HETATM   17  O7  UNL     1      67.319  53.100  59.085  1.00  0.00    -0.639 OA
ENDBRANCH  13  14
ENDBRANCH   3  13
TORSDOF 6
ENDMDL
