MODEL 10
REMARK VINA RESULT: -8.733561605      2.169      5.571
REMARK  6 active torsions:
REMARK  status: ('A' for Active; 'I' for Inactive)
REMARK    1  A    between atoms: C1_2  and  C2_4 
REMARK    2  A    between atoms: C2_4  and  C3_5 
REMARK    3  A    between atoms: C2_4  and  N2_9 
REMARK    4  A    between atoms: C3_5  and  C4_6 
REMARK       I    between atoms: N2_9  and  C5_11 
REMARK    5  A    between atoms: C5_11  and  C6_13 
REMARK    6  A    between atoms: C6_13  and  P1_14 
ROOT
HETATM    1  N2  UNL     1      67.404  52.461  61.824  1.00  0.00    -0.347 N 
ATOM      2  H2  UNL     1      68.350  52.800  61.646  1.00  0.00     0.163 HD
HETATM    3  C5  UNL     1      66.300  53.036  61.148  1.00  0.00     0.231 C 
HETATM    4  O4  UNL     1      65.145  52.591  61.390  1.00  0.00    -0.273 OA
ENDROOT
BRANCH   1   5
HETATM    5  C2  UNL     1      67.180  51.394  62.765  1.00  0.00     0.183 C 
BRANCH   5   6
HETATM    6  C1  UNL     1      67.533  51.813  64.140  1.00  0.00     0.254 C 
HETATM    7  N1  UNL     1      68.804  51.505  64.679  1.00  0.00    -0.060 NA
HETATM    8  O1  UNL     1      66.699  52.440  64.818  1.00  0.00    -0.275 OA
ENDBRANCH   5   6
BRANCH   5   9
HETATM    9  C3  UNL     1      68.004  50.159  62.434  1.00  0.00     0.147 C 
BRANCH   9  10
HETATM   10  C4  UNL     1      67.616  48.986  63.227  1.00  0.00     0.174 C 
HETATM   11  O2  UNL     1      68.398  48.018  63.323  1.00  0.00    -0.648 OA
HETATM   12  O3  UNL     1      66.367  48.978  63.865  1.00  0.00    -0.648 OA
ENDBRANCH   9  10
ENDBRANCH   5   9
ENDBRANCH   1   5
BRANCH   3  13
HETATM   13  C6  UNL     1      66.445  54.139  60.169  1.00  0.00     0.248 C 
BRANCH  13  14
HETATM   14  P1  UNL     1      67.958  54.944  60.002  1.00  0.00     0.268 P 
HETATM   15  O5  UNL     1      68.507  54.161  58.792  1.00  0.00    -0.639 OA
HETATM   16  O6  UNL     1      69.318  54.447  60.842  1.00  0.00    -0.639 OA
HETATM   17  O7  UNL     1      68.057  56.346  59.103  1.00  0.00    -0.639 OA
ENDBRANCH  13  14
ENDBRANCH   3  13
TORSDOF 6
ENDMDL
