MODEL 1
REMARK VINA RESULT: -10.068309889      0.000      0.000
REMARK  6 active torsions:
REMARK  status: ('A' for Active; 'I' for Inactive)
REMARK    1  A    between atoms: C1_2  and  C2_4 
REMARK    2  A    between atoms: C2_4  and  C3_5 
REMARK    3  A    between atoms: C2_4  and  N2_9 
REMARK    4  A    between atoms: C3_5  and  C4_6 
REMARK       I    between atoms: N2_9  and  C5_11 
REMARK    5  A    between atoms: C5_11  and  C6_13 
REMARK    6  A    between atoms: C6_13  and  P1_14 
ROOT
HETATM    1  N2  UNL     1      67.658  52.424  61.994  1.00  0.00    -0.347 N 
ATOM      2  H2  UNL     1      68.271  51.915  61.356  1.00  0.00     0.163 HD
HETATM    3  C5  UNL     1      67.437  51.944  63.308  1.00  0.00     0.231 C 
HETATM    4  O4  UNL     1      66.677  52.600  64.071  1.00  0.00    -0.273 OA
ENDROOT
BRANCH   1   5
HETATM    5  C2  UNL     1      67.012  53.638  61.566  1.00  0.00     0.183 C 
BRANCH   5   6
HETATM    6  C1  UNL     1      65.734  53.348  60.880  1.00  0.00     0.254 C 
HETATM    7  N1  UNL     1      65.166  54.293  59.993  1.00  0.00    -0.060 NA
HETATM    8  O1  UNL     1      65.162  52.263  61.090  1.00  0.00    -0.275 OA
ENDBRANCH   5   6
BRANCH   5   9
HETATM    9  C3  UNL     1      67.879  54.438  60.605  1.00  0.00     0.147 C 
BRANCH   9  10
HETATM   10  C4  UNL     1      68.486  53.609  59.558  1.00  0.00     0.174 C 
HETATM   11  O2  UNL     1      67.931  52.547  59.210  1.00  0.00    -0.648 OA
HETATM   12  O3  UNL     1      69.686  54.031  58.965  1.00  0.00    -0.648 OA
ENDBRANCH   9  10
ENDBRANCH   5   9
ENDBRANCH   1   5
BRANCH   3  13
HETATM   13  C6  UNL     1      68.060  50.703  63.824  1.00  0.00     0.248 C 
BRANCH  13  14
HETATM   14  P1  UNL     1      67.787  49.206  63.017  1.00  0.00     0.268 P 
HETATM   15  O5  UNL     1      66.766  48.594  63.998  1.00  0.00    -0.639 OA
HETATM   16  O6  UNL     1      68.747  47.864  63.301  1.00  0.00    -0.639 OA
HETATM   17  O7  UNL     1      66.640  49.112  61.810  1.00  0.00    -0.639 OA
ENDBRANCH  13  14
ENDBRANCH   3  13
TORSDOF 6
ENDMDL
