MODEL 2
REMARK VINA RESULT: -7.731184704      0.118      1.028
REMARK  6 active torsions:
REMARK  status: ('A' for Active; 'I' for Inactive)
REMARK    1  A    between atoms: C1_2  and  C2_4 
REMARK    2  A    between atoms: C2_4  and  O3_5 
REMARK    3  A    between atoms: O3_5  and  C3_6 
REMARK    4  A    between atoms: C4_7  and  C5_8 
REMARK    5  A    between atoms: C6_12  and  C7_13 
REMARK    6  A    between atoms: C10_16  and  O6_17 
ROOT
HETATM    1  C3  UNL     1      45.675  14.784   2.578  1.00  0.00     0.112 A 
HETATM    2  C4  UNL     1      44.911  15.675   1.869  1.00  0.00     0.117 A 
HETATM    3  S1  UNL     1      44.324  14.709   0.581  1.00  0.00    -0.078 SA
HETATM    4  C6  UNL     1      45.063  13.211   0.975  1.00  0.00     0.036 A 
HETATM    5  C13 UNL     1      45.746  13.511   2.099  1.00  0.00     0.064 A 
HETATM    6 BR1  UNL     1      46.908  12.157   2.910  1.00  0.00    -0.047 Br
ENDROOT
BRANCH   4   7
HETATM    7  C7  UNL     1      44.878  12.024   0.166  1.00  0.00    -0.018 A 
HETATM    8  C8  UNL     1      44.679  10.788   0.786  1.00  0.00     0.015 A 
HETATM    9  C9  UNL     1      44.508   9.636   0.055  1.00  0.00     0.037 A 
HETATM   10  C10 UNL     1      44.526   9.649  -1.324  1.00  0.00     0.065 A 
HETATM   11  C11 UNL     1      44.718  10.837  -1.950  1.00  0.00     0.037 A 
HETATM   12  C12 UNL     1      44.890  12.000  -1.200  1.00  0.00     0.015 A 
BRANCH  10  13
HETATM   13  O6  UNL     1      44.348   8.460  -2.017  1.00  0.00    -0.361 OA
ATOM     14  H6  UNL     1      43.827   8.457  -2.811  1.00  0.00     0.217 HD
ENDBRANCH  10  13
ENDBRANCH   4   7
BRANCH   2  15
HETATM   15  C5  UNL     1      44.661  17.109   2.087  1.00  0.00     0.219 C 
HETATM   16  O4  UNL     1      44.404  17.532   3.209  1.00  0.00    -0.643 OA
HETATM   17  O5  UNL     1      44.724  17.945   0.997  1.00  0.00    -0.643 OA
ENDBRANCH   2  15
BRANCH   1  18
HETATM   18  O3  UNL     1      46.360  15.167   3.749  1.00  0.00    -0.338 OA
BRANCH  18  19
HETATM   19  C2  UNL     1      47.526  15.814   3.917  1.00  0.00     0.288 C 
BRANCH  19  20
HETATM   20  C1  UNL     1      47.668  16.916   4.845  1.00  0.00     0.198 C 
HETATM   21  O1  UNL     1      46.596  17.183   5.538  1.00  0.00    -0.646 OA
HETATM   22  O2  UNL     1      48.748  17.719   5.113  1.00  0.00    -0.646 OA
ENDBRANCH  19  20
ENDBRANCH  18  19
ENDBRANCH   1  18
TORSDOF 6
ENDMDL
