MODEL 14
REMARK VINA RESULT: -6.309697754      3.453      5.016
REMARK  6 active torsions:
REMARK  status: ('A' for Active; 'I' for Inactive)
REMARK    1  A    between atoms: C1_2  and  C2_4 
REMARK    2  A    between atoms: C2_4  and  O3_5 
REMARK    3  A    between atoms: O3_5  and  C3_6 
REMARK    4  A    between atoms: C4_7  and  C5_8 
REMARK    5  A    between atoms: C6_12  and  C7_13 
REMARK    6  A    between atoms: C10_16  and  O6_17 
ROOT
HETATM    1  C3  UNL     1      45.124  14.593   2.001  1.00  0.00     0.112 A 
HETATM    2  C4  UNL     1      45.377  13.355   1.468  1.00  0.00     0.117 A 
HETATM    3  S1  UNL     1      44.899  13.556  -0.165  1.00  0.00    -0.078 SA
HETATM    4  C6  UNL     1      44.393  15.195  -0.126  1.00  0.00     0.036 A 
HETATM    5  C13 UNL     1      44.611  15.534   1.162  1.00  0.00     0.064 A 
HETATM    6 BR1  UNL     1      44.060  17.305   1.797  1.00  0.00    -0.047 Br
ENDROOT
BRANCH   4   7
HETATM    7  C7  UNL     1      43.880  15.872  -1.299  1.00  0.00    -0.018 A 
HETATM    8  C8  UNL     1      42.679  15.449  -1.872  1.00  0.00     0.015 A 
HETATM    9  C9  UNL     1      42.162  16.060  -2.991  1.00  0.00     0.037 A 
HETATM   10  C10 UNL     1      42.808  17.116  -3.597  1.00  0.00     0.065 A 
HETATM   11  C11 UNL     1      43.977  17.545  -3.060  1.00  0.00     0.037 A 
HETATM   12  C12 UNL     1      44.494  16.920  -1.925  1.00  0.00     0.015 A 
BRANCH  10  13
HETATM   13  O6  UNL     1      42.246  17.699  -4.725  1.00  0.00    -0.361 OA
ATOM     14  H6  UNL     1      42.813  17.995  -5.427  1.00  0.00     0.217 HD
ENDBRANCH  10  13
ENDBRANCH   4   7
BRANCH   2  15
HETATM   15  C5  UNL     1      45.884  12.125   2.099  1.00  0.00     0.219 C 
HETATM   16  O4  UNL     1      45.249  11.079   2.022  1.00  0.00    -0.643 OA
HETATM   17  O5  UNL     1      47.082  12.195   2.770  1.00  0.00    -0.643 OA
ENDBRANCH   2  15
BRANCH   1  18
HETATM   18  O3  UNL     1      45.381  14.879   3.357  1.00  0.00    -0.338 OA
BRANCH  18  19
HETATM   19  C2  UNL     1      46.524  15.194   3.991  1.00  0.00     0.288 C 
BRANCH  19  20
HETATM   20  C1  UNL     1      46.896  16.564   4.274  1.00  0.00     0.198 C 
HETATM   21  O1  UNL     1      47.384  17.215   3.254  1.00  0.00    -0.646 OA
HETATM   22  O2  UNL     1      46.814  17.285   5.438  1.00  0.00    -0.646 OA
ENDBRANCH  19  20
ENDBRANCH  18  19
ENDBRANCH   1  18
TORSDOF 6
ENDMDL
