MODEL 5
REMARK VINA RESULT: -7.292051592      1.293      1.645
REMARK  6 active torsions:
REMARK  status: ('A' for Active; 'I' for Inactive)
REMARK    1  A    between atoms: C1_2  and  C2_4 
REMARK    2  A    between atoms: C2_4  and  O3_5 
REMARK    3  A    between atoms: O3_5  and  C3_6 
REMARK    4  A    between atoms: C4_7  and  C5_8 
REMARK    5  A    between atoms: C6_12  and  C7_13 
REMARK    6  A    between atoms: C10_16  and  O6_17 
ROOT
HETATM    1  C3  UNL     1      45.197  14.465   1.971  1.00  0.00     0.112 A 
HETATM    2  C4  UNL     1      44.531  15.247   1.061  1.00  0.00     0.117 A 
HETATM    3  S1  UNL     1      44.516  14.252  -0.333  1.00  0.00    -0.078 SA
HETATM    4  C6  UNL     1      45.353  12.881   0.272  1.00  0.00     0.036 A 
HETATM    5  C13 UNL     1      45.619  13.243   1.544  1.00  0.00     0.064 A 
HETATM    6 BR1  UNL     1      46.709  12.067   2.671  1.00  0.00    -0.047 Br
ENDROOT
BRANCH   4   7
HETATM    7  C7  UNL     1      45.615  11.715  -0.546  1.00  0.00    -0.018 A 
HETATM    8  C8  UNL     1      44.928  10.525  -0.294  1.00  0.00     0.015 A 
HETATM    9  C9  UNL     1      45.153   9.393  -1.042  1.00  0.00     0.037 A 
HETATM   10  C10 UNL     1      46.069   9.382  -2.073  1.00  0.00     0.065 A 
HETATM   11  C11 UNL     1      46.749  10.525  -2.337  1.00  0.00     0.037 A 
HETATM   12  C12 UNL     1      46.514  11.668  -1.574  1.00  0.00     0.015 A 
BRANCH  10  13
HETATM   13  O6  UNL     1      46.261   8.214  -2.798  1.00  0.00    -0.361 OA
ATOM     14  H6  UNL     1      46.772   8.242  -3.598  1.00  0.00     0.217 HD
ENDBRANCH  10  13
ENDBRANCH   4   7
BRANCH   2  15
HETATM   15  C5  UNL     1      43.988  16.609   1.185  1.00  0.00     0.219 C 
HETATM   16  O4  UNL     1      42.867  16.793   1.649  1.00  0.00    -0.643 OA
HETATM   17  O5  UNL     1      44.776  17.655   0.765  1.00  0.00    -0.643 OA
ENDBRANCH   2  15
BRANCH   1  18
HETATM   18  O3  UNL     1      45.437  14.906   3.288  1.00  0.00    -0.338 OA
BRANCH  18  19
HETATM   19  C2  UNL     1      46.411  15.683   3.794  1.00  0.00     0.288 C 
BRANCH  19  20
HETATM   20  C1  UNL     1      46.129  16.790   4.683  1.00  0.00     0.198 C 
HETATM   21  O1  UNL     1      44.919  17.268   4.587  1.00  0.00    -0.646 OA
HETATM   22  O2  UNL     1      46.928  17.413   5.608  1.00  0.00    -0.646 OA
ENDBRANCH  19  20
ENDBRANCH  18  19
ENDBRANCH   1  18
TORSDOF 6
ENDMDL
