MODEL 1
REMARK VINA RESULT: -7.852295855      0.000      0.000
REMARK  6 active torsions:
REMARK  status: ('A' for Active; 'I' for Inactive)
REMARK    1  A    between atoms: C1_2  and  C2_4 
REMARK    2  A    between atoms: C2_4  and  O3_5 
REMARK    3  A    between atoms: O3_5  and  C3_6 
REMARK    4  A    between atoms: C4_7  and  C5_8 
REMARK    5  A    between atoms: C6_12  and  C7_13 
REMARK    6  A    between atoms: C10_16  and  O6_17 
ROOT
HETATM    1  C3  UNL     1      45.670  14.772   2.499  1.00  0.00     0.112 A 
HETATM    2  C4  UNL     1      44.920  15.643   1.751  1.00  0.00     0.117 A 
HETATM    3  S1  UNL     1      44.334  14.636   0.496  1.00  0.00    -0.078 SA
HETATM    4  C6  UNL     1      45.054  13.146   0.951  1.00  0.00     0.036 A 
HETATM    5  C13 UNL     1      45.731  13.482   2.068  1.00  0.00     0.064 A 
HETATM    6 BR1  UNL     1      46.873  12.148   2.939  1.00  0.00    -0.047 Br
ENDROOT
BRANCH   4   7
HETATM    7  C7  UNL     1      44.863  11.932   0.185  1.00  0.00    -0.018 A 
HETATM    8  C8  UNL     1      44.827  11.991  -1.210  1.00  0.00     0.015 A 
HETATM    9  C9  UNL     1      44.640  10.863  -1.973  1.00  0.00     0.037 A 
HETATM   10  C10 UNL     1      44.478   9.622  -1.395  1.00  0.00     0.065 A 
HETATM   11  C11 UNL     1      44.509   9.537  -0.041  1.00  0.00     0.037 A 
HETATM   12  C12 UNL     1      44.700  10.687   0.725  1.00  0.00     0.015 A 
BRANCH  10  13
HETATM   13  O6  UNL     1      44.291   8.512  -2.208  1.00  0.00    -0.361 OA
ATOM     14  H6  UNL     1      44.577   7.659  -1.904  1.00  0.00     0.217 HD
ENDBRANCH  10  13
ENDBRANCH   4   7
BRANCH   2  15
HETATM   15  C5  UNL     1      44.683  17.087   1.914  1.00  0.00     0.219 C 
HETATM   16  O4  UNL     1      44.413  17.553   3.016  1.00  0.00    -0.643 OA
HETATM   17  O5  UNL     1      44.773  17.882   0.796  1.00  0.00    -0.643 OA
ENDBRANCH   2  15
BRANCH   1  18
HETATM   18  O3  UNL     1      46.349  15.191   3.661  1.00  0.00    -0.338 OA
BRANCH  18  19
HETATM   19  C2  UNL     1      47.499  15.870   3.813  1.00  0.00     0.288 C 
BRANCH  19  20
HETATM   20  C1  UNL     1      47.645  16.929   4.788  1.00  0.00     0.198 C 
HETATM   21  O1  UNL     1      46.570  17.177   5.485  1.00  0.00    -0.646 OA
HETATM   22  O2  UNL     1      48.730  17.710   5.098  1.00  0.00    -0.646 OA
ENDBRANCH  19  20
ENDBRANCH  18  19
ENDBRANCH   1  18
TORSDOF 6
ENDMDL
