MODEL 13
REMARK VINA RESULT: -6.382325405      2.334      7.716
REMARK  6 active torsions:
REMARK  status: ('A' for Active; 'I' for Inactive)
REMARK    1  A    between atoms: C1_2  and  C2_4 
REMARK    2  A    between atoms: C2_4  and  O3_5 
REMARK    3  A    between atoms: O3_5  and  C3_6 
REMARK    4  A    between atoms: C4_7  and  C5_8 
REMARK    5  A    between atoms: C6_12  and  C7_13 
REMARK    6  A    between atoms: C10_16  and  O6_17 
ROOT
HETATM    1  C3  UNL     1      44.925  12.100   0.006  1.00  0.00     0.112 A 
HETATM    2  C4  UNL     1      45.524  11.046   0.647  1.00  0.00     0.117 A 
HETATM    3  S1  UNL     1      46.109  11.777   2.082  1.00  0.00    -0.078 SA
HETATM    4  C6  UNL     1      45.584  13.390   1.828  1.00  0.00     0.036 A 
HETATM    5  C13 UNL     1      44.968  13.309   0.630  1.00  0.00     0.064 A 
HETATM    6 BR1  UNL     1      44.289  14.941  -0.216  1.00  0.00    -0.047 Br
ENDROOT
BRANCH   4   7
HETATM    7  C7  UNL     1      45.840  14.444   2.787  1.00  0.00    -0.018 A 
HETATM    8  C8  UNL     1      47.130  14.622   3.292  1.00  0.00     0.015 A 
HETATM    9  C9  UNL     1      47.413  15.606   4.210  1.00  0.00     0.037 A 
HETATM   10  C10 UNL     1      46.436  16.460   4.675  1.00  0.00     0.065 A 
HETATM   11  C11 UNL     1      45.175  16.308   4.200  1.00  0.00     0.037 A 
HETATM   12  C12 UNL     1      44.896  15.308   3.269  1.00  0.00     0.015 A 
BRANCH  10  13
HETATM   13  O6  UNL     1      46.772  17.437   5.602  1.00  0.00    -0.361 OA
ATOM     14  H6  UNL     1      46.413  17.388   6.480  1.00  0.00     0.217 HD
ENDBRANCH  10  13
ENDBRANCH   4   7
BRANCH   2  15
HETATM   15  C5  UNL     1      45.688   9.642   0.236  1.00  0.00     0.219 C 
HETATM   16  O4  UNL     1      46.801   9.126   0.215  1.00  0.00    -0.643 OA
HETATM   17  O5  UNL     1      44.560   8.941  -0.120  1.00  0.00    -0.643 OA
ENDBRANCH   2  15
BRANCH   1  18
HETATM   18  O3  UNL     1      44.295  11.941  -1.245  1.00  0.00    -0.338 OA
BRANCH  18  19
HETATM   19  C2  UNL     1      44.806  11.864  -2.486  1.00  0.00     0.288 C 
BRANCH  19  20
HETATM   20  C1  UNL     1      44.708  10.661  -3.286  1.00  0.00     0.198 C 
HETATM   21  O1  UNL     1      43.640  10.591  -4.031  1.00  0.00    -0.646 OA
HETATM   22  O2  UNL     1      45.558   9.589  -3.386  1.00  0.00    -0.646 OA
ENDBRANCH  19  20
ENDBRANCH  18  19
ENDBRANCH   1  18
TORSDOF 6
ENDMDL
