MODEL 3
REMARK VINA RESULT: -7.436242695      1.805      2.048
REMARK  6 active torsions:
REMARK  status: ('A' for Active; 'I' for Inactive)
REMARK    1  A    between atoms: C1_2  and  C2_4 
REMARK    2  A    between atoms: C2_4  and  O3_5 
REMARK    3  A    between atoms: O3_5  and  C3_6 
REMARK    4  A    between atoms: C4_7  and  C5_8 
REMARK    5  A    between atoms: C6_12  and  C7_13 
REMARK    6  A    between atoms: C10_16  and  O6_17 
ROOT
HETATM    1  C3  UNL     1      45.428  15.203   2.540  1.00  0.00     0.112 A 
HETATM    2  C4  UNL     1      44.650  15.396   1.427  1.00  0.00     0.117 A 
HETATM    3  S1  UNL     1      44.743  13.873   0.648  1.00  0.00    -0.078 SA
HETATM    4  C6  UNL     1      45.762  13.039   1.749  1.00  0.00     0.036 A 
HETATM    5  C13 UNL     1      45.999  13.976   2.690  1.00  0.00     0.064 A 
HETATM    6 BR1  UNL     1      47.252  13.582   4.145  1.00  0.00    -0.047 Br
ENDROOT
BRANCH   4   7
HETATM    7  C7  UNL     1      46.160  11.663   1.539  1.00  0.00    -0.018 A 
HETATM    8  C8  UNL     1      45.521  10.899   0.560  1.00  0.00     0.015 A 
HETATM    9  C9  UNL     1      45.864   9.586   0.335  1.00  0.00     0.037 A 
HETATM   10  C10 UNL     1      46.854   8.965   1.066  1.00  0.00     0.065 A 
HETATM   11  C11 UNL     1      47.490   9.686   2.023  1.00  0.00     0.037 A 
HETATM   12  C12 UNL     1      47.136  11.016   2.244  1.00  0.00     0.015 A 
BRANCH  10  13
HETATM   13  O6  UNL     1      47.164   7.638   0.801  1.00  0.00    -0.361 OA
ATOM     14  H6  UNL     1      46.787   6.955   1.344  1.00  0.00     0.217 HD
ENDBRANCH  10  13
ENDBRANCH   4   7
BRANCH   2  15
HETATM   15  C5  UNL     1      43.936  16.593   0.954  1.00  0.00     0.219 C 
HETATM   16  O4  UNL     1      42.872  16.925   1.465  1.00  0.00    -0.643 OA
HETATM   17  O5  UNL     1      44.501  17.314  -0.071  1.00  0.00    -0.643 OA
ENDBRANCH   2  15
BRANCH   1  18
HETATM   18  O3  UNL     1      45.630  16.227   3.487  1.00  0.00    -0.338 OA
BRANCH  18  19
HETATM   19  C2  UNL     1      46.596  17.157   3.588  1.00  0.00     0.288 C 
BRANCH  19  20
HETATM   20  C1  UNL     1      47.316  17.390   4.822  1.00  0.00     0.198 C 
HETATM   21  O1  UNL     1      46.587  17.291   5.900  1.00  0.00    -0.646 OA
HETATM   22  O2  UNL     1      48.636  17.693   5.039  1.00  0.00    -0.646 OA
ENDBRANCH  19  20
ENDBRANCH  18  19
ENDBRANCH   1  18
TORSDOF 6
ENDMDL
