MODEL 12
REMARK VINA RESULT: -6.444680023      2.576      7.254
REMARK  6 active torsions:
REMARK  status: ('A' for Active; 'I' for Inactive)
REMARK    1  A    between atoms: C1_2  and  C2_4 
REMARK    2  A    between atoms: C2_4  and  O3_5 
REMARK    3  A    between atoms: O3_5  and  C3_6 
REMARK    4  A    between atoms: C4_7  and  C5_8 
REMARK    5  A    between atoms: C6_12  and  C7_13 
REMARK    6  A    between atoms: C10_16  and  O6_17 
ROOT
HETATM    1  C3  UNL     1      44.733  12.321  -0.183  1.00  0.00     0.112 A 
HETATM    2  C4  UNL     1      45.234  11.212   0.449  1.00  0.00     0.117 A 
HETATM    3  S1  UNL     1      45.809  11.864   1.926  1.00  0.00    -0.078 SA
HETATM    4  C6  UNL     1      45.402  13.515   1.700  1.00  0.00     0.036 A 
HETATM    5  C13 UNL     1      44.831  13.507   0.477  1.00  0.00     0.064 A 
HETATM    6 BR1  UNL     1      44.295  15.204  -0.346  1.00  0.00    -0.047 Br
ENDROOT
BRANCH   4   7
HETATM    7  C7  UNL     1      45.688  14.524   2.698  1.00  0.00    -0.018 A 
HETATM    8  C8  UNL     1      46.967  14.603   3.255  1.00  0.00     0.015 A 
HETATM    9  C9  UNL     1      47.278  15.541   4.212  1.00  0.00     0.037 A 
HETATM   10  C10 UNL     1      46.340  16.445   4.665  1.00  0.00     0.065 A 
HETATM   11  C11 UNL     1      45.091  16.389   4.139  1.00  0.00     0.037 A 
HETATM   12  C12 UNL     1      44.785  15.435   3.169  1.00  0.00     0.015 A 
BRANCH  10  13
HETATM   13  O6  UNL     1      46.703  17.372   5.632  1.00  0.00    -0.361 OA
ATOM     14  H6  UNL     1      46.032  17.912   6.034  1.00  0.00     0.217 HD
ENDBRANCH  10  13
ENDBRANCH   4   7
BRANCH   2  15
HETATM   15  C5  UNL     1      45.322   9.812   0.004  1.00  0.00     0.219 C 
HETATM   16  O4  UNL     1      44.317   9.110  -0.044  1.00  0.00    -0.643 OA
HETATM   17  O5  UNL     1      46.559   9.328  -0.352  1.00  0.00    -0.643 OA
ENDBRANCH   2  15
BRANCH   1  18
HETATM   18  O3  UNL     1      44.145  12.238  -1.461  1.00  0.00    -0.338 OA
BRANCH  18  19
HETATM   19  C2  UNL     1      44.694  12.249  -2.688  1.00  0.00     0.288 C 
BRANCH  19  20
HETATM   20  C1  UNL     1      46.091  12.560  -2.904  1.00  0.00     0.198 C 
HETATM   21  O1  UNL     1      46.866  11.517  -3.025  1.00  0.00    -0.646 OA
HETATM   22  O2  UNL     1      46.728  13.771  -3.003  1.00  0.00    -0.646 OA
ENDBRANCH  19  20
ENDBRANCH  18  19
ENDBRANCH   1  18
TORSDOF 6
ENDMDL
