MODEL 4
REMARK VINA RESULT: -7.420931436      1.200      1.211
REMARK  6 active torsions:
REMARK  status: ('A' for Active; 'I' for Inactive)
REMARK    1  A    between atoms: C1_2  and  C2_4 
REMARK    2  A    between atoms: C2_4  and  O3_5 
REMARK    3  A    between atoms: O3_5  and  C3_6 
REMARK    4  A    between atoms: C4_7  and  C5_8 
REMARK    5  A    between atoms: C6_12  and  C7_13 
REMARK    6  A    between atoms: C10_16  and  O6_17 
ROOT
HETATM    1  C3  UNL     1      45.291  14.449   2.210  1.00  0.00     0.112 A 
HETATM    2  C4  UNL     1      44.597  15.214   1.307  1.00  0.00     0.117 A 
HETATM    3  S1  UNL     1      44.502  14.176  -0.053  1.00  0.00    -0.078 SA
HETATM    4  C6  UNL     1      45.343  12.811   0.557  1.00  0.00     0.036 A 
HETATM    5  C13 UNL     1      45.673  13.207   1.804  1.00  0.00     0.064 A 
HETATM    6 BR1  UNL     1      46.794  12.047   2.917  1.00  0.00    -0.047 Br
ENDROOT
BRANCH   4   7
HETATM    7  C7  UNL     1      45.548  11.615  -0.234  1.00  0.00    -0.018 A 
HETATM    8  C8  UNL     1      46.458  11.633  -1.293  1.00  0.00     0.015 A 
HETATM    9  C9  UNL     1      46.676  10.522  -2.074  1.00  0.00     0.037 A 
HETATM   10  C10 UNL     1      46.004   9.340  -1.846  1.00  0.00     0.065 A 
HETATM   11  C11 UNL     1      45.114   9.297  -0.823  1.00  0.00     0.037 A 
HETATM   12  C12 UNL     1      44.900  10.428  -0.036  1.00  0.00     0.015 A 
BRANCH  10  13
HETATM   13  O6  UNL     1      46.258   8.246  -2.661  1.00  0.00    -0.361 OA
ATOM     14  H6  UNL     1      45.888   7.401  -2.435  1.00  0.00     0.217 HD
ENDBRANCH  10  13
ENDBRANCH   4   7
BRANCH   2  15
HETATM   15  C5  UNL     1      44.083  16.589   1.412  1.00  0.00     0.219 C 
HETATM   16  O4  UNL     1      42.879  16.797   1.527  1.00  0.00    -0.643 OA
HETATM   17  O5  UNL     1      44.993  17.619   1.376  1.00  0.00    -0.643 OA
ENDBRANCH   2  15
BRANCH   1  18
HETATM   18  O3  UNL     1      45.598  14.927   3.500  1.00  0.00    -0.338 OA
BRANCH  18  19
HETATM   19  C2  UNL     1      46.676  15.582   3.964  1.00  0.00     0.288 C 
BRANCH  19  20
HETATM   20  C1  UNL     1      46.568  16.842   4.668  1.00  0.00     0.198 C 
HETATM   21  O1  UNL     1      45.358  17.327   4.728  1.00  0.00    -0.646 OA
HETATM   22  O2  UNL     1      47.530  17.604   5.281  1.00  0.00    -0.646 OA
ENDBRANCH  19  20
ENDBRANCH  18  19
ENDBRANCH   1  18
TORSDOF 6
ENDMDL
