MODEL 1
REMARK VINA RESULT: -7.792891630      0.000      0.000
REMARK  5 active torsions:
REMARK  status: ('A' for Active; 'I' for Inactive)
REMARK    1  A    between atoms: C1_2  and  C2_4 
REMARK    2  A    between atoms: C2_4  and  O3_5 
REMARK    3  A    between atoms: O3_5  and  C3_6 
REMARK    4  A    between atoms: C4_7  and  C5_8 
REMARK    5  A    between atoms: C6_12  and  C7_13 
ROOT
HETATM    1  C3  UNL     1      45.622  14.654   2.809  1.00  0.00     0.112 A 
HETATM    2  C4  UNL     1      44.709  15.574   2.364  1.00  0.00     0.117 A 
HETATM    3  S1  UNL     1      43.988  14.781   1.055  1.00  0.00    -0.078 SA
HETATM    4  C6  UNL     1      44.868  13.285   1.098  1.00  0.00     0.036 A 
HETATM    5  C13 UNL     1      45.699  13.479   2.155  1.00  0.00     0.064 A 
HETATM    6 BR1  UNL     1      46.966  12.086   2.699  1.00  0.00    -0.047 Br
ENDROOT
BRANCH   4   7
HETATM    7  C7  UNL     1      44.645  12.185   0.155  1.00  0.00    -0.018 A 
HETATM    8  C8  UNL     1      44.547  10.867   0.476  1.00  0.00     0.013 A 
HETATM    9  C9  UNL     1      44.333   9.901  -0.516  1.00  0.00     0.001 A 
HETATM   10  C10 UNL     1      44.216  10.255  -1.829  1.00  0.00     0.000 A 
HETATM   11  C11 UNL     1      44.312  11.569  -2.166  1.00  0.00     0.001 A 
HETATM   12  C12 UNL     1      44.520  12.509  -1.204  1.00  0.00     0.013 A 
ENDBRANCH   4   7
BRANCH   2  13
HETATM   13  C5  UNL     1      44.452  16.922   2.927  1.00  0.00     0.219 C 
HETATM   14  O4  UNL     1      44.546  17.941   2.244  1.00  0.00    -0.643 OA
HETATM   15  O5  UNL     1      44.099  16.997   4.261  1.00  0.00    -0.643 OA
ENDBRANCH   2  13
BRANCH   1  16
HETATM   16  O3  UNL     1      46.460  14.946   3.936  1.00  0.00    -0.338 OA
BRANCH  16  17
HETATM   17  C2  UNL     1      47.644  15.667   3.693  1.00  0.00     0.288 C 
BRANCH  17  18
HETATM   18  C1  UNL     1      47.727  16.791   4.636  1.00  0.00     0.198 C 
HETATM   19  O1  UNL     1      48.683  17.621   4.623  1.00  0.00    -0.646 OA
HETATM   20  O2  UNL     1      46.749  16.998   5.595  1.00  0.00    -0.646 OA
ENDBRANCH  17  18
ENDBRANCH  16  17
ENDBRANCH   1  16
TORSDOF 5
ENDMDL
