MODEL 11
REMARK VINA RESULT: -6.087487232      3.382      4.695
REMARK  5 active torsions:
REMARK  status: ('A' for Active; 'I' for Inactive)
REMARK    1  A    between atoms: C1_2  and  C2_4 
REMARK    2  A    between atoms: C2_4  and  O3_5 
REMARK    3  A    between atoms: O3_5  and  C3_6 
REMARK    4  A    between atoms: C4_7  and  C5_8 
REMARK    5  A    between atoms: C6_12  and  C7_13 
ROOT
HETATM    1  C3  UNL     1      44.968  14.170   1.697  1.00  0.00     0.112 A 
HETATM    2  C4  UNL     1      44.905  15.308   2.456  1.00  0.00     0.117 A 
HETATM    3  S1  UNL     1      44.333  16.459   1.357  1.00  0.00    -0.078 SA
HETATM    4  C6  UNL     1      44.185  15.464  -0.059  1.00  0.00     0.036 A 
HETATM    5  C13 UNL     1      44.597  14.256   0.404  1.00  0.00     0.064 A 
HETATM    6 BR1  UNL     1      44.646  12.695  -0.780  1.00  0.00    -0.047 Br
ENDROOT
BRANCH   4   7
HETATM    7  C7  UNL     1      43.715  15.962  -1.355  1.00  0.00    -0.018 A 
HETATM    8  C8  UNL     1      42.574  15.579  -1.989  1.00  0.00     0.013 A 
HETATM    9  C9  UNL     1      42.225  16.126  -3.231  1.00  0.00     0.001 A 
HETATM   10  C10 UNL     1      43.019  17.057  -3.838  1.00  0.00     0.000 A 
HETATM   11  C11 UNL     1      44.163  17.449  -3.215  1.00  0.00     0.001 A 
HETATM   12  C12 UNL     1      44.503  16.920  -2.009  1.00  0.00     0.013 A 
ENDBRANCH   4   7
BRANCH   2  13
HETATM   13  C5  UNL     1      45.260  15.447   3.890  1.00  0.00     0.219 C 
HETATM   14  O4  UNL     1      46.421  15.355   4.285  1.00  0.00    -0.643 OA
HETATM   15  O5  UNL     1      44.230  15.686   4.779  1.00  0.00    -0.643 OA
ENDBRANCH   2  13
BRANCH   1  16
HETATM   16  O3  UNL     1      45.417  12.935   2.271  1.00  0.00    -0.338 OA
BRANCH  16  17
HETATM   17  C2  UNL     1      46.806  12.711   2.325  1.00  0.00     0.288 C 
BRANCH  17  18
HETATM   18  C1  UNL     1      47.112  11.417   1.699  1.00  0.00     0.198 C 
HETATM   19  O1  UNL     1      46.854  10.312   2.259  1.00  0.00    -0.646 OA
HETATM   20  O2  UNL     1      47.705  11.348   0.449  1.00  0.00    -0.646 OA
ENDBRANCH  17  18
ENDBRANCH  16  17
ENDBRANCH   1  16
TORSDOF 5
ENDMDL
