MODEL 5
REMARK VINA RESULT: -7.132368578      1.891      2.397
REMARK  5 active torsions:
REMARK  status: ('A' for Active; 'I' for Inactive)
REMARK    1  A    between atoms: C1_2  and  C2_4 
REMARK    2  A    between atoms: C2_4  and  O3_5 
REMARK    3  A    between atoms: O3_5  and  C3_6 
REMARK    4  A    between atoms: C4_7  and  C5_8 
REMARK    5  A    between atoms: C6_12  and  C7_13 
ROOT
HETATM    1  C3  UNL     1      45.363  14.847   2.259  1.00  0.00     0.112 A 
HETATM    2  C4  UNL     1      44.608  15.018   1.128  1.00  0.00     0.117 A 
HETATM    3  S1  UNL     1      44.713  13.506   0.376  1.00  0.00    -0.078 SA
HETATM    4  C6  UNL     1      45.723  12.679   1.522  1.00  0.00     0.036 A 
HETATM    5  C13 UNL     1      45.933  13.642   2.456  1.00  0.00     0.064 A 
HETATM    6 BR1  UNL     1      47.034  13.278   4.036  1.00  0.00    -0.047 Br
ENDROOT
BRANCH   4   7
HETATM    7  C7  UNL     1      46.150  11.285   1.369  1.00  0.00    -0.018 A 
HETATM    8  C8  UNL     1      47.124  10.667   2.089  1.00  0.00     0.013 A 
HETATM    9  C9  UNL     1      47.448   9.324   1.852  1.00  0.00     0.001 A 
HETATM   10  C10 UNL     1      46.796   8.601   0.895  1.00  0.00     0.000 A 
HETATM   11  C11 UNL     1      45.820   9.206   0.167  1.00  0.00     0.001 A 
HETATM   12  C12 UNL     1      45.503  10.510   0.395  1.00  0.00     0.013 A 
ENDBRANCH   4   7
BRANCH   2  13
HETATM   13  C5  UNL     1      43.892  16.248   0.709  1.00  0.00     0.219 C 
HETATM   14  O4  UNL     1      42.867  16.629   1.273  1.00  0.00    -0.643 OA
HETATM   15  O5  UNL     1      44.422  16.961  -0.350  1.00  0.00    -0.643 OA
ENDBRANCH   2  13
BRANCH   1  16
HETATM   16  O3  UNL     1      45.531  15.922   3.192  1.00  0.00    -0.338 OA
BRANCH  16  17
HETATM   17  C2  UNL     1      46.660  16.747   3.035  1.00  0.00     0.288 C 
BRANCH  17  18
HETATM   18  C1  UNL     1      47.168  17.130   4.360  1.00  0.00     0.198 C 
HETATM   19  O1  UNL     1      48.335  17.588   4.535  1.00  0.00    -0.646 OA
HETATM   20  O2  UNL     1      46.382  17.004   5.493  1.00  0.00    -0.646 OA
ENDBRANCH  17  18
ENDBRANCH  16  17
ENDBRANCH   1  16
TORSDOF 5
ENDMDL
