MODEL 2
REMARK VINA RESULT: -7.308307187      1.559      2.152
REMARK  5 active torsions:
REMARK  status: ('A' for Active; 'I' for Inactive)
REMARK    1  A    between atoms: C1_2  and  C2_4 
REMARK    2  A    between atoms: C2_4  and  O3_5 
REMARK    3  A    between atoms: O3_5  and  C3_6 
REMARK    4  A    between atoms: C4_7  and  C5_8 
REMARK    5  A    between atoms: C6_12  and  C7_13 
ROOT
HETATM    1  C3  UNL     1      45.240  14.228   1.857  1.00  0.00     0.112 A 
HETATM    2  C4  UNL     1      44.517  14.877   0.892  1.00  0.00     0.117 A 
HETATM    3  S1  UNL     1      44.392  13.711  -0.328  1.00  0.00    -0.078 SA
HETATM    4  C6  UNL     1      45.269  12.411   0.418  1.00  0.00     0.036 A 
HETATM    5  C13 UNL     1      45.624  12.960   1.609  1.00  0.00     0.064 A 
HETATM    6 BR1  UNL     1      46.662  11.931   2.914  1.00  0.00    -0.047 Br
ENDROOT
BRANCH   4   7
HETATM    7  C7  UNL     1      45.482  11.107  -0.216  1.00  0.00    -0.018 A 
HETATM    8  C8  UNL     1      46.560  10.754  -0.968  1.00  0.00     0.013 A 
HETATM    9  C9  UNL     1      46.655   9.472  -1.527  1.00  0.00     0.001 A 
HETATM   10  C10 UNL     1      45.672   8.545  -1.333  1.00  0.00     0.000 A 
HETATM   11  C11 UNL     1      44.589   8.884  -0.583  1.00  0.00     0.001 A 
HETATM   12  C12 UNL     1      44.494  10.128  -0.039  1.00  0.00     0.013 A 
ENDBRANCH   4   7
BRANCH   2  13
HETATM   13  C5  UNL     1      43.992  16.263   0.948  1.00  0.00     0.219 C 
HETATM   14  O4  UNL     1      42.895  16.525   1.439  1.00  0.00    -0.643 OA
HETATM   15  O5  UNL     1      44.786  17.264   0.423  1.00  0.00    -0.643 OA
ENDBRANCH   2  13
BRANCH   1  16
HETATM   16  O3  UNL     1      45.569  14.888   3.087  1.00  0.00    -0.338 OA
BRANCH  16  17
HETATM   17  C2  UNL     1      46.664  15.772   3.076  1.00  0.00     0.288 C 
BRANCH  17  18
HETATM   18  C1  UNL     1      46.323  16.974   3.849  1.00  0.00     0.198 C 
HETATM   19  O1  UNL     1      45.137  17.242   4.202  1.00  0.00    -0.646 OA
HETATM   20  O2  UNL     1      47.297  17.881   4.234  1.00  0.00    -0.646 OA
ENDBRANCH  17  18
ENDBRANCH  16  17
ENDBRANCH   1  16
TORSDOF 5
ENDMDL
