MODEL 3
REMARK VINA RESULT: -7.194522278      1.599      2.041
REMARK  5 active torsions:
REMARK  status: ('A' for Active; 'I' for Inactive)
REMARK    1  A    between atoms: C1_2  and  C2_4 
REMARK    2  A    between atoms: C2_4  and  O3_5 
REMARK    3  A    between atoms: O3_5  and  C3_6 
REMARK    4  A    between atoms: C4_7  and  C5_8 
REMARK    5  A    between atoms: C6_12  and  C7_13 
ROOT
HETATM    1  C3  UNL     1      45.236  14.240   1.859  1.00  0.00     0.112 A 
HETATM    2  C4  UNL     1      44.511  14.891   0.896  1.00  0.00     0.117 A 
HETATM    3  S1  UNL     1      44.373  13.724  -0.321  1.00  0.00    -0.078 SA
HETATM    4  C6  UNL     1      45.246  12.420   0.424  1.00  0.00     0.036 A 
HETATM    5  C13 UNL     1      45.611  12.970   1.611  1.00  0.00     0.064 A 
HETATM    6 BR1  UNL     1      46.650  11.938   2.913  1.00  0.00    -0.047 Br
ENDROOT
BRANCH   4   7
HETATM    7  C7  UNL     1      45.448  11.113  -0.208  1.00  0.00    -0.018 A 
HETATM    8  C8  UNL     1      44.585  10.062  -0.158  1.00  0.00     0.013 A 
HETATM    9  C9  UNL     1      44.886   8.856  -0.803  1.00  0.00     0.001 A 
HETATM   10  C10 UNL     1      46.050   8.702  -1.500  1.00  0.00     0.000 A 
HETATM   11  C11 UNL     1      46.922   9.744  -1.560  1.00  0.00     0.001 A 
HETATM   12  C12 UNL     1      46.632  10.917  -0.934  1.00  0.00     0.013 A 
ENDBRANCH   4   7
BRANCH   2  13
HETATM   13  C5  UNL     1      43.995  16.281   0.952  1.00  0.00     0.219 C 
HETATM   14  O4  UNL     1      42.906  16.552   1.455  1.00  0.00    -0.643 OA
HETATM   15  O5  UNL     1      44.789  17.275   0.411  1.00  0.00    -0.643 OA
ENDBRANCH   2  13
BRANCH   1  16
HETATM   16  O3  UNL     1      45.576  14.901   3.086  1.00  0.00    -0.338 OA
BRANCH  16  17
HETATM   17  C2  UNL     1      46.675  15.780   3.065  1.00  0.00     0.288 C 
BRANCH  17  18
HETATM   18  C1  UNL     1      46.343  16.986   3.836  1.00  0.00     0.198 C 
HETATM   19  O1  UNL     1      45.158  17.273   4.174  1.00  0.00    -0.646 OA
HETATM   20  O2  UNL     1      47.327  17.877   4.235  1.00  0.00    -0.646 OA
ENDBRANCH  17  18
ENDBRANCH  16  17
ENDBRANCH   1  16
TORSDOF 5
ENDMDL
