MODEL 13
REMARK VINA RESULT: -6.079545984      7.038      8.549
REMARK  5 active torsions:
REMARK  status: ('A' for Active; 'I' for Inactive)
REMARK    1  A    between atoms: C1_2  and  C2_4 
REMARK    2  A    between atoms: C2_4  and  O3_5 
REMARK    3  A    between atoms: O3_5  and  C3_6 
REMARK    4  A    between atoms: C4_7  and  C5_8 
REMARK    5  A    between atoms: C6_12  and  C7_13 
ROOT
HETATM    1  C3  UNL     1      49.976   7.600   1.861  1.00  0.00     0.112 A 
HETATM    2  C4  UNL     1      50.760   8.243   0.940  1.00  0.00     0.117 A 
HETATM    3  S1  UNL     1      49.686   9.345   0.239  1.00  0.00    -0.078 SA
HETATM    4  C6  UNL     1      48.248   8.965   1.136  1.00  0.00     0.036 A 
HETATM    5  C13 UNL     1      48.685   7.976   1.958  1.00  0.00     0.064 A 
HETATM    6 BR1  UNL     1      47.467   7.129   3.238  1.00  0.00    -0.047 Br
ENDROOT
BRANCH   4   7
HETATM    7  C7  UNL     1      46.963   9.640   0.934  1.00  0.00    -0.018 A 
HETATM    8  C8  UNL     1      45.991   9.257   0.063  1.00  0.00     0.013 A 
HETATM    9  C9  UNL     1      44.798   9.985  -0.045  1.00  0.00     0.001 A 
HETATM   10  C10 UNL     1      44.579  11.094   0.719  1.00  0.00     0.000 A 
HETATM   11  C11 UNL     1      45.542  11.489   1.594  1.00  0.00     0.001 A 
HETATM   12  C12 UNL     1      46.701  10.785   1.701  1.00  0.00     0.013 A 
ENDBRANCH   4   7
BRANCH   2  13
HETATM   13  C5  UNL     1      52.197   7.998   0.663  1.00  0.00     0.219 C 
HETATM   14  O4  UNL     1      53.088   8.520   1.331  1.00  0.00    -0.643 OA
HETATM   15  O5  UNL     1      52.505   7.151  -0.386  1.00  0.00    -0.643 OA
ENDBRANCH   2  13
BRANCH   1  16
HETATM   16  O3  UNL     1      50.524   6.565   2.689  1.00  0.00    -0.338 OA
BRANCH  16  17
HETATM   17  C2  UNL     1      50.811   6.889   4.028  1.00  0.00     0.288 C 
BRANCH  17  18
HETATM   18  C1  UNL     1      52.247   6.696   4.274  1.00  0.00     0.198 C 
HETATM   19  O1  UNL     1      52.979   7.599   4.775  1.00  0.00    -0.646 OA
HETATM   20  O2  UNL     1      52.874   5.500   3.965  1.00  0.00    -0.646 OA
ENDBRANCH  17  18
ENDBRANCH  16  17
ENDBRANCH   1  16
TORSDOF 5
ENDMDL
