MODEL 12
REMARK VINA RESULT: -6.086179836      3.938      7.184
REMARK  5 active torsions:
REMARK  status: ('A' for Active; 'I' for Inactive)
REMARK    1  A    between atoms: C1_2  and  C2_4 
REMARK    2  A    between atoms: C2_4  and  O3_5 
REMARK    3  A    between atoms: O3_5  and  C3_6 
REMARK    4  A    between atoms: C4_7  and  C5_8 
REMARK    5  A    between atoms: C6_12  and  C7_13 
ROOT
HETATM    1  C3  UNL     1      44.993  12.803   0.537  1.00  0.00     0.112 A 
HETATM    2  C4  UNL     1      45.712  11.747   1.030  1.00  0.00     0.117 A 
HETATM    3  S1  UNL     1      46.490  12.419   2.374  1.00  0.00    -0.078 SA
HETATM    4  C6  UNL     1      45.881  14.043   2.283  1.00  0.00     0.036 A 
HETATM    5  C13 UNL     1      45.083  13.981   1.185  1.00  0.00     0.064 A 
HETATM    6 BR1  UNL     1      44.101  15.563   0.574  1.00  0.00    -0.047 Br
ENDROOT
BRANCH   4   7
HETATM    7  C7  UNL     1      46.239  15.098   3.235  1.00  0.00    -0.018 A 
HETATM    8  C8  UNL     1      45.390  15.705   4.108  1.00  0.00     0.013 A 
HETATM    9  C9  UNL     1      45.848  16.706   4.975  1.00  0.00     0.001 A 
HETATM   10  C10 UNL     1      47.155  17.099   4.968  1.00  0.00     0.000 A 
HETATM   11  C11 UNL     1      48.015  16.501   4.101  1.00  0.00     0.001 A 
HETATM   12  C12 UNL     1      47.574  15.529   3.258  1.00  0.00     0.013 A 
ENDBRANCH   4   7
BRANCH   2  13
HETATM   13  C5  UNL     1      45.764  10.368   0.484  1.00  0.00     0.219 C 
HETATM   14  O4  UNL     1      46.830   9.789   0.280  1.00  0.00    -0.643 OA
HETATM   15  O5  UNL     1      44.560   9.748   0.210  1.00  0.00    -0.643 OA
ENDBRANCH   2  13
BRANCH   1  16
HETATM   16  O3  UNL     1      44.175  12.646  -0.630  1.00  0.00    -0.338 OA
BRANCH  16  17
HETATM   17  C2  UNL     1      44.783  12.858  -1.882  1.00  0.00     0.288 C 
BRANCH  17  18
HETATM   18  C1  UNL     1      44.481  11.723  -2.765  1.00  0.00     0.198 C 
HETATM   19  O1  UNL     1      43.311  11.477  -3.180  1.00  0.00    -0.646 OA
HETATM   20  O2  UNL     1      45.476  10.859  -3.190  1.00  0.00    -0.646 OA
ENDBRANCH  17  18
ENDBRANCH  16  17
ENDBRANCH   1  16
TORSDOF 5
ENDMDL
