MODEL 4
REMARK VINA RESULT: -7.144926279      1.578      1.814
REMARK  5 active torsions:
REMARK  status: ('A' for Active; 'I' for Inactive)
REMARK    1  A    between atoms: C1_2  and  C2_4 
REMARK    2  A    between atoms: C2_4  and  O3_5 
REMARK    3  A    between atoms: O3_5  and  C3_6 
REMARK    4  A    between atoms: C4_7  and  C5_8 
REMARK    5  A    between atoms: C6_12  and  C7_13 
ROOT
HETATM    1  C3  UNL     1      45.261  14.233   1.893  1.00  0.00     0.112 A 
HETATM    2  C4  UNL     1      44.553  14.895   0.926  1.00  0.00     0.117 A 
HETATM    3  S1  UNL     1      44.401  13.728  -0.290  1.00  0.00    -0.078 SA
HETATM    4  C6  UNL     1      45.248  12.411   0.461  1.00  0.00     0.036 A 
HETATM    5  C13 UNL     1      45.616  12.956   1.649  1.00  0.00     0.064 A 
HETATM    6 BR1  UNL     1      46.630  11.908   2.958  1.00  0.00    -0.047 Br
ENDROOT
BRANCH   4   7
HETATM    7  C7  UNL     1      45.431  11.100  -0.169  1.00  0.00    -0.018 A 
HETATM    8  C8  UNL     1      44.546  10.067  -0.129  1.00  0.00     0.013 A 
HETATM    9  C9  UNL     1      44.830   8.854  -0.771  1.00  0.00     0.001 A 
HETATM   10  C10 UNL     1      45.999   8.676  -1.453  1.00  0.00     0.000 A 
HETATM   11  C11 UNL     1      46.893   9.700  -1.502  1.00  0.00     0.001 A 
HETATM   12  C12 UNL     1      46.620  10.878  -0.879  1.00  0.00     0.013 A 
ENDBRANCH   4   7
BRANCH   2  13
HETATM   13  C5  UNL     1      44.061  16.293   0.977  1.00  0.00     0.219 C 
HETATM   14  O4  UNL     1      44.756  17.242   0.617  1.00  0.00    -0.643 OA
HETATM   15  O5  UNL     1      42.778  16.497   1.449  1.00  0.00    -0.643 OA
ENDBRANCH   2  13
BRANCH   1  16
HETATM   16  O3  UNL     1      45.606  14.889   3.121  1.00  0.00    -0.338 OA
BRANCH  16  17
HETATM   17  C2  UNL     1      46.704  15.771   3.099  1.00  0.00     0.288 C 
BRANCH  17  18
HETATM   18  C1  UNL     1      46.380  16.966   3.889  1.00  0.00     0.198 C 
HETATM   19  O1  UNL     1      47.240  17.850   4.170  1.00  0.00    -0.646 OA
HETATM   20  O2  UNL     1      45.098  17.183   4.369  1.00  0.00    -0.646 OA
ENDBRANCH  17  18
ENDBRANCH  16  17
ENDBRANCH   1  16
TORSDOF 5
ENDMDL
