MODEL 2
REMARK VINA RESULT: -6.500020205      1.311      1.311
REMARK  3 active torsions:
REMARK  status: ('A' for Active; 'I' for Inactive)
REMARK       I    between atoms: C2_2  and  N1_4 
REMARK    1  A    between atoms: N1_4  and  C3_6 
REMARK    2  A    between atoms: C4_11  and  S1_12 
REMARK    3  A    between atoms: S1_12  and  N4_13 
ROOT
HETATM    1  C3  UNL     1      -5.725   1.411  14.749  1.00  0.00     0.168 A 
HETATM    2  N2  UNL     1      -5.355   0.175  14.429  1.00  0.00    -0.278 N 
ATOM      3  H2  UNL     1      -5.537  -0.597  15.070  1.00  0.00     0.189 HD
HETATM    4  N3  UNL     1      -4.779  -0.038  13.328  1.00  0.00    -0.281 N 
ATOM      5  H3  UNL     1      -4.494  -0.984  13.077  1.00  0.00     0.188 HD
HETATM    6  C4  UNL     1      -4.543   0.970  12.495  1.00  0.00     0.208 A 
HETATM    7  S2  UNL     1      -5.200   2.282  13.374  1.00  0.00    -0.020 SA
ENDROOT
BRANCH   6   8
HETATM    8  S1  UNL     1      -3.756   0.910  10.908  1.00  0.00     0.280 S 
HETATM    9  O2  UNL     1      -4.572   0.091   9.975  1.00  0.00    -0.199 OA
HETATM   10  O3  UNL     1      -3.671   2.331  10.430  1.00  0.00    -0.199 OA
BRANCH   8  11
HETATM   11  N4  UNL     1      -2.167   0.285  11.113  1.00  0.00    -0.323 N 
ATOM     12  H42 UNL     1      -1.308   0.782  10.877  1.00  0.00     0.169 HD
ATOM     13  H41 UNL     1      -2.238  -0.653  11.505  1.00  0.00     0.169 HD
ENDBRANCH   8  11
ENDBRANCH   6   8
BRANCH   1  14
HETATM   14  N1  UNL     1      -6.389   1.872  15.942  1.00  0.00    -0.306 N 
HETATM   15  C2  UNL     1      -5.904   1.454  17.201  1.00  0.00     0.219 C 
HETATM   16  C1  UNL     1      -6.528   1.881  18.477  1.00  0.00     0.117 C 
HETATM   17  O1  UNL     1      -4.902   0.692  17.225  1.00  0.00    -0.274 OA
ATOM     18  H1  UNL     1      -7.198   2.490  15.878  1.00  0.00     0.171 HD
ENDBRANCH   1  14
TORSDOF 3
ENDMDL
