MODEL 19
REMARK VINA RESULT: -5.700685665      3.802      5.397
REMARK  3 active torsions:
REMARK  status: ('A' for Active; 'I' for Inactive)
REMARK       I    between atoms: C2_2  and  N1_4 
REMARK    1  A    between atoms: N1_4  and  C3_6 
REMARK    2  A    between atoms: C4_11  and  S1_12 
REMARK    3  A    between atoms: S1_12  and  N4_13 
ROOT
HETATM    1  C3  UNL     1      -5.380   4.624  13.955  1.00  0.00     0.168 A 
HETATM    2  N2  UNL     1      -6.412   3.801  13.793  1.00  0.00    -0.278 N 
ATOM      3  H2  UNL     1      -7.239   4.109  13.282  1.00  0.00     0.189 HD
HETATM    4  N3  UNL     1      -6.363   2.637  14.276  1.00  0.00    -0.281 N 
ATOM      5  H3  UNL     1      -7.151   2.002  14.155  1.00  0.00     0.188 HD
HETATM    6  C4  UNL     1      -5.284   2.239  14.942  1.00  0.00     0.208 A 
HETATM    7  S2  UNL     1      -4.306   3.639  14.849  1.00  0.00    -0.020 SA
ENDROOT
BRANCH   6   8
HETATM    8  S1  UNL     1      -4.994   0.663  15.700  1.00  0.00     0.280 S 
HETATM    9  O2  UNL     1      -4.995  -0.400  14.662  1.00  0.00    -0.199 OA
HETATM   10  O3  UNL     1      -3.647   0.758  16.358  1.00  0.00    -0.199 OA
BRANCH   8  11
HETATM   11  N4  UNL     1      -6.195   0.408  16.903  1.00  0.00    -0.323 N 
ATOM     12  H42 UNL     1      -6.451  -0.500  17.291  1.00  0.00     0.169 HD
ATOM     13  H41 UNL     1      -6.599   1.311  17.153  1.00  0.00     0.169 HD
ENDBRANCH   8  11
ENDBRANCH   6   8
BRANCH   1  14
HETATM   14  N1  UNL     1      -5.229   5.979  13.491  1.00  0.00    -0.306 N 
HETATM   15  C2  UNL     1      -5.060   6.215  12.108  1.00  0.00     0.219 C 
HETATM   16  C1  UNL     1      -4.897   7.579  11.547  1.00  0.00     0.117 C 
HETATM   17  O1  UNL     1      -5.049   5.221  11.336  1.00  0.00    -0.274 OA
ATOM     18  H1  UNL     1      -5.243   6.757  14.150  1.00  0.00     0.171 HD
ENDBRANCH   1  14
TORSDOF 3
ENDMDL
