MODEL 1
REMARK VINA RESULT: -6.576226221      0.000      0.000
REMARK  3 active torsions:
REMARK  status: ('A' for Active; 'I' for Inactive)
REMARK       I    between atoms: C2_2  and  N1_4 
REMARK    1  A    between atoms: N1_4  and  C3_6 
REMARK    2  A    between atoms: C4_11  and  S1_12 
REMARK    3  A    between atoms: S1_12  and  N4_13 
ROOT
HETATM    1  C3  UNL     1      -5.155   1.320  14.514  1.00  0.00     0.168 A 
HETATM    2  N2  UNL     1      -5.163   0.006  14.303  1.00  0.00    -0.278 N 
ATOM      3  H2  UNL     1      -5.529  -0.625  15.015  1.00  0.00     0.189 HD
HETATM    4  N3  UNL     1      -4.716  -0.453  13.218  1.00  0.00    -0.281 N 
ATOM      5  H3  UNL     1      -4.720  -1.460  13.051  1.00  0.00     0.188 HD
HETATM    6  C4  UNL     1      -4.239   0.372  12.292  1.00  0.00     0.208 A 
HETATM    7  S2  UNL     1      -4.462   1.886  13.057  1.00  0.00    -0.020 SA
ENDROOT
BRANCH   6   8
HETATM    8  S1  UNL     1      -3.566  -0.043  10.706  1.00  0.00     0.280 S 
HETATM    9  O2  UNL     1      -4.642  -0.012   9.682  1.00  0.00    -0.199 OA
HETATM   10  O3  UNL     1      -2.524   0.996  10.409  1.00  0.00    -0.199 OA
BRANCH   8  11
HETATM   11  N4  UNL     1      -2.813  -1.584  10.821  1.00  0.00    -0.323 N 
ATOM     12  H42 UNL     1      -1.939  -1.773  11.311  1.00  0.00     0.169 HD
ATOM     13  H41 UNL     1      -3.388  -2.262  10.321  1.00  0.00     0.169 HD
ENDBRANCH   8  11
ENDBRANCH   6   8
BRANCH   1  14
HETATM   14  N1  UNL     1      -5.613   2.048  15.669  1.00  0.00    -0.306 N 
HETATM   15  C2  UNL     1      -6.796   1.631  16.319  1.00  0.00     0.219 C 
HETATM   16  C1  UNL     1      -7.336   2.325  17.513  1.00  0.00     0.117 C 
HETATM   17  O1  UNL     1      -7.403   0.631  15.854  1.00  0.00    -0.274 OA
ATOM     18  H1  UNL     1      -5.090   2.854  16.013  1.00  0.00     0.171 HD
ENDBRANCH   1  14
TORSDOF 3
ENDMDL
