MODEL 3
REMARK VINA RESULT: -6.307817418      1.230      1.265
REMARK  3 active torsions:
REMARK  status: ('A' for Active; 'I' for Inactive)
REMARK       I    between atoms: C2_2  and  N1_4 
REMARK    1  A    between atoms: N1_4  and  C3_6 
REMARK    2  A    between atoms: C4_11  and  S1_12 
REMARK    3  A    between atoms: S1_12  and  N4_13 
ROOT
HETATM    1  C3  UNL     1      -5.557   1.960  14.206  1.00  0.00     0.168 A 
HETATM    2  N2  UNL     1      -5.761   2.533  13.024  1.00  0.00    -0.278 N 
ATOM      3  H2  UNL     1      -6.310   3.391  12.958  1.00  0.00     0.189 HD
HETATM    4  N3  UNL     1      -5.274   2.011  11.985  1.00  0.00    -0.281 N 
ATOM      5  H3  UNL     1      -5.428   2.447  11.075  1.00  0.00     0.188 HD
HETATM    6  C4  UNL     1      -4.561   0.894  12.074  1.00  0.00     0.208 A 
HETATM    7  S2  UNL     1      -4.612   0.606  13.759  1.00  0.00    -0.020 SA
ENDROOT
BRANCH   6   8
HETATM    8  S1  UNL     1      -3.786  -0.011  10.762  1.00  0.00     0.280 S 
HETATM    9  O2  UNL     1      -4.719  -0.123   9.611  1.00  0.00    -0.199 OA
HETATM   10  O3  UNL     1      -2.565   0.774  10.377  1.00  0.00    -0.199 OA
BRANCH   8  11
HETATM   11  N4  UNL     1      -3.305  -1.546  11.369  1.00  0.00    -0.323 N 
ATOM     12  H42 UNL     1      -3.882  -2.151  11.953  1.00  0.00     0.169 HD
ATOM     13  H41 UNL     1      -2.357  -1.738  11.047  1.00  0.00     0.169 HD
ENDBRANCH   8  11
ENDBRANCH   6   8
BRANCH   1  14
HETATM   14  N1  UNL     1      -6.016   2.384  15.504  1.00  0.00    -0.306 N 
HETATM   15  C2  UNL     1      -6.889   1.543  16.230  1.00  0.00     0.219 C 
HETATM   16  C1  UNL     1      -7.409   1.903  17.571  1.00  0.00     0.117 C 
HETATM   17  O1  UNL     1      -7.229   0.451  15.705  1.00  0.00    -0.274 OA
ATOM     18  H1  UNL     1      -5.716   3.277  15.893  1.00  0.00     0.171 HD
ENDBRANCH   1  14
TORSDOF 3
ENDMDL
