MODEL 16
REMARK VINA RESULT: -5.763918496      3.895      5.673
REMARK  3 active torsions:
REMARK  status: ('A' for Active; 'I' for Inactive)
REMARK       I    between atoms: C2_2  and  N1_4 
REMARK    1  A    between atoms: N1_4  and  C3_6 
REMARK    2  A    between atoms: C4_11  and  S1_12 
REMARK    3  A    between atoms: S1_12  and  N4_13 
ROOT
HETATM    1  C3  UNL     1      -4.387   4.439  14.892  1.00  0.00     0.168 A 
HETATM    2  N2  UNL     1      -3.510   3.529  15.306  1.00  0.00    -0.278 N 
ATOM      3  H2  UNL     1      -2.513   3.742  15.309  1.00  0.00     0.189 HD
HETATM    4  N3  UNL     1      -3.919   2.401  15.694  1.00  0.00    -0.281 N 
ATOM      5  H3  UNL     1      -3.251   1.699  16.012  1.00  0.00     0.188 HD
HETATM    6  C4  UNL     1      -5.219   2.126  15.688  1.00  0.00     0.208 A 
HETATM    7  S2  UNL     1      -5.861   3.593  15.087  1.00  0.00    -0.020 SA
ENDROOT
BRANCH   6   8
HETATM    8  S1  UNL     1      -6.016   0.624  16.185  1.00  0.00     0.280 S 
HETATM    9  O2  UNL     1      -7.433   0.636  15.736  1.00  0.00    -0.199 OA
HETATM   10  O3  UNL     1      -5.261  -0.490  15.519  1.00  0.00    -0.199 OA
BRANCH   8  11
HETATM   11  N4  UNL     1      -5.870   0.468  17.891  1.00  0.00    -0.323 N 
ATOM     12  H42 UNL     1      -4.998   0.553  18.413  1.00  0.00     0.169 HD
ATOM     13  H41 UNL     1      -6.794   0.280  18.278  1.00  0.00     0.169 HD
ENDBRANCH   8  11
ENDBRANCH   6   8
BRANCH   1  14
HETATM   14  N1  UNL     1      -4.140   5.775  14.413  1.00  0.00    -0.306 N 
HETATM   15  C2  UNL     1      -3.415   5.949  13.213  1.00  0.00     0.219 C 
HETATM   16  C1  UNL     1      -3.117   7.289  12.651  1.00  0.00     0.117 C 
HETATM   17  O1  UNL     1      -3.014   4.919  12.610  1.00  0.00    -0.274 OA
ATOM     18  H1  UNL     1      -4.483   6.583  14.933  1.00  0.00     0.171 HD
ENDBRANCH   1  14
TORSDOF 3
ENDMDL
