MODEL 1
REMARK VINA RESULT: -7.426216668      0.000      0.000
REMARK  3 active torsions:
REMARK  status: ('A' for Active; 'I' for Inactive)
REMARK    1  A    between atoms: C1_2  and  C2_4 
REMARK    2  A    between atoms: C2_4  and  C3_5 
REMARK    3  A    between atoms: C6_8  and  O3_9 
ROOT
HETATM    1  C3  UNL     1      62.661  84.384  14.073  1.00  0.00    -0.046 A 
HETATM    2  C4  UNL     1      63.992  84.734  13.990  1.00  0.00     0.010 A 
HETATM    3  C5  UNL     1      64.862  84.333  14.984  1.00  0.00     0.039 A 
HETATM    4  C6  UNL     1      64.452  83.588  16.070  1.00  0.00     0.087 A 
HETATM    5  C7  UNL     1      63.122  83.234  16.160  1.00  0.00     0.067 A 
HETATM    6 CL1  UNL     1      62.548  82.298  17.504  1.00  0.00    -0.081 Cl
HETATM    7  C8  UNL     1      62.238  83.638  15.155  1.00  0.00     0.034 A 
ENDROOT
BRANCH   1   8
HETATM    8  C2  UNL     1      61.704  84.802  13.019  1.00  0.00     0.151 C 
BRANCH   8   9
HETATM    9  C1  UNL     1      61.233  83.594  12.248  1.00  0.00     0.176 C 
HETATM   10  O1  UNL     1      60.014  83.370  12.048  1.00  0.00    -0.648 OA
HETATM   11  O2  UNL     1      62.151  82.695  11.737  1.00  0.00    -0.648 OA
ENDBRANCH   8   9
ENDBRANCH   1   8
BRANCH   4  12
HETATM   12  O3  UNL     1      65.317  83.179  17.078  1.00  0.00    -0.359 OA
ATOM     13  H3  UNL     1      65.056  83.112  17.989  1.00  0.00     0.217 HD
ENDBRANCH   4  12
TORSDOF 3
ENDMDL
