MODEL 4
REMARK VINA RESULT: -6.302875766      2.427      4.748
REMARK  3 active torsions:
REMARK  status: ('A' for Active; 'I' for Inactive)
REMARK    1  A    between atoms: C1_2  and  C2_4 
REMARK    2  A    between atoms: C2_4  and  C3_5 
REMARK    3  A    between atoms: C6_8  and  O3_9 
ROOT
HETATM    1  C3  UNL     1      63.499  84.481  14.556  1.00  0.00    -0.046 A 
HETATM    2  C4  UNL     1      62.744  85.416  15.234  1.00  0.00     0.010 A 
HETATM    3  C5  UNL     1      61.506  85.773  14.741  1.00  0.00     0.039 A 
HETATM    4  C6  UNL     1      60.984  85.229  13.585  1.00  0.00     0.087 A 
HETATM    5  C7  UNL     1      61.732  84.294  12.902  1.00  0.00     0.067 A 
HETATM    6 CL1  UNL     1      61.127  83.576  11.444  1.00  0.00    -0.081 Cl
HETATM    7  C8  UNL     1      62.988  83.929  13.399  1.00  0.00     0.034 A 
ENDROOT
BRANCH   1   8
HETATM    8  C2  UNL     1      64.834  84.079  15.064  1.00  0.00     0.151 C 
BRANCH   8   9
HETATM    9  C1  UNL     1      64.675  83.157  16.247  1.00  0.00     0.176 C 
HETATM   10  O1  UNL     1      65.302  83.340  17.319  1.00  0.00    -0.648 OA
HETATM   11  O2  UNL     1      63.818  82.074  16.173  1.00  0.00    -0.648 OA
ENDBRANCH   8   9
ENDBRANCH   1   8
BRANCH   4  12
HETATM   12  O3  UNL     1      59.738  85.582  13.078  1.00  0.00    -0.359 OA
ATOM     13  H3  UNL     1      59.442  85.329  12.212  1.00  0.00     0.217 HD
ENDBRANCH   4  12
TORSDOF 3
ENDMDL
