MODEL 2
REMARK VINA RESULT: -6.925511871      1.301      1.536
REMARK  3 active torsions:
REMARK  status: ('A' for Active; 'I' for Inactive)
REMARK    1  A    between atoms: C1_2  and  C2_4 
REMARK    2  A    between atoms: C2_4  and  C3_5 
REMARK    3  A    between atoms: C6_8  and  O3_9 
ROOT
HETATM    1  C3  UNL     1      62.523  83.547  14.056  1.00  0.00    -0.046 A 
HETATM    2  C4  UNL     1      63.729  84.209  13.957  1.00  0.00     0.010 A 
HETATM    3  C5  UNL     1      64.622  84.152  15.007  1.00  0.00     0.039 A 
HETATM    4  C6  UNL     1      64.358  83.452  16.167  1.00  0.00     0.087 A 
HETATM    5  C7  UNL     1      63.155  82.787  16.274  1.00  0.00     0.067 A 
HETATM    6 CL1  UNL     1      62.768  81.892  17.708  1.00  0.00    -0.081 Cl
HETATM    7  C8  UNL     1      62.247  82.842  15.211  1.00  0.00     0.034 A 
ENDROOT
BRANCH   1   8
HETATM    8  C2  UNL     1      61.545  83.591  12.943  1.00  0.00     0.151 C 
BRANCH   8   9
HETATM    9  C1  UNL     1      60.737  84.862  13.021  1.00  0.00     0.176 C 
HETATM   10  O1  UNL     1      60.591  85.617  12.029  1.00  0.00    -0.648 OA
HETATM   11  O2  UNL     1      60.130  85.226  14.209  1.00  0.00    -0.648 OA
ENDBRANCH   8   9
ENDBRANCH   1   8
BRANCH   4  12
HETATM   12  O3  UNL     1      65.249  83.388  17.232  1.00  0.00    -0.359 OA
ATOM     13  H3  UNL     1      65.157  82.770  17.947  1.00  0.00     0.217 HD
ENDBRANCH   4  12
TORSDOF 3
ENDMDL
