MODEL 3
REMARK VINA RESULT: -6.703316266      0.937      1.094
REMARK  3 active torsions:
REMARK  status: ('A' for Active; 'I' for Inactive)
REMARK    1  A    between atoms: C1_2  and  C2_4 
REMARK    2  A    between atoms: C2_4  and  C3_5 
REMARK    3  A    between atoms: C6_8  and  O3_9 
ROOT
HETATM    1  C3  UNL     1      61.937  83.306  14.621  1.00  0.00    -0.046 A 
HETATM    2  C4  UNL     1      63.102  83.938  14.239  1.00  0.00     0.010 A 
HETATM    3  C5  UNL     1      64.177  83.958  15.103  1.00  0.00     0.039 A 
HETATM    4  C6  UNL     1      64.138  83.365  16.348  1.00  0.00     0.087 A 
HETATM    5  C7  UNL     1      62.977  82.731  16.738  1.00  0.00     0.067 A 
HETATM    6 CL1  UNL     1      62.868  81.968  18.292  1.00  0.00    -0.081 Cl
HETATM    7  C8  UNL     1      61.885  82.708  15.864  1.00  0.00     0.034 A 
ENDROOT
BRANCH   1   8
HETATM    8  C2  UNL     1      60.766  83.269  13.711  1.00  0.00     0.151 C 
BRANCH   8   9
HETATM    9  C1  UNL     1      61.177  83.713  12.330  1.00  0.00     0.176 C 
HETATM   10  O1  UNL     1      60.935  84.870  11.906  1.00  0.00    -0.648 OA
HETATM   11  O2  UNL     1      61.840  82.839  11.489  1.00  0.00    -0.648 OA
ENDBRANCH   8   9
ENDBRANCH   1   8
BRANCH   4  12
HETATM   12  O3  UNL     1      65.214  83.379  17.228  1.00  0.00    -0.359 OA
ATOM     13  H3  UNL     1      65.191  83.825  18.066  1.00  0.00     0.217 HD
ENDBRANCH   4  12
TORSDOF 3
ENDMDL
