MODEL 6
REMARK VINA RESULT: -6.200193922      1.449      1.531
REMARK  3 active torsions:
REMARK  status: ('A' for Active; 'I' for Inactive)
REMARK    1  A    between atoms: C1_2  and  C2_4 
REMARK    2  A    between atoms: C2_4  and  C3_5 
REMARK    3  A    between atoms: C6_8  and  O3_9 
ROOT
HETATM    1  C3  UNL     1      62.261  83.716  13.645  1.00  0.00    -0.046 A 
HETATM    2  C4  UNL     1      63.492  84.326  13.519  1.00  0.00     0.010 A 
HETATM    3  C5  UNL     1      64.415  84.207  14.537  1.00  0.00     0.039 A 
HETATM    4  C6  UNL     1      64.157  83.496  15.691  1.00  0.00     0.087 A 
HETATM    5  C7  UNL     1      62.929  82.883  15.825  1.00  0.00     0.067 A 
HETATM    6 CL1  UNL     1      62.549  81.976  17.254  1.00  0.00    -0.081 Cl
HETATM    7  C8  UNL     1      61.991  83.001  14.795  1.00  0.00     0.034 A 
ENDROOT
BRANCH   1   8
HETATM    8  C2  UNL     1      61.250  83.827  12.565  1.00  0.00     0.151 C 
BRANCH   8   9
HETATM    9  C1  UNL     1      60.569  85.170  12.639  1.00  0.00     0.176 C 
HETATM   10  O1  UNL     1      59.790  85.468  13.578  1.00  0.00    -0.648 OA
HETATM   11  O2  UNL     1      60.793  86.117  11.657  1.00  0.00    -0.648 OA
ENDBRANCH   8   9
ENDBRANCH   1   8
BRANCH   4  12
HETATM   12  O3  UNL     1      65.079  83.370  16.725  1.00  0.00    -0.359 OA
ATOM     13  H3  UNL     1      66.004  83.552  16.617  1.00  0.00     0.217 HD
ENDBRANCH   4  12
TORSDOF 3
ENDMDL
