MODEL 7
REMARK VINA RESULT: -6.174427241      2.290      4.890
REMARK  3 active torsions:
REMARK  status: ('A' for Active; 'I' for Inactive)
REMARK    1  A    between atoms: C1_2  and  C2_4 
REMARK    2  A    between atoms: C2_4  and  C3_5 
REMARK    3  A    between atoms: C6_8  and  O3_9 
ROOT
HETATM    1  C3  UNL     1      62.493  84.290  15.319  1.00  0.00    -0.046 A 
HETATM    2  C4  UNL     1      62.595  83.039  14.746  1.00  0.00     0.010 A 
HETATM    3  C5  UNL     1      61.862  82.750  13.614  1.00  0.00     0.039 A 
HETATM    4  C6  UNL     1      61.021  83.670  13.021  1.00  0.00     0.087 A 
HETATM    5  C7  UNL     1      60.914  84.923  13.587  1.00  0.00     0.067 A 
HETATM    6 CL1  UNL     1      59.873  86.120  12.886  1.00  0.00    -0.081 Cl
HETATM    7  C8  UNL     1      61.656  85.220  14.735  1.00  0.00     0.034 A 
ENDROOT
BRANCH   1   8
HETATM    8  C2  UNL     1      63.270  84.627  16.536  1.00  0.00     0.151 C 
BRANCH   8   9
HETATM    9  C1  UNL     1      64.043  83.419  17.001  1.00  0.00     0.176 C 
HETATM   10  O1  UNL     1      65.264  83.274  16.745  1.00  0.00    -0.648 OA
HETATM   11  O2  UNL     1      63.411  82.430  17.732  1.00  0.00    -0.648 OA
ENDBRANCH   8   9
ENDBRANCH   1   8
BRANCH   4  12
HETATM   12  O3  UNL     1      60.277  83.391  11.880  1.00  0.00    -0.359 OA
ATOM     13  H3  UNL     1      59.508  83.888  11.630  1.00  0.00     0.217 HD
ENDBRANCH   4  12
TORSDOF 3
ENDMDL
