MODEL 1
REMARK VINA RESULT: -6.377975987      0.000      0.000
REMARK  11 active torsions:
REMARK  status: ('A' for Active; 'I' for Inactive)
REMARK    1  A    between atoms: N1_2  and  C4_5 
REMARK    2  A    between atoms: C4_5  and  C5_6 
REMARK    3  A    between atoms: C5_6  and  O1_7 
REMARK    4  A    between atoms: O1_7  and  C6_8 
REMARK    5  A    between atoms: C6_8  and  C7_10 
REMARK    6  A    between atoms: C7_10  and  C8_11 
REMARK    7  A    between atoms: C8_11  and  C9_12 
REMARK    8  A    between atoms: C9_12  and  O4_14 
REMARK    9  A    between atoms: O4_14  and  C10_15 
REMARK   10  A    between atoms: C10_15  and  C11_16 
REMARK   11  A    between atoms: C11_16  and  N2_17 
ROOT
HETATM    1  C7  UNL     1      30.586  19.271  10.730  1.00  0.00     0.121 C 
ENDROOT
BRANCH   1   2
HETATM    2  C6  UNL     1      29.799  20.397  11.349  1.00  0.00     0.259 C 
HETATM    3  O2  UNL     1      28.566  20.479  11.151  1.00  0.00    -0.265 OA
BRANCH   2   4
HETATM    4  O1  UNL     1      30.431  21.332  12.127  1.00  0.00    -0.320 OA
BRANCH   4   5
HETATM    5  C5  UNL     1      29.801  21.909  13.235  1.00  0.00     0.206 C 
BRANCH   5   6
HETATM    6  C4  UNL     1      30.460  23.198  13.591  1.00  0.00     0.262 C 
BRANCH   6   7
HETATM    7  N1  UNL     1      30.928  23.188  14.987  1.00  0.00    -0.077 N 
HETATM    8  C1  UNL     1      32.370  23.330  14.938  1.00  0.00     0.271 C 
HETATM    9  C2  UNL     1      30.354  24.293  15.731  1.00  0.00     0.271 C 
HETATM   10  C3  UNL     1      30.621  21.921  15.584  1.00  0.00     0.271 C 
ENDBRANCH   6   7
ENDBRANCH   5   6
ENDBRANCH   4   5
ENDBRANCH   2   4
ENDBRANCH   1   2
BRANCH   1  11
HETATM   11  C8  UNL     1      30.914  18.263  11.816  1.00  0.00     0.121 C 
BRANCH  11  12
HETATM   12  C9  UNL     1      29.929  17.148  11.797  1.00  0.00     0.259 C 
HETATM   13  O3  UNL     1      29.842  16.468  10.757  1.00  0.00    -0.265 OA
BRANCH  12  14
HETATM   14  O4  UNL     1      29.143  16.874  12.882  1.00  0.00    -0.320 OA
BRANCH  14  15
HETATM   15  C10 UNL     1      28.109  17.730  13.283  1.00  0.00     0.206 C 
BRANCH  15  16
HETATM   16  C11 UNL     1      27.354  17.130  14.415  1.00  0.00     0.262 C 
BRANCH  16  17
HETATM   17  N2  UNL     1      26.825  18.122  15.332  1.00  0.00    -0.077 N 
HETATM   18  C12 UNL     1      27.002  17.619  16.678  1.00  0.00     0.271 C 
HETATM   19  C13 UNL     1      27.498  19.396  15.232  1.00  0.00     0.271 C 
HETATM   20  C14 UNL     1      25.411  18.360  15.114  1.00  0.00     0.271 C 
ENDBRANCH  16  17
ENDBRANCH  15  16
ENDBRANCH  14  15
ENDBRANCH  12  14
ENDBRANCH  11  12
ENDBRANCH   1  11
TORSDOF 11
ENDMDL
