MODEL 4
REMARK VINA RESULT: -6.326363429      1.520      5.241
REMARK  11 active torsions:
REMARK  status: ('A' for Active; 'I' for Inactive)
REMARK    1  A    between atoms: N1_2  and  C4_5 
REMARK    2  A    between atoms: C4_5  and  C5_6 
REMARK    3  A    between atoms: C5_6  and  O1_7 
REMARK    4  A    between atoms: O1_7  and  C6_8 
REMARK    5  A    between atoms: C6_8  and  C7_10 
REMARK    6  A    between atoms: C7_10  and  C8_11 
REMARK    7  A    between atoms: C8_11  and  C9_12 
REMARK    8  A    between atoms: C9_12  and  O4_14 
REMARK    9  A    between atoms: O4_14  and  C10_15 
REMARK   10  A    between atoms: C10_15  and  C11_16 
REMARK   11  A    between atoms: C11_16  and  N2_17 
ROOT
HETATM    1  C7  UNL     1      28.318  20.522  11.270  1.00  0.00     0.121 C 
ENDROOT
BRANCH   1   2
HETATM    2  C6  UNL     1      27.030  20.538  12.050  1.00  0.00     0.259 C 
HETATM    3  O2  UNL     1      26.001  20.014  11.566  1.00  0.00    -0.265 OA
BRANCH   2   4
HETATM    4  O1  UNL     1      26.981  21.125  13.288  1.00  0.00    -0.320 OA
BRANCH   4   5
HETATM    5  C5  UNL     1      26.407  20.474  14.385  1.00  0.00     0.206 C 
BRANCH   5   6
HETATM    6  C4  UNL     1      27.374  19.505  14.975  1.00  0.00     0.262 C 
BRANCH   6   7
HETATM    7  N1  UNL     1      26.761  18.177  15.143  1.00  0.00    -0.077 N 
HETATM    8  C1  UNL     1      27.350  17.322  14.131  1.00  0.00     0.271 C 
HETATM    9  C2  UNL     1      27.044  17.641  16.461  1.00  0.00     0.271 C 
HETATM   10  C3  UNL     1      25.352  18.267  14.890  1.00  0.00     0.271 C 
ENDBRANCH   6   7
ENDBRANCH   5   6
ENDBRANCH   4   5
ENDBRANCH   2   4
ENDBRANCH   1   2
BRANCH   1  11
HETATM   11  C8  UNL     1      29.062  19.241  11.601  1.00  0.00     0.121 C 
BRANCH  11  12
HETATM   12  C9  UNL     1      30.256  19.541  12.436  1.00  0.00     0.259 C 
HETATM   13  O3  UNL     1      31.075  18.623  12.628  1.00  0.00    -0.265 OA
BRANCH  12  14
HETATM   14  O4  UNL     1      30.453  20.782  12.977  1.00  0.00    -0.320 OA
BRANCH  14  15
HETATM   15  C10 UNL     1      30.512  20.984  14.362  1.00  0.00     0.206 C 
BRANCH  15  16
HETATM   16  C11 UNL     1      29.953  22.317  14.711  1.00  0.00     0.262 C 
BRANCH  16  17
HETATM   17  N2  UNL     1      30.902  23.166  15.406  1.00  0.00    -0.077 N 
HETATM   18  C12 UNL     1      31.288  22.490  16.626  1.00  0.00     0.271 C 
HETATM   19  C13 UNL     1      32.095  23.425  14.634  1.00  0.00     0.271 C 
HETATM   20  C14 UNL     1      30.324  24.449  15.756  1.00  0.00     0.271 C 
ENDBRANCH  16  17
ENDBRANCH  15  16
ENDBRANCH  14  15
ENDBRANCH  12  14
ENDBRANCH  11  12
ENDBRANCH   1  11
TORSDOF 11
ENDMDL
