MODEL 2
REMARK VINA RESULT: -6.362756374      0.899      5.217
REMARK  11 active torsions:
REMARK  status: ('A' for Active; 'I' for Inactive)
REMARK    1  A    between atoms: N1_2  and  C4_5 
REMARK    2  A    between atoms: C4_5  and  C5_6 
REMARK    3  A    between atoms: C5_6  and  O1_7 
REMARK    4  A    between atoms: O1_7  and  C6_8 
REMARK    5  A    between atoms: C6_8  and  C7_10 
REMARK    6  A    between atoms: C7_10  and  C8_11 
REMARK    7  A    between atoms: C8_11  and  C9_12 
REMARK    8  A    between atoms: C9_12  and  O4_14 
REMARK    9  A    between atoms: O4_14  and  C10_15 
REMARK   10  A    between atoms: C10_15  and  C11_16 
REMARK   11  A    between atoms: C11_16  and  N2_17 
ROOT
HETATM    1  C7  UNL     1      30.879  18.162  11.840  1.00  0.00     0.121 C 
ENDROOT
BRANCH   1   2
HETATM    2  C6  UNL     1      29.685  17.266  12.037  1.00  0.00     0.259 C 
HETATM    3  O2  UNL     1      29.146  16.719  11.050  1.00  0.00    -0.265 OA
BRANCH   2   4
HETATM    4  O1  UNL     1      29.187  17.049  13.296  1.00  0.00    -0.320 OA
BRANCH   4   5
HETATM    5  C5  UNL     1      27.840  17.272  13.599  1.00  0.00     0.206 C 
BRANCH   5   6
HETATM    6  C4  UNL     1      27.469  18.685  13.299  1.00  0.00     0.262 C 
BRANCH   6   7
HETATM    7  N1  UNL     1      26.837  19.328  14.462  1.00  0.00    -0.077 N 
HETATM    8  C1  UNL     1      26.523  20.686  14.062  1.00  0.00     0.271 C 
HETATM    9  C2  UNL     1      25.617  18.635  14.834  1.00  0.00     0.271 C 
HETATM   10  C3  UNL     1      27.775  19.384  15.545  1.00  0.00     0.271 C 
ENDBRANCH   6   7
ENDBRANCH   5   6
ENDBRANCH   4   5
ENDBRANCH   2   4
ENDBRANCH   1   2
BRANCH   1  11
HETATM   11  C8  UNL     1      30.468  19.318  10.946  1.00  0.00     0.121 C 
BRANCH  11  12
HETATM   12  C9  UNL     1      29.898  20.423  11.763  1.00  0.00     0.259 C 
HETATM   13  O3  UNL     1      28.994  21.113  11.255  1.00  0.00    -0.265 OA
BRANCH  12  14
HETATM   14  O4  UNL     1      30.347  20.676  13.030  1.00  0.00    -0.320 OA
BRANCH  14  15
HETATM   15  C10 UNL     1      30.016  21.856  13.709  1.00  0.00     0.206 C 
BRANCH  15  16
HETATM   16  C11 UNL     1      30.588  21.836  15.082  1.00  0.00     0.262 C 
BRANCH  16  17
HETATM   17  N2  UNL     1      31.203  23.095  15.459  1.00  0.00    -0.077 N 
HETATM   18  C12 UNL     1      31.602  22.994  16.846  1.00  0.00     0.271 C 
HETATM   19  C13 UNL     1      32.375  23.405  14.672  1.00  0.00     0.271 C 
HETATM   20  C14 UNL     1      30.284  24.207  15.325  1.00  0.00     0.271 C 
ENDBRANCH  16  17
ENDBRANCH  15  16
ENDBRANCH  14  15
ENDBRANCH  12  14
ENDBRANCH  11  12
ENDBRANCH   1  11
TORSDOF 11
ENDMDL
