MODEL 7
REMARK VINA RESULT: -6.235429976      3.845      5.294
REMARK  11 active torsions:
REMARK  status: ('A' for Active; 'I' for Inactive)
REMARK    1  A    between atoms: N1_2  and  C4_5 
REMARK    2  A    between atoms: C4_5  and  C5_6 
REMARK    3  A    between atoms: C5_6  and  O1_7 
REMARK    4  A    between atoms: O1_7  and  C6_8 
REMARK    5  A    between atoms: C6_8  and  C7_10 
REMARK    6  A    between atoms: C7_10  and  C8_11 
REMARK    7  A    between atoms: C8_11  and  C9_12 
REMARK    8  A    between atoms: C9_12  and  O4_14 
REMARK    9  A    between atoms: O4_14  and  C10_15 
REMARK   10  A    between atoms: C10_15  and  C11_16 
REMARK   11  A    between atoms: C11_16  and  N2_17 
ROOT
HETATM    1  C7  UNL     1      30.369  22.392  10.157  1.00  0.00     0.121 C 
ENDROOT
BRANCH   1   2
HETATM    2  C6  UNL     1      31.337  21.655   9.270  1.00  0.00     0.259 C 
HETATM    3  O2  UNL     1      31.907  20.623   9.690  1.00  0.00    -0.265 OA
BRANCH   2   4
HETATM    4  O1  UNL     1      31.597  22.112   8.003  1.00  0.00    -0.320 OA
BRANCH   4   5
HETATM    5  C5  UNL     1      32.746  21.725   7.306  1.00  0.00     0.206 C 
BRANCH   5   6
HETATM    6  C4  UNL     1      33.859  22.680   7.573  1.00  0.00     0.262 C 
BRANCH   6   7
HETATM    7  N1  UNL     1      35.030  21.989   8.136  1.00  0.00    -0.077 N 
HETATM    8  C1  UNL     1      36.197  22.579   7.509  1.00  0.00     0.271 C 
HETATM    9  C2  UNL     1      35.100  22.180   9.573  1.00  0.00     0.271 C 
HETATM   10  C3  UNL     1      34.982  20.601   7.780  1.00  0.00     0.271 C 
ENDBRANCH   6   7
ENDBRANCH   5   6
ENDBRANCH   4   5
ENDBRANCH   2   4
ENDBRANCH   1   2
BRANCH   1  11
HETATM   11  C8  UNL     1      29.420  21.381  10.773  1.00  0.00     0.121 C 
BRANCH  11  12
HETATM   12  C9  UNL     1      29.533  21.407  12.256  1.00  0.00     0.259 C 
HETATM   13  O3  UNL     1      30.399  20.686  12.785  1.00  0.00    -0.265 OA
BRANCH  12  14
HETATM   14  O4  UNL     1      28.717  22.197  13.019  1.00  0.00    -0.320 OA
BRANCH  14  15
HETATM   15  C10 UNL     1      28.108  21.721  14.187  1.00  0.00     0.206 C 
BRANCH  15  16
HETATM   16  C11 UNL     1      26.925  20.886  13.846  1.00  0.00     0.262 C 
BRANCH  16  17
HETATM   17  N2  UNL     1      27.021  19.531  14.357  1.00  0.00    -0.077 N 
HETATM   18  C12 UNL     1      25.689  19.104  14.730  1.00  0.00     0.271 C 
HETATM   19  C13 UNL     1      27.541  18.598  13.384  1.00  0.00     0.271 C 
HETATM   20  C14 UNL     1      27.872  19.455  15.529  1.00  0.00     0.271 C 
ENDBRANCH  16  17
ENDBRANCH  15  16
ENDBRANCH  14  15
ENDBRANCH  12  14
ENDBRANCH  11  12
ENDBRANCH   1  11
TORSDOF 11
ENDMDL
