MODEL 6
REMARK VINA RESULT: -6.282922914      3.995      7.320
REMARK  11 active torsions:
REMARK  status: ('A' for Active; 'I' for Inactive)
REMARK    1  A    between atoms: N1_2  and  C4_5 
REMARK    2  A    between atoms: C4_5  and  C5_6 
REMARK    3  A    between atoms: C5_6  and  O1_7 
REMARK    4  A    between atoms: O1_7  and  C6_8 
REMARK    5  A    between atoms: C6_8  and  C7_10 
REMARK    6  A    between atoms: C7_10  and  C8_11 
REMARK    7  A    between atoms: C8_11  and  C9_12 
REMARK    8  A    between atoms: C9_12  and  O4_14 
REMARK    9  A    between atoms: O4_14  and  C10_15 
REMARK   10  A    between atoms: C10_15  and  C11_16 
REMARK   11  A    between atoms: C11_16  and  N2_17 
ROOT
HETATM    1  C7  UNL     1      30.830  23.261  10.884  1.00  0.00     0.121 C 
ENDROOT
BRANCH   1   2
HETATM    2  C6  UNL     1      30.188  23.215  12.246  1.00  0.00     0.259 C 
HETATM    3  O2  UNL     1      29.382  24.110  12.586  1.00  0.00    -0.265 OA
BRANCH   2   4
HETATM    4  O1  UNL     1      30.485  22.196  13.114  1.00  0.00    -0.320 OA
BRANCH   4   5
HETATM    5  C5  UNL     1      29.485  21.528  13.828  1.00  0.00     0.206 C 
BRANCH   5   6
HETATM    6  C4  UNL     1      29.110  20.264  13.132  1.00  0.00     0.262 C 
BRANCH   6   7
HETATM    7  N1  UNL     1      27.650  20.072  13.128  1.00  0.00    -0.077 N 
HETATM    8  C1  UNL     1      27.213  20.272  11.760  1.00  0.00     0.271 C 
HETATM    9  C2  UNL     1      27.305  18.730  13.559  1.00  0.00     0.271 C 
HETATM   10  C3  UNL     1      27.035  21.075  13.947  1.00  0.00     0.271 C 
ENDBRANCH   6   7
ENDBRANCH   5   6
ENDBRANCH   4   5
ENDBRANCH   2   4
ENDBRANCH   1   2
BRANCH   1  11
HETATM   11  C8  UNL     1      30.221  22.163  10.031  1.00  0.00     0.121 C 
BRANCH  11  12
HETATM   12  C9  UNL     1      31.267  21.532   9.182  1.00  0.00     0.259 C 
HETATM   13  O3  UNL     1      31.881  20.554   9.647  1.00  0.00    -0.265 OA
BRANCH  12  14
HETATM   14  O4  UNL     1      31.548  22.006   7.929  1.00  0.00    -0.320 OA
BRANCH  14  15
HETATM   15  C10 UNL     1      32.728  21.662   7.257  1.00  0.00     0.206 C 
BRANCH  15  16
HETATM   16  C11 UNL     1      33.802  22.641   7.570  1.00  0.00     0.262 C 
BRANCH  16  17
HETATM   17  N2  UNL     1      34.998  22.019   8.106  1.00  0.00    -0.077 N 
HETATM   18  C12 UNL     1      34.976  20.622   7.730  1.00  0.00     0.271 C 
HETATM   19  C13 UNL     1      36.215  22.607   7.595  1.00  0.00     0.271 C 
HETATM   20  C14 UNL     1      35.050  22.104   9.553  1.00  0.00     0.271 C 
ENDBRANCH  16  17
ENDBRANCH  15  16
ENDBRANCH  14  15
ENDBRANCH  12  14
ENDBRANCH  11  12
ENDBRANCH   1  11
TORSDOF 11
ENDMDL
