MODEL 17
REMARK VINA RESULT: -6.137271292      3.716      7.345
REMARK  11 active torsions:
REMARK  status: ('A' for Active; 'I' for Inactive)
REMARK    1  A    between atoms: N1_2  and  C4_5 
REMARK    2  A    between atoms: C4_5  and  C5_6 
REMARK    3  A    between atoms: C5_6  and  O1_7 
REMARK    4  A    between atoms: O1_7  and  C6_8 
REMARK    5  A    between atoms: C6_8  and  C7_10 
REMARK    6  A    between atoms: C7_10  and  C8_11 
REMARK    7  A    between atoms: C8_11  and  C9_12 
REMARK    8  A    between atoms: C9_12  and  O4_14 
REMARK    9  A    between atoms: O4_14  and  C10_15 
REMARK   10  A    between atoms: C10_15  and  C11_16 
REMARK   11  A    between atoms: C11_16  and  N2_17 
ROOT
HETATM    1  C7  UNL     1      29.362  21.269  11.177  1.00  0.00     0.121 C 
ENDROOT
BRANCH   1   2
HETATM    2  C6  UNL     1      29.426  21.648  12.634  1.00  0.00     0.259 C 
HETATM    3  O2  UNL     1      30.529  21.670  13.225  1.00  0.00    -0.265 OA
BRANCH   2   4
HETATM    4  O1  UNL     1      28.279  21.966  13.314  1.00  0.00    -0.320 OA
BRANCH   4   5
HETATM    5  C5  UNL     1      27.323  20.996  13.632  1.00  0.00     0.206 C 
BRANCH   5   6
HETATM    6  C4  UNL     1      27.709  20.280  14.882  1.00  0.00     0.262 C 
BRANCH   6   7
HETATM    7  N1  UNL     1      27.193  18.901  14.886  1.00  0.00    -0.077 N 
HETATM    8  C1  UNL     1      27.580  18.322  16.158  1.00  0.00     0.271 C 
HETATM    9  C2  UNL     1      25.747  18.892  14.766  1.00  0.00     0.271 C 
HETATM   10  C3  UNL     1      27.825  18.152  13.840  1.00  0.00     0.271 C 
ENDBRANCH   6   7
ENDBRANCH   5   6
ENDBRANCH   4   5
ENDBRANCH   2   4
ENDBRANCH   1   2
BRANCH   1  11
HETATM   11  C8  UNL     1      30.133  22.305  10.380  1.00  0.00     0.121 C 
BRANCH  11  12
HETATM   12  C9  UNL     1      31.115  21.637   9.484  1.00  0.00     0.259 C 
HETATM   13  O3  UNL     1      31.688  20.617   9.909  1.00  0.00    -0.265 OA
BRANCH  12  14
HETATM   14  O4  UNL     1      31.383  22.122   8.233  1.00  0.00    -0.320 OA
BRANCH  14  15
HETATM   15  C10 UNL     1      32.488  21.685   7.492  1.00  0.00     0.206 C 
BRANCH  15  16
HETATM   16  C11 UNL     1      33.623  22.634   7.653  1.00  0.00     0.262 C 
BRANCH  16  17
HETATM   17  N2  UNL     1      34.837  21.991   8.118  1.00  0.00    -0.077 N 
HETATM   18  C12 UNL     1      35.959  22.671   7.507  1.00  0.00     0.271 C 
HETATM   19  C13 UNL     1      34.994  22.058   9.553  1.00  0.00     0.271 C 
HETATM   20  C14 UNL     1      34.887  20.592   7.742  1.00  0.00     0.271 C 
ENDBRANCH  16  17
ENDBRANCH  15  16
ENDBRANCH  14  15
ENDBRANCH  12  14
ENDBRANCH  11  12
ENDBRANCH   1  11
TORSDOF 11
ENDMDL
