MODEL 10
REMARK VINA RESULT: -6.220659712      3.849      7.345
REMARK  11 active torsions:
REMARK  status: ('A' for Active; 'I' for Inactive)
REMARK    1  A    between atoms: N1_2  and  C4_5 
REMARK    2  A    between atoms: C4_5  and  C5_6 
REMARK    3  A    between atoms: C5_6  and  O1_7 
REMARK    4  A    between atoms: O1_7  and  C6_8 
REMARK    5  A    between atoms: C6_8  and  C7_10 
REMARK    6  A    between atoms: C7_10  and  C8_11 
REMARK    7  A    between atoms: C8_11  and  C9_12 
REMARK    8  A    between atoms: C9_12  and  O4_14 
REMARK    9  A    between atoms: O4_14  and  C10_15 
REMARK   10  A    between atoms: C10_15  and  C11_16 
REMARK   11  A    between atoms: C11_16  and  N2_17 
ROOT
HETATM    1  C7  UNL     1      29.385  21.371  10.740  1.00  0.00     0.121 C 
ENDROOT
BRANCH   1   2
HETATM    2  C6  UNL     1      29.499  21.384  12.241  1.00  0.00     0.259 C 
HETATM    3  O2  UNL     1      30.384  20.703  12.806  1.00  0.00    -0.265 OA
BRANCH   2   4
HETATM    4  O1  UNL     1      28.635  22.140  12.991  1.00  0.00    -0.320 OA
BRANCH   4   5
HETATM    5  C5  UNL     1      28.020  21.627  14.138  1.00  0.00     0.206 C 
BRANCH   5   6
HETATM    6  C4  UNL     1      26.824  20.819  13.765  1.00  0.00     0.262 C 
BRANCH   6   7
HETATM    7  N1  UNL     1      26.909  19.457  14.316  1.00  0.00    -0.077 N 
HETATM    8  C1  UNL     1      27.781  19.535  15.473  1.00  0.00     0.271 C 
HETATM    9  C2  UNL     1      25.600  18.982  14.723  1.00  0.00     0.271 C 
HETATM   10  C3  UNL     1      27.520  18.590  13.351  1.00  0.00     0.271 C 
ENDBRANCH   6   7
ENDBRANCH   5   6
ENDBRANCH   4   5
ENDBRANCH   2   4
ENDBRANCH   1   2
BRANCH   1  11
HETATM   11  C8  UNL     1      30.383  22.365  10.175  1.00  0.00     0.121 C 
BRANCH  11  12
HETATM   12  C9  UNL     1      31.339  21.675   9.268  1.00  0.00     0.259 C 
HETATM   13  O3  UNL     1      31.899  20.646   9.689  1.00  0.00    -0.265 OA
BRANCH  12  14
HETATM   14  O4  UNL     1      31.597  22.149   8.011  1.00  0.00    -0.320 OA
BRANCH  14  15
HETATM   15  C10 UNL     1      32.751  21.784   7.305  1.00  0.00     0.206 C 
BRANCH  15  16
HETATM   16  C11 UNL     1      33.859  22.730   7.607  1.00  0.00     0.262 C 
BRANCH  16  17
HETATM   17  N2  UNL     1      35.036  22.073   8.142  1.00  0.00    -0.077 N 
HETATM   18  C12 UNL     1      34.962  20.672   7.782  1.00  0.00     0.271 C 
HETATM   19  C13 UNL     1      36.269  22.611   7.614  1.00  0.00     0.271 C 
HETATM   20  C14 UNL     1      35.102  22.173   9.586  1.00  0.00     0.271 C 
ENDBRANCH  16  17
ENDBRANCH  15  16
ENDBRANCH  14  15
ENDBRANCH  12  14
ENDBRANCH  11  12
ENDBRANCH   1  11
TORSDOF 11
ENDMDL
