MODEL 7
REMARK VINA RESULT: -3.582230725      2.068      2.937
REMARK  3 active torsions:
REMARK  status: ('A' for Active; 'I' for Inactive)
REMARK    1  A    between atoms: N1_2  and  C4_5 
REMARK    2  A    between atoms: C4_5  and  C5_6 
REMARK    3  A    between atoms: C5_6  and  O1_7 
ROOT
HETATM    1  C1  UNL     1      27.024  18.096  16.880  1.00  0.00     0.271 C 
HETATM    2  N1  UNL     1      26.878  18.804  15.601  1.00  0.00    -0.077 N 
HETATM    3  C2  UNL     1      25.454  19.023  15.414  1.00  0.00     0.271 C 
HETATM    4  C3  UNL     1      27.323  17.907  14.573  1.00  0.00     0.271 C 
ENDROOT
BRANCH   2   5
HETATM    5  C4  UNL     1      27.620  20.014  15.702  1.00  0.00     0.262 C 
BRANCH   5   6
HETATM    6  C5  UNL     1      27.350  21.013  14.620  1.00  0.00     0.192 C 
BRANCH   6   7
HETATM    7  O1  UNL     1      28.304  22.028  14.579  1.00  0.00    -0.399 OA
ATOM      8  H1  UNL     1      28.671  22.219  15.434  1.00  0.00     0.209 HD
ENDBRANCH   6   7
ENDBRANCH   5   6
ENDBRANCH   2   5
TORSDOF 3
ENDMDL
