MODEL 11
REMARK VINA RESULT: -3.555970245      2.515      3.242
REMARK  3 active torsions:
REMARK  status: ('A' for Active; 'I' for Inactive)
REMARK    1  A    between atoms: N1_2  and  C4_5 
REMARK    2  A    between atoms: C4_5  and  C5_6 
REMARK    3  A    between atoms: C5_6  and  O1_7 
ROOT
HETATM    1  C1  UNL     1      27.371  17.972  14.606  1.00  0.00     0.271 C 
HETATM    2  N1  UNL     1      26.970  18.987  15.590  1.00  0.00    -0.077 N 
HETATM    3  C2  UNL     1      28.038  19.971  15.621  1.00  0.00     0.271 C 
HETATM    4  C3  UNL     1      26.934  18.338  16.870  1.00  0.00     0.271 C 
ENDROOT
BRANCH   2   5
HETATM    5  C4  UNL     1      25.726  19.526  15.157  1.00  0.00     0.262 C 
BRANCH   5   6
HETATM    6  C5  UNL     1      25.832  20.621  14.141  1.00  0.00     0.192 C 
BRANCH   6   7
HETATM    7  O1  UNL     1      24.610  21.248  13.902  1.00  0.00    -0.399 OA
ATOM      8  H1  UNL     1      24.318  21.145  13.004  1.00  0.00     0.209 HD
ENDBRANCH   6   7
ENDBRANCH   5   6
ENDBRANCH   2   5
TORSDOF 3
ENDMDL
