MODEL 9
REMARK VINA RESULT: -3.567969712      6.429      7.344
REMARK  3 active torsions:
REMARK  status: ('A' for Active; 'I' for Inactive)
REMARK    1  A    between atoms: N1_2  and  C4_5 
REMARK    2  A    between atoms: C4_5  and  C5_6 
REMARK    3  A    between atoms: C5_6  and  O1_7 
ROOT
HETATM    1  C1  UNL     1      30.558  22.458  15.368  1.00  0.00     0.271 C 
HETATM    2  N1  UNL     1      31.041  23.748  14.858  1.00  0.00    -0.077 N 
HETATM    3  C2  UNL     1      30.262  24.773  15.534  1.00  0.00     0.271 C 
HETATM    4  C3  UNL     1      30.711  23.796  13.462  1.00  0.00     0.271 C 
ENDROOT
BRANCH   2   5
HETATM    5  C4  UNL     1      32.432  23.823  15.147  1.00  0.00     0.262 C 
BRANCH   5   6
HETATM    6  C5  UNL     1      32.776  23.800  16.605  1.00  0.00     0.192 C 
BRANCH   6   7
HETATM    7  O1  UNL     1      33.790  24.700  16.929  1.00  0.00    -0.399 OA
ATOM      8  H1  UNL     1      33.477  25.595  16.991  1.00  0.00     0.209 HD
ENDBRANCH   6   7
ENDBRANCH   5   6
ENDBRANCH   2   5
TORSDOF 3
ENDMDL
