MODEL 8
REMARK VINA RESULT: -3.568024087      2.523      3.168
REMARK  3 active torsions:
REMARK  status: ('A' for Active; 'I' for Inactive)
REMARK    1  A    between atoms: N1_2  and  C4_5 
REMARK    2  A    between atoms: C4_5  and  C5_6 
REMARK    3  A    between atoms: C5_6  and  O1_7 
ROOT
HETATM    1  C1  UNL     1      27.946  20.028  15.593  1.00  0.00     0.271 C 
HETATM    2  N1  UNL     1      26.944  18.956  15.519  1.00  0.00    -0.077 N 
HETATM    3  C2  UNL     1      26.909  18.337  16.834  1.00  0.00     0.271 C 
HETATM    4  C3  UNL     1      27.440  17.982  14.589  1.00  0.00     0.271 C 
ENDROOT
BRANCH   2   5
HETATM    5  C4  UNL     1      25.708  19.558  15.153  1.00  0.00     0.262 C 
BRANCH   5   6
HETATM    6  C5  UNL     1      25.811  20.626  14.108  1.00  0.00     0.192 C 
BRANCH   6   7
HETATM    7  O1  UNL     1      24.596  21.269  13.878  1.00  0.00    -0.399 OA
ATOM      8  H1  UNL     1      24.323  21.218  12.970  1.00  0.00     0.209 HD
ENDBRANCH   6   7
ENDBRANCH   5   6
ENDBRANCH   2   5
TORSDOF 3
ENDMDL
