MODEL 12
REMARK VINA RESULT: -3.553662732      6.427      7.410
REMARK  3 active torsions:
REMARK  status: ('A' for Active; 'I' for Inactive)
REMARK    1  A    between atoms: N1_2  and  C4_5 
REMARK    2  A    between atoms: C4_5  and  C5_6 
REMARK    3  A    between atoms: C5_6  and  O1_7 
ROOT
HETATM    1  C1  UNL     1      30.300  24.778  15.524  1.00  0.00     0.271 C 
HETATM    2  N1  UNL     1      31.034  23.697  14.851  1.00  0.00    -0.077 N 
HETATM    3  C2  UNL     1      30.701  23.793  13.440  1.00  0.00     0.271 C 
HETATM    4  C3  UNL     1      30.501  22.459  15.345  1.00  0.00     0.271 C 
ENDROOT
BRANCH   2   5
HETATM    5  C4  UNL     1      32.418  23.900  15.114  1.00  0.00     0.262 C 
BRANCH   5   6
HETATM    6  C5  UNL     1      32.812  23.777  16.553  1.00  0.00     0.192 C 
BRANCH   6   7
HETATM    7  O1  UNL     1      33.786  24.703  16.922  1.00  0.00    -0.399 OA
ATOM      8  H1  UNL     1      34.304  24.412  17.663  1.00  0.00     0.209 HD
ENDBRANCH   6   7
ENDBRANCH   5   6
ENDBRANCH   2   5
TORSDOF 3
ENDMDL
