MODEL 15
REMARK VINA RESULT: -3.537884206      2.084      2.828
REMARK  3 active torsions:
REMARK  status: ('A' for Active; 'I' for Inactive)
REMARK    1  A    between atoms: N1_2  and  C4_5 
REMARK    2  A    between atoms: C4_5  and  C5_6 
REMARK    3  A    between atoms: C5_6  and  O1_7 
ROOT
HETATM    1  C1  UNL     1      27.491  18.061  14.628  1.00  0.00     0.271 C 
HETATM    2  N1  UNL     1      26.958  18.866  15.736  1.00  0.00    -0.077 N 
HETATM    3  C2  UNL     1      27.122  18.067  16.939  1.00  0.00     0.271 C 
HETATM    4  C3  UNL     1      25.550  19.022  15.501  1.00  0.00     0.271 C 
ENDROOT
BRANCH   2   5
HETATM    5  C4  UNL     1      27.698  20.081  15.768  1.00  0.00     0.262 C 
BRANCH   5   6
HETATM    6  C5  UNL     1      27.426  21.016  14.630  1.00  0.00     0.192 C 
BRANCH   6   7
HETATM    7  O1  UNL     1      28.331  22.074  14.579  1.00  0.00    -0.399 OA
ATOM      8  H1  UNL     1      29.195  21.830  14.889  1.00  0.00     0.209 HD
ENDBRANCH   6   7
ENDBRANCH   5   6
ENDBRANCH   2   5
TORSDOF 3
ENDMDL
