MODEL 13
REMARK VINA RESULT: -3.547004171      6.405      7.294
REMARK  3 active torsions:
REMARK  status: ('A' for Active; 'I' for Inactive)
REMARK    1  A    between atoms: N1_2  and  C4_5 
REMARK    2  A    between atoms: C4_5  and  C5_6 
REMARK    3  A    between atoms: C5_6  and  O1_7 
ROOT
HETATM    1  C1  UNL     1      30.757  23.831  13.399  1.00  0.00     0.271 C 
HETATM    2  N1  UNL     1      30.954  23.771  14.854  1.00  0.00    -0.077 N 
HETATM    3  C2  UNL     1      30.383  22.508  15.293  1.00  0.00     0.271 C 
HETATM    4  C3  UNL     1      30.171  24.828  15.427  1.00  0.00     0.271 C 
ENDROOT
BRANCH   2   5
HETATM    5  C4  UNL     1      32.353  23.864  15.095  1.00  0.00     0.262 C 
BRANCH   5   6
HETATM    6  C5  UNL     1      32.752  23.802  16.536  1.00  0.00     0.192 C 
BRANCH   6   7
HETATM    7  O1  UNL     1      33.776  24.695  16.847  1.00  0.00    -0.399 OA
ATOM      8  H1  UNL     1      33.509  25.602  16.758  1.00  0.00     0.209 HD
ENDBRANCH   6   7
ENDBRANCH   5   6
ENDBRANCH   2   5
TORSDOF 3
ENDMDL
