MODEL 3
REMARK VINA RESULT: -6.238088631      2.955      6.578
REMARK  11 active torsions:
REMARK  status: ('A' for Active; 'I' for Inactive)
REMARK    1  A    between atoms: N1_2  and  C4_5 
REMARK    2  A    between atoms: C4_5  and  C5_6 
REMARK    3  A    between atoms: C5_6  and  O1_7 
REMARK    4  A    between atoms: O1_7  and  C6_8 
REMARK    5  A    between atoms: C6_8  and  C7_10 
REMARK    6  A    between atoms: C7_10  and  C8_11 
REMARK    7  A    between atoms: C8_11  and  C9_12 
REMARK    8  A    between atoms: C9_12  and  O4_14 
REMARK    9  A    between atoms: O4_14  and  C10_15 
REMARK   10  A    between atoms: C10_15  and  C11_16 
REMARK   11  A    between atoms: C11_16  and  N2_17 
ROOT
HETATM    1  C7  UNL     1      28.456  19.158  17.538  1.00  0.00     0.121 C 
ENDROOT
BRANCH   1   2
HETATM    2  C6  UNL     1      29.717  19.949  17.306  1.00  0.00     0.259 C 
HETATM    3  O2  UNL     1      30.532  20.112  18.242  1.00  0.00    -0.265 OA
BRANCH   2   4
HETATM    4  O1  UNL     1      29.973  20.492  16.074  1.00  0.00    -0.320 OA
BRANCH   4   5
HETATM    5  C5  UNL     1      30.285  21.847  15.921  1.00  0.00     0.206 C 
BRANCH   5   6
HETATM    6  C4  UNL     1      30.531  22.163  14.485  1.00  0.00     0.262 C 
BRANCH   6   7
HETATM    7  N1  UNL     1      29.386  22.872  13.893  1.00  0.00    -0.077 N 
HETATM    8  C1  UNL     1      29.210  24.087  14.665  1.00  0.00     0.271 C 
HETATM    9  C2  UNL     1      29.648  23.209  12.506  1.00  0.00     0.271 C 
HETATM   10  C3  UNL     1      28.203  22.073  14.037  1.00  0.00     0.271 C 
ENDBRANCH   6   7
ENDBRANCH   5   6
ENDBRANCH   4   5
ENDBRANCH   2   4
ENDBRANCH   1   2
BRANCH   1  11
HETATM   11  C8  UNL     1      27.758  18.971  16.203  1.00  0.00     0.121 C 
BRANCH  11  12
HETATM   12  C9  UNL     1      27.082  17.646  16.158  1.00  0.00     0.259 C 
HETATM   13  O3  UNL     1      26.465  17.275  17.174  1.00  0.00    -0.265 OA
BRANCH  12  14
HETATM   14  O4  UNL     1      27.133  16.858  15.041  1.00  0.00    -0.320 OA
BRANCH  14  15
HETATM   15  C10 UNL     1      27.108  17.403  13.751  1.00  0.00     0.206 C 
BRANCH  15  16
HETATM   16  C11 UNL     1      28.317  16.984  12.992  1.00  0.00     0.262 C 
BRANCH  16  17
HETATM   17  N2  UNL     1      28.917  18.067  12.238  1.00  0.00    -0.077 N 
HETATM   18  C12 UNL     1      29.716  17.481  11.183  1.00  0.00     0.271 C 
HETATM   19  C13 UNL     1      27.938  18.941  11.633  1.00  0.00     0.271 C 
HETATM   20  C14 UNL     1      29.780  18.888  13.065  1.00  0.00     0.271 C 
ENDBRANCH  16  17
ENDBRANCH  15  16
ENDBRANCH  14  15
ENDBRANCH  12  14
ENDBRANCH  11  12
ENDBRANCH   1  11
TORSDOF 11
ENDMDL
