MODEL 17
REMARK VINA RESULT: -6.055688485      2.984      5.266
REMARK  11 active torsions:
REMARK  status: ('A' for Active; 'I' for Inactive)
REMARK    1  A    between atoms: N1_2  and  C4_5 
REMARK    2  A    between atoms: C4_5  and  C5_6 
REMARK    3  A    between atoms: C5_6  and  O1_7 
REMARK    4  A    between atoms: O1_7  and  C6_8 
REMARK    5  A    between atoms: C6_8  and  C7_10 
REMARK    6  A    between atoms: C7_10  and  C8_11 
REMARK    7  A    between atoms: C8_11  and  C9_12 
REMARK    8  A    between atoms: C9_12  and  O4_14 
REMARK    9  A    between atoms: O4_14  and  C10_15 
REMARK   10  A    between atoms: C10_15  and  C11_16 
REMARK   11  A    between atoms: C11_16  and  N2_17 
ROOT
HETATM    1  C7  UNL     1      29.680  21.724  10.450  1.00  0.00     0.121 C 
ENDROOT
BRANCH   1   2
HETATM    2  C6  UNL     1      30.761  21.161   9.565  1.00  0.00     0.259 C 
HETATM    3  O2  UNL     1      31.433  20.178   9.948  1.00  0.00    -0.265 OA
BRANCH   2   4
HETATM    4  O1  UNL     1      31.012  21.726   8.340  1.00  0.00    -0.320 OA
BRANCH   4   5
HETATM    5  C5  UNL     1      32.101  21.326   7.560  1.00  0.00     0.206 C 
BRANCH   5   6
HETATM    6  C4  UNL     1      33.222  22.300   7.697  1.00  0.00     0.262 C 
BRANCH   6   7
HETATM    7  N1  UNL     1      34.467  21.625   8.101  1.00  0.00    -0.077 N 
HETATM    8  C1  UNL     1      34.296  20.222   7.781  1.00  0.00     0.271 C 
HETATM    9  C2  UNL     1      35.602  22.158   7.371  1.00  0.00     0.271 C 
HETATM   10  C3  UNL     1      34.635  21.745   9.520  1.00  0.00     0.271 C 
ENDBRANCH   6   7
ENDBRANCH   5   6
ENDBRANCH   4   5
ENDBRANCH   2   4
ENDBRANCH   1   2
BRANCH   1  11
HETATM   11  C8  UNL     1      30.245  22.922  11.192  1.00  0.00     0.121 C 
BRANCH  11  12
HETATM   12  C9  UNL     1      29.693  22.979  12.572  1.00  0.00     0.259 C 
HETATM   13  O3  UNL     1      29.068  24.003  12.905  1.00  0.00    -0.265 OA
BRANCH  12  14
HETATM   14  O4  UNL     1      29.861  21.943  13.449  1.00  0.00    -0.320 OA
BRANCH  14  15
HETATM   15  C10 UNL     1      28.940  21.685  14.474  1.00  0.00     0.206 C 
BRANCH  15  16
HETATM   16  C11 UNL     1      27.748  20.984  13.928  1.00  0.00     0.262 C 
BRANCH  16  17
HETATM   17  N2  UNL     1      27.505  19.701  14.559  1.00  0.00    -0.077 N 
HETATM   18  C12 UNL     1      28.136  18.682  13.747  1.00  0.00     0.271 C 
HETATM   19  C13 UNL     1      28.052  19.619  15.894  1.00  0.00     0.271 C 
HETATM   20  C14 UNL     1      26.090  19.402  14.652  1.00  0.00     0.271 C 
ENDBRANCH  16  17
ENDBRANCH  15  16
ENDBRANCH  14  15
ENDBRANCH  12  14
ENDBRANCH  11  12
ENDBRANCH   1  11
TORSDOF 11
ENDMDL
