MODEL 16
REMARK VINA RESULT: -6.057962393      3.145      5.742
REMARK  11 active torsions:
REMARK  status: ('A' for Active; 'I' for Inactive)
REMARK    1  A    between atoms: N1_2  and  C4_5 
REMARK    2  A    between atoms: C4_5  and  C5_6 
REMARK    3  A    between atoms: C5_6  and  O1_7 
REMARK    4  A    between atoms: O1_7  and  C6_8 
REMARK    5  A    between atoms: C6_8  and  C7_10 
REMARK    6  A    between atoms: C7_10  and  C8_11 
REMARK    7  A    between atoms: C8_11  and  C9_12 
REMARK    8  A    between atoms: C9_12  and  O4_14 
REMARK    9  A    between atoms: O4_14  and  C10_15 
REMARK   10  A    between atoms: C10_15  and  C11_16 
REMARK   11  A    between atoms: C11_16  and  N2_17 
ROOT
HETATM    1  C7  UNL     1      29.278  21.722  10.315  1.00  0.00     0.121 C 
ENDROOT
BRANCH   1   2
HETATM    2  C6  UNL     1      30.586  21.309   9.695  1.00  0.00     0.259 C 
HETATM    3  O2  UNL     1      31.160  20.267  10.083  1.00  0.00    -0.265 OA
BRANCH   2   4
HETATM    4  O1  UNL     1      31.152  22.073   8.706  1.00  0.00    -0.320 OA
BRANCH   4   5
HETATM    5  C5  UNL     1      32.489  22.478   8.769  1.00  0.00     0.206 C 
BRANCH   5   6
HETATM    6  C4  UNL     1      33.173  22.207   7.471  1.00  0.00     0.262 C 
BRANCH   6   7
HETATM    7  N1  UNL     1      34.117  21.084   7.592  1.00  0.00    -0.077 N 
HETATM    8  C1  UNL     1      33.457  19.928   7.016  1.00  0.00     0.271 C 
HETATM    9  C2  UNL     1      35.341  21.360   6.864  1.00  0.00     0.271 C 
HETATM   10  C3  UNL     1      34.365  20.816   8.978  1.00  0.00     0.271 C 
ENDBRANCH   6   7
ENDBRANCH   5   6
ENDBRANCH   4   5
ENDBRANCH   2   4
ENDBRANCH   1   2
BRANCH   1  11
HETATM   11  C8  UNL     1      28.845  20.638  11.285  1.00  0.00     0.121 C 
BRANCH  11  12
HETATM   12  C9  UNL     1      28.930  21.136  12.684  1.00  0.00     0.259 C 
HETATM   13  O3  UNL     1      30.048  21.136  13.234  1.00  0.00    -0.265 OA
BRANCH  12  14
HETATM   14  O4  UNL     1      27.822  21.582  13.350  1.00  0.00    -0.320 OA
BRANCH  14  15
HETATM   15  C10 UNL     1      26.772  20.722  13.699  1.00  0.00     0.206 C 
BRANCH  15  16
HETATM   16  C11 UNL     1      27.143  19.917  14.893  1.00  0.00     0.262 C 
BRANCH  16  17
HETATM   17  N2  UNL     1      26.619  18.565  14.851  1.00  0.00    -0.077 N 
HETATM   18  C12 UNL     1      27.009  17.901  16.077  1.00  0.00     0.271 C 
HETATM   19  C13 UNL     1      25.178  18.523  14.751  1.00  0.00     0.271 C 
HETATM   20  C14 UNL     1      27.154  17.813  13.732  1.00  0.00     0.271 C 
ENDBRANCH  16  17
ENDBRANCH  15  16
ENDBRANCH  14  15
ENDBRANCH  12  14
ENDBRANCH  11  12
ENDBRANCH   1  11
TORSDOF 11
ENDMDL
