MODEL 18
REMARK VINA RESULT: -6.051945047      3.124      5.595
REMARK  11 active torsions:
REMARK  status: ('A' for Active; 'I' for Inactive)
REMARK    1  A    between atoms: N1_2  and  C4_5 
REMARK    2  A    between atoms: C4_5  and  C5_6 
REMARK    3  A    between atoms: C5_6  and  O1_7 
REMARK    4  A    between atoms: O1_7  and  C6_8 
REMARK    5  A    between atoms: C6_8  and  C7_10 
REMARK    6  A    between atoms: C7_10  and  C8_11 
REMARK    7  A    between atoms: C8_11  and  C9_12 
REMARK    8  A    between atoms: C9_12  and  O4_14 
REMARK    9  A    between atoms: O4_14  and  C10_15 
REMARK   10  A    between atoms: C10_15  and  C11_16 
REMARK   11  A    between atoms: C11_16  and  N2_17 
ROOT
HETATM    1  C7  UNL     1      28.973  21.029  11.397  1.00  0.00     0.121 C 
ENDROOT
BRANCH   1   2
HETATM    2  C6  UNL     1      29.058  21.471  12.834  1.00  0.00     0.259 C 
HETATM    3  O2  UNL     1      30.171  21.532  13.404  1.00  0.00    -0.265 OA
BRANCH   2   4
HETATM    4  O1  UNL     1      27.919  21.806  13.521  1.00  0.00    -0.320 OA
BRANCH   4   5
HETATM    5  C5  UNL     1      26.948  20.851  13.837  1.00  0.00     0.206 C 
BRANCH   5   6
HETATM    6  C4  UNL     1      27.424  19.978  14.949  1.00  0.00     0.262 C 
BRANCH   6   7
HETATM    7  N1  UNL     1      26.759  18.665  14.917  1.00  0.00    -0.077 N 
HETATM    8  C1  UNL     1      27.321  17.948  13.789  1.00  0.00     0.271 C 
HETATM    9  C2  UNL     1      27.014  17.928  16.140  1.00  0.00     0.271 C 
HETATM   10  C3  UNL     1      25.357  18.846  14.680  1.00  0.00     0.271 C 
ENDBRANCH   6   7
ENDBRANCH   5   6
ENDBRANCH   4   5
ENDBRANCH   2   4
ENDBRANCH   1   2
BRANCH   1  11
HETATM   11  C8  UNL     1      29.726  22.033  10.543  1.00  0.00     0.121 C 
BRANCH  11  12
HETATM   12  C9  UNL     1      30.683  21.329   9.647  1.00  0.00     0.259 C 
HETATM   13  O3  UNL     1      31.278  20.335  10.101  1.00  0.00    -0.265 OA
BRANCH  12  14
HETATM   14  O4  UNL     1      30.903  21.755   8.366  1.00  0.00    -0.320 OA
BRANCH  14  15
HETATM   15  C10 UNL     1      32.014  21.329   7.626  1.00  0.00     0.206 C 
BRANCH  15  16
HETATM   16  C11 UNL     1      33.135  22.295   7.779  1.00  0.00     0.262 C 
BRANCH  16  17
HETATM   17  N2  UNL     1      34.375  21.665   8.190  1.00  0.00    -0.077 N 
HETATM   18  C12 UNL     1      34.238  20.240   7.978  1.00  0.00     0.271 C 
HETATM   19  C13 UNL     1      35.518  22.128   7.436  1.00  0.00     0.271 C 
HETATM   20  C14 UNL     1      34.659  21.895   9.593  1.00  0.00     0.271 C 
ENDBRANCH  16  17
ENDBRANCH  15  16
ENDBRANCH  14  15
ENDBRANCH  12  14
ENDBRANCH  11  12
ENDBRANCH   1  11
TORSDOF 11
ENDMDL
