MODEL 2
REMARK VINA RESULT: -6.289445178      1.353      5.377
REMARK  11 active torsions:
REMARK  status: ('A' for Active; 'I' for Inactive)
REMARK    1  A    between atoms: N1_2  and  C4_5 
REMARK    2  A    between atoms: C4_5  and  C5_6 
REMARK    3  A    between atoms: C5_6  and  O1_7 
REMARK    4  A    between atoms: O1_7  and  C6_8 
REMARK    5  A    between atoms: C6_8  and  C7_10 
REMARK    6  A    between atoms: C7_10  and  C8_11 
REMARK    7  A    between atoms: C8_11  and  C9_12 
REMARK    8  A    between atoms: C9_12  and  O4_14 
REMARK    9  A    between atoms: O4_14  and  C10_15 
REMARK   10  A    between atoms: C10_15  and  C11_16 
REMARK   11  A    between atoms: C11_16  and  N2_17 
ROOT
HETATM    1  C7  UNL     1      30.081  22.540  10.910  1.00  0.00     0.121 C 
ENDROOT
BRANCH   1   2
HETATM    2  C6  UNL     1      29.707  22.778  12.350  1.00  0.00     0.259 C 
HETATM    3  O2  UNL     1      29.079  23.813  12.668  1.00  0.00    -0.265 OA
BRANCH   2   4
HETATM    4  O1  UNL     1      30.054  21.865  13.312  1.00  0.00    -0.320 OA
BRANCH   4   5
HETATM    5  C5  UNL     1      29.658  22.019  14.644  1.00  0.00     0.206 C 
BRANCH   5   6
HETATM    6  C4  UNL     1      30.817  21.802  15.556  1.00  0.00     0.262 C 
BRANCH   6   7
HETATM    7  N1  UNL     1      31.408  23.083  15.979  1.00  0.00    -0.077 N 
HETATM    8  C1  UNL     1      31.884  22.888  17.335  1.00  0.00     0.271 C 
HETATM    9  C2  UNL     1      32.520  23.446  15.120  1.00  0.00     0.271 C 
HETATM   10  C3  UNL     1      30.392  24.094  16.000  1.00  0.00     0.271 C 
ENDBRANCH   6   7
ENDBRANCH   5   6
ENDBRANCH   4   5
ENDBRANCH   2   4
ENDBRANCH   1   2
BRANCH   1  11
HETATM   11  C8  UNL     1      29.215  21.416  10.371  1.00  0.00     0.121 C 
BRANCH  11  12
HETATM   12  C9  UNL     1      29.751  20.100  10.807  1.00  0.00     0.259 C 
HETATM   13  O3  UNL     1      30.940  19.840  10.542  1.00  0.00    -0.265 OA
BRANCH  12  14
HETATM   14  O4  UNL     1      28.971  19.200  11.481  1.00  0.00    -0.320 OA
BRANCH  14  15
HETATM   15  C10 UNL     1      27.689  19.532  11.940  1.00  0.00     0.206 C 
BRANCH  15  16
HETATM   16  C11 UNL     1      27.303  18.647  13.071  1.00  0.00     0.262 C 
BRANCH  16  17
HETATM   17  N2  UNL     1      26.525  19.330  14.087  1.00  0.00    -0.077 N 
HETATM   18  C12 UNL     1      27.237  19.216  15.341  1.00  0.00     0.271 C 
HETATM   19  C13 UNL     1      26.335  20.734  13.799  1.00  0.00     0.271 C 
HETATM   20  C14 UNL     1      25.211  18.739  14.249  1.00  0.00     0.271 C 
ENDBRANCH  16  17
ENDBRANCH  15  16
ENDBRANCH  14  15
ENDBRANCH  12  14
ENDBRANCH  11  12
ENDBRANCH   1  11
TORSDOF 11
ENDMDL
