MODEL 4
REMARK VINA RESULT: -5.542033397      2.487      3.400
REMARK  2 active torsions:
REMARK  status: ('A' for Active; 'I' for Inactive)
REMARK    1  A    between atoms: P1_2  and  N1_5 
REMARK    2  A    between atoms: N1_5  and  P2_7 
ROOT
HETATM    1  N1  UNL     1     -13.598  -3.509 127.786  1.00  0.00    -0.210 N 
ATOM      2  H1  UNL     1     -14.482  -3.072 128.046  1.00  0.00     0.180 HD
ENDROOT
BRANCH   1   3
HETATM    3  P1  UNL     1     -13.462  -5.210 127.647  1.00  0.00     0.382 P 
HETATM    4  O1  UNL     1     -13.815  -5.168 126.171  1.00  0.00    -0.622 OA
HETATM    5  O2  UNL     1     -11.927  -5.859 127.231  1.00  0.00    -0.622 OA
HETATM    6  O3  UNL     1     -14.590  -6.213 128.141  1.00  0.00    -0.622 OA
ENDBRANCH   1   3
BRANCH   1   7
HETATM    7  P2  UNL     1     -12.225  -2.577 127.481  1.00  0.00     0.382 P 
HETATM    8  O4  UNL     1     -11.160  -2.168 128.716  1.00  0.00    -0.622 OA
HETATM    9  O5  UNL     1     -12.962  -1.252 127.683  1.00  0.00    -0.622 OA
HETATM   10  O6  UNL     1     -11.791  -2.175 125.951  1.00  0.00    -0.622 OA
ENDBRANCH   1   7
TORSDOF 2
ENDMDL
