MODEL 3
REMARK VINA RESULT: -5.585986112      2.429      4.521
REMARK  2 active torsions:
REMARK  status: ('A' for Active; 'I' for Inactive)
REMARK    1  A    between atoms: P1_2  and  N1_5 
REMARK    2  A    between atoms: N1_5  and  P2_7 
ROOT
HETATM    1  N1  UNL     1     -13.785  -3.507 127.644  1.00  0.00    -0.210 N 
ATOM      2  H1  UNL     1     -14.743  -3.171 127.541  1.00  0.00     0.180 HD
ENDROOT
BRANCH   1   3
HETATM    3  P1  UNL     1     -12.479  -2.413 127.815  1.00  0.00     0.382 P 
HETATM    4  O1  UNL     1     -12.137  -2.513 126.339  1.00  0.00    -0.622 OA
HETATM    5  O2  UNL     1     -12.802  -0.740 127.597  1.00  0.00    -0.622 OA
HETATM    6  O3  UNL     1     -11.072  -2.831 128.423  1.00  0.00    -0.622 OA
ENDBRANCH   1   3
BRANCH   1   7
HETATM    7  P2  UNL     1     -13.440  -5.159 127.649  1.00  0.00     0.382 P 
HETATM    8  O4  UNL     1     -11.898  -5.727 127.293  1.00  0.00    -0.622 OA
HETATM    9  O5  UNL     1     -13.842  -5.346 126.185  1.00  0.00    -0.622 OA
HETATM   10  O6  UNL     1     -14.546  -6.259 128.158  1.00  0.00    -0.622 OA
ENDBRANCH   1   7
TORSDOF 2
ENDMDL
