MODEL 5
REMARK VINA RESULT: -5.539955059      2.445      3.434
REMARK  2 active torsions:
REMARK  status: ('A' for Active; 'I' for Inactive)
REMARK    1  A    between atoms: P1_2  and  N1_5 
REMARK    2  A    between atoms: N1_5  and  P2_7 
ROOT
HETATM    1  N1  UNL     1     -13.757  -3.467 127.746  1.00  0.00    -0.210 N 
ATOM      2  H1  UNL     1     -14.518  -3.052 128.285  1.00  0.00     0.180 HD
ENDROOT
BRANCH   1   3
HETATM    3  P1  UNL     1     -13.912  -5.028 127.060  1.00  0.00     0.382 P 
HETATM    4  O1  UNL     1     -12.448  -5.339 127.314  1.00  0.00    -0.622 OA
HETATM    5  O2  UNL     1     -14.338  -6.323 128.104  1.00  0.00    -0.622 OA
HETATM    6  O3  UNL     1     -13.949  -5.286 125.492  1.00  0.00    -0.622 OA
ENDBRANCH   1   3
BRANCH   1   7
HETATM    7  P2  UNL     1     -12.309  -2.635 127.505  1.00  0.00     0.382 P 
HETATM    8  O4  UNL     1     -11.277  -2.295 128.788  1.00  0.00    -0.622 OA
HETATM    9  O5  UNL     1     -12.960  -1.260 127.668  1.00  0.00    -0.622 OA
HETATM   10  O6  UNL     1     -11.776  -2.273 125.996  1.00  0.00    -0.622 OA
ENDBRANCH   1   7
TORSDOF 2
ENDMDL
