MODEL 5
REMARK VINA RESULT: -6.028464872      2.110      4.218
REMARK  4 active torsions:
REMARK  status: ('A' for Active; 'I' for Inactive)
REMARK    1  A    between atoms: C1_2  and  C2_4 
REMARK    2  A    between atoms: C2_4  and  O3_5 
REMARK    3  A    between atoms: O3_5  and  C3_6 
REMARK    4  A    between atoms: C6_11  and  C7_12 
ROOT
HETATM    1  C3  UNL     1      45.467  14.826   2.251  1.00  0.00     0.111 A 
HETATM    2  C4  UNL     1      45.631  13.493   2.005  1.00  0.00     0.052 A 
HETATM    3 BR1  UNL     1      46.597  12.304   3.218  1.00  0.00    -0.048 Br
HETATM    4  C5  UNL     1      45.087  12.999   0.860  1.00  0.00     0.072 A 
HETATM    5  S1  UNL     1      44.366  14.356   0.140  1.00  0.00    -0.091 SA
HETATM    6  C6  UNL     1      44.772  15.535   1.315  1.00  0.00     0.116 A 
ENDROOT
BRANCH   1   7
HETATM    7  O3  UNL     1      45.985  15.464   3.401  1.00  0.00    -0.338 OA
BRANCH   7   8
HETATM    8  C2  UNL     1      47.188  15.994   3.672  1.00  0.00     0.288 C 
BRANCH   8   9
HETATM    9  C1  UNL     1      47.283  16.981   4.742  1.00  0.00     0.198 C 
HETATM   10  O1  UNL     1      46.211  17.443   5.301  1.00  0.00    -0.646 OA
HETATM   11  O2  UNL     1      48.497  17.452   5.188  1.00  0.00    -0.646 OA
ENDBRANCH   8   9
ENDBRANCH   7   8
ENDBRANCH   1   7
BRANCH   6  12
HETATM   12  C7  UNL     1      44.491  16.995   1.232  1.00  0.00     0.219 C 
HETATM   13  O4  UNL     1      44.723  17.576   0.145  1.00  0.00    -0.643 OA
HETATM   14  O5  UNL     1      43.995  17.731   2.284  1.00  0.00    -0.643 OA
ENDBRANCH   6  12
TORSDOF 4
ENDMDL
