MODEL 2
REMARK VINA RESULT: -6.168218716      1.956      4.062
REMARK  4 active torsions:
REMARK  status: ('A' for Active; 'I' for Inactive)
REMARK    1  A    between atoms: C1_2  and  C2_4 
REMARK    2  A    between atoms: C2_4  and  O3_5 
REMARK    3  A    between atoms: O3_5  and  C3_6 
REMARK    4  A    between atoms: C6_11  and  C7_12 
ROOT
HETATM    1  C3  UNL     1      45.085  14.390   1.828  1.00  0.00     0.111 A 
HETATM    2  C4  UNL     1      45.482  13.115   1.544  1.00  0.00     0.052 A 
HETATM    3 BR1  UNL     1      46.294  11.938   2.876  1.00  0.00    -0.048 Br
HETATM    4  C5  UNL     1      45.293  12.672   0.272  1.00  0.00     0.072 A 
HETATM    5  S1  UNL     1      44.580  13.997  -0.513  1.00  0.00    -0.091 SA
HETATM    6  C6  UNL     1      44.536  15.099   0.799  1.00  0.00     0.116 A 
ENDROOT
BRANCH   1   7
HETATM    7  O3  UNL     1      45.229  14.973   3.108  1.00  0.00    -0.338 OA
BRANCH   7   8
HETATM    8  C2  UNL     1      46.194  15.734   3.647  1.00  0.00     0.288 C 
BRANCH   8   9
HETATM    9  C1  UNL     1      45.831  16.648   4.725  1.00  0.00     0.198 C 
HETATM   10  O1  UNL     1      44.596  16.998   4.896  1.00  0.00    -0.646 OA
HETATM   11  O2  UNL     1      46.773  17.166   5.584  1.00  0.00    -0.646 OA
ENDBRANCH   8   9
ENDBRANCH   7   8
ENDBRANCH   1   7
BRANCH   6  12
HETATM   12  C7  UNL     1      44.085  16.516   0.743  1.00  0.00     0.219 C 
HETATM   13  O4  UNL     1      43.062  16.832   1.395  1.00  0.00    -0.643 OA
HETATM   14  O5  UNL     1      44.732  17.487   0.013  1.00  0.00    -0.643 OA
ENDBRANCH   6  12
TORSDOF 4
ENDMDL
