MODEL 3
REMARK VINA RESULT: -9.559021804      2.497      8.938
REMARK  15 active torsions:
REMARK  status: ('A' for Active; 'I' for Inactive)
REMARK    1  A    between atoms: C2_2  and  C4_4 
REMARK    2  A    between atoms: C4_4  and  N1_5 
REMARK    3  A    between atoms: N1_5  and  C5_6 
REMARK    4  A    between atoms: N1_5  and  S1_31 
REMARK    5  A    between atoms: C5_6  and  C6_7 
REMARK    6  A    between atoms: C6_7  and  O1_8 
REMARK    7  A    between atoms: C6_7  and  C7_10 
REMARK    8  A    between atoms: C7_10  and  C8_11 
REMARK    9  A    between atoms: C7_10  and  N2_18 
REMARK   10  A    between atoms: C8_11  and  C9_12 
REMARK       I    between atoms: N2_18  and  C15_20 
REMARK   11  A    between atoms: C15_20  and  O3_22 
REMARK   12  A    between atoms: O3_22  and  C16_23 
REMARK   13  A    between atoms: S1_31  and  C23_34 
REMARK   14  A    between atoms: C26_37  and  C27_38 
REMARK   15  A    between atoms: C27_38  and  O7_39 
ROOT
HETATM    1  C6  UNL     1      10.263  18.582  17.341  1.00  0.00     0.180 C 
ENDROOT
BRANCH   1   2
HETATM    2  C5  UNL     1      11.112  18.723  18.569  1.00  0.00     0.115 C 
BRANCH   2   3
HETATM    3  N1  UNL     1      10.519  19.311  19.682  1.00  0.00    -0.263 N 
BRANCH   3   4
HETATM    4  C4  UNL     1       9.915  18.558  20.693  1.00  0.00     0.085 C 
BRANCH   4   5
HETATM    5  C2  UNL     1       8.691  17.762  20.304  1.00  0.00     0.017 C 
HETATM    6  C1  UNL     1       7.540  18.581  19.833  1.00  0.00     0.015 C 
HETATM    7  C3  UNL     1       8.220  17.011  21.556  1.00  0.00     0.015 C 
ENDBRANCH   4   5
ENDBRANCH   3   4
BRANCH   3   8
HETATM    8  S1  UNL     1      10.669  20.978  19.907  1.00  0.00     0.267 S 
HETATM    9  O5  UNL     1       9.440  21.662  19.326  1.00  0.00    -0.200 OA
HETATM   10  O6  UNL     1      10.682  21.298  21.377  1.00  0.00    -0.200 OA
BRANCH   8  11
HETATM   11  C23 UNL     1      12.053  21.645  19.091  1.00  0.00     0.080 A 
HETATM   12  C24 UNL     1      11.934  22.506  18.007  1.00  0.00     0.026 A 
HETATM   13  C25 UNL     1      13.058  23.019  17.384  1.00  0.00     0.011 A 
HETATM   14  C26 UNL     1      14.326  22.699  17.810  1.00  0.00    -0.035 A 
HETATM   15  C28 UNL     1      14.459  21.845  18.886  1.00  0.00     0.011 A 
HETATM   16  C29 UNL     1      13.345  21.353  19.484  1.00  0.00     0.026 A 
BRANCH  14  17
HETATM   17  C27 UNL     1      15.556  23.220  17.182  1.00  0.00     0.202 C 
BRANCH  17  18
HETATM   18  O7  UNL     1      16.630  22.439  17.648  1.00  0.00    -0.396 OA
ATOM     19  H7  UNL     1      17.244  23.026  18.073  1.00  0.00     0.209 HD
ENDBRANCH  17  18
ENDBRANCH  14  17
ENDBRANCH   8  11
ENDBRANCH   3   8
ENDBRANCH   2   3
ENDBRANCH   1   2
BRANCH   1  20
HETATM   20  O1  UNL     1       9.527  19.756  17.160  1.00  0.00    -0.388 OA
ATOM     21  H1  UNL     1       8.731  19.552  16.683  1.00  0.00     0.210 HD
ENDBRANCH   1  20
BRANCH   1  22
HETATM   22  C7  UNL     1      11.118  18.451  16.094  1.00  0.00     0.124 C 
BRANCH  22  23
HETATM   23  C8  UNL     1      11.386  19.750  15.434  1.00  0.00     0.066 C 
BRANCH  23  24
HETATM   24  C9  UNL     1      12.820  20.011  15.260  1.00  0.00    -0.056 A 
HETATM   25  C10 UNL     1      13.204  20.917  14.286  1.00  0.00     0.007 A 
HETATM   26  C11 UNL     1      14.527  21.228  14.052  1.00  0.00     0.001 A 
HETATM   27  C12 UNL     1      15.513  20.634  14.794  1.00  0.00     0.000 A 
HETATM   28  C13 UNL     1      15.151  19.720  15.779  1.00  0.00     0.001 A 
HETATM   29  C14 UNL     1      13.826  19.424  15.996  1.00  0.00     0.007 A 
ENDBRANCH  23  24
ENDBRANCH  22  23
BRANCH  22  30
HETATM   30  N2  UNL     1      10.673  17.376  15.273  1.00  0.00    -0.329 N 
HETATM   31  C15 UNL     1       9.357  17.206  14.783  1.00  0.00     0.361 C 
HETATM   32  O2  UNL     1       8.501  18.066  15.092  1.00  0.00    -0.238 OA
ATOM     33  H2  UNL     1      11.361  16.668  15.016  1.00  0.00     0.165 HD
BRANCH  31  34
HETATM   34  O3  UNL     1       8.942  16.156  13.985  1.00  0.00    -0.299 OA
BRANCH  34  35
HETATM   35  C16 UNL     1       8.561  14.897  14.513  1.00  0.00     0.136 C 
HETATM   36  C17 UNL     1       7.190  14.575  13.917  1.00  0.00     0.040 C 
HETATM   37  C18 UNL     1       6.543  13.758  15.015  1.00  0.00     0.019 C 
HETATM   38  C19 UNL     1       5.031  13.907  15.025  1.00  0.00     0.033 C 
HETATM   39  C21 UNL     1       6.900  14.605  16.235  1.00  0.00     0.128 C 
HETATM   40  C20 UNL     1       4.893  15.330  15.522  1.00  0.00     0.168 C 
HETATM   41  O4  UNL     1       6.126  15.725  16.018  1.00  0.00    -0.385 OA
HETATM   42  C22 UNL     1       8.362  14.935  15.998  1.00  0.00     0.065 C 
ENDBRANCH  34  35
ENDBRANCH  31  34
ENDBRANCH  22  30
ENDBRANCH   1  22
TORSDOF 15
ENDMDL
