MODEL 5
REMARK VINA RESULT: -9.382004773      1.440      1.783
REMARK  15 active torsions:
REMARK  status: ('A' for Active; 'I' for Inactive)
REMARK    1  A    between atoms: C2_2  and  C4_4 
REMARK    2  A    between atoms: C4_4  and  N1_5 
REMARK    3  A    between atoms: N1_5  and  C5_6 
REMARK    4  A    between atoms: N1_5  and  S1_31 
REMARK    5  A    between atoms: C5_6  and  C6_7 
REMARK    6  A    between atoms: C6_7  and  O1_8 
REMARK    7  A    between atoms: C6_7  and  C7_10 
REMARK    8  A    between atoms: C7_10  and  C8_11 
REMARK    9  A    between atoms: C7_10  and  N2_18 
REMARK   10  A    between atoms: C8_11  and  C9_12 
REMARK       I    between atoms: N2_18  and  C15_20 
REMARK   11  A    between atoms: C15_20  and  O3_22 
REMARK   12  A    between atoms: O3_22  and  C16_23 
REMARK   13  A    between atoms: S1_31  and  C23_34 
REMARK   14  A    between atoms: C26_37  and  C27_38 
REMARK   15  A    between atoms: C27_38  and  O7_39 
ROOT
HETATM    1  C6  UNL     1      12.733  18.793  18.245  1.00  0.00     0.180 C 
ENDROOT
BRANCH   1   2
HETATM    2  C5  UNL     1      11.726  17.825  17.700  1.00  0.00     0.115 C 
BRANCH   2   3
HETATM    3  N1  UNL     1      10.439  18.309  17.485  1.00  0.00    -0.263 N 
BRANCH   3   4
HETATM    4  C4  UNL     1       9.737  19.024  18.461  1.00  0.00     0.085 C 
BRANCH   4   5
HETATM    5  C2  UNL     1       9.281  18.245  19.672  1.00  0.00     0.017 C 
HETATM    6  C1  UNL     1       7.813  18.282  19.919  1.00  0.00     0.015 C 
HETATM    7  C3  UNL     1       9.955  18.876  20.899  1.00  0.00     0.015 C 
ENDBRANCH   4   5
ENDBRANCH   3   4
BRANCH   3   8
HETATM    8  S1  UNL     1       9.756  18.173  15.947  1.00  0.00     0.267 S 
HETATM    9  O5  UNL     1       8.925  19.417  15.670  1.00  0.00    -0.200 OA
HETATM   10  O6  UNL     1      10.842  18.142  14.906  1.00  0.00    -0.200 OA
BRANCH   8  11
HETATM   11  C23 UNL     1       8.688  16.808  15.803  1.00  0.00     0.080 A 
HETATM   12  C24 UNL     1       8.331  16.025  16.893  1.00  0.00     0.026 A 
HETATM   13  C25 UNL     1       7.476  14.947  16.741  1.00  0.00     0.011 A 
HETATM   14  C26 UNL     1       6.950  14.613  15.514  1.00  0.00    -0.035 A 
HETATM   15  C28 UNL     1       7.297  15.383  14.422  1.00  0.00     0.011 A 
HETATM   16  C29 UNL     1       8.136  16.435  14.592  1.00  0.00     0.026 A 
BRANCH  14  17
HETATM   17  C27 UNL     1       6.034  13.476  15.299  1.00  0.00     0.202 C 
BRANCH  17  18
HETATM   18  O7  UNL     1       5.073  13.511  16.326  1.00  0.00    -0.396 OA
ATOM     19  H7  UNL     1       5.230  12.760  16.887  1.00  0.00     0.209 HD
ENDBRANCH  17  18
ENDBRANCH  14  17
ENDBRANCH   8  11
ENDBRANCH   3   8
ENDBRANCH   2   3
ENDBRANCH   1   2
BRANCH   1  20
HETATM   20  O1  UNL     1      13.932  18.115  18.483  1.00  0.00    -0.388 OA
ATOM     21  H1  UNL     1      14.612  18.485  17.931  1.00  0.00     0.210 HD
ENDBRANCH   1  20
BRANCH   1  22
HETATM   22  C7  UNL     1      13.076  19.863  17.225  1.00  0.00     0.124 C 
BRANCH  22  23
HETATM   23  C8  UNL     1      13.878  19.349  16.090  1.00  0.00     0.066 C 
BRANCH  23  24
HETATM   24  C9  UNL     1      14.316  20.414  15.180  1.00  0.00    -0.056 A 
HETATM   25  C10 UNL     1      15.600  20.912  15.330  1.00  0.00     0.007 A 
HETATM   26  C11 UNL     1      16.100  21.910  14.522  1.00  0.00     0.001 A 
HETATM   27  C12 UNL     1      15.322  22.444  13.528  1.00  0.00     0.000 A 
HETATM   28  C13 UNL     1      14.029  21.959  13.358  1.00  0.00     0.001 A 
HETATM   29  C14 UNL     1      13.549  20.963  14.177  1.00  0.00     0.007 A 
ENDBRANCH  23  24
ENDBRANCH  22  23
BRANCH  22  30
HETATM   30  N2  UNL     1      13.524  21.057  17.860  1.00  0.00    -0.329 N 
HETATM   31  C15 UNL     1      12.946  22.338  17.704  1.00  0.00     0.361 C 
HETATM   32  O2  UNL     1      11.957  22.446  16.944  1.00  0.00    -0.238 OA
ATOM     33  H2  UNL     1      14.330  20.981  18.480  1.00  0.00     0.165 HD
BRANCH  31  34
HETATM   34  O3  UNL     1      13.394  23.487  18.331  1.00  0.00    -0.299 OA
BRANCH  34  35
HETATM   35  C16 UNL     1      14.440  24.286  17.806  1.00  0.00     0.136 C 
HETATM   36  C17 UNL     1      15.748  23.658  18.292  1.00  0.00     0.040 C 
HETATM   37  C18 UNL     1      16.661  24.861  18.408  1.00  0.00     0.019 C 
HETATM   38  C19 UNL     1      17.716  24.677  19.485  1.00  0.00     0.033 C 
HETATM   39  C21 UNL     1      15.731  25.845  19.115  1.00  0.00     0.128 C 
HETATM   40  C20 UNL     1      16.863  24.765  20.733  1.00  0.00     0.168 C 
HETATM   41  O4  UNL     1      15.624  25.263  20.361  1.00  0.00    -0.385 OA
HETATM   42  C22 UNL     1      14.428  25.680  18.356  1.00  0.00     0.065 C 
ENDBRANCH  34  35
ENDBRANCH  31  34
ENDBRANCH  22  30
ENDBRANCH   1  22
TORSDOF 15
ENDMDL
