MODEL 1
REMARK VINA RESULT: -9.674745438      0.000      0.000
REMARK  15 active torsions:
REMARK  status: ('A' for Active; 'I' for Inactive)
REMARK    1  A    between atoms: C2_2  and  C4_4 
REMARK    2  A    between atoms: C4_4  and  N1_5 
REMARK    3  A    between atoms: N1_5  and  C5_6 
REMARK    4  A    between atoms: N1_5  and  S1_31 
REMARK    5  A    between atoms: C5_6  and  C6_7 
REMARK    6  A    between atoms: C6_7  and  O1_8 
REMARK    7  A    between atoms: C6_7  and  C7_10 
REMARK    8  A    between atoms: C7_10  and  C8_11 
REMARK    9  A    between atoms: C7_10  and  N2_18 
REMARK   10  A    between atoms: C8_11  and  C9_12 
REMARK       I    between atoms: N2_18  and  C15_20 
REMARK   11  A    between atoms: C15_20  and  O3_22 
REMARK   12  A    between atoms: O3_22  and  C16_23 
REMARK   13  A    between atoms: S1_31  and  C23_34 
REMARK   14  A    between atoms: C26_37  and  C27_38 
REMARK   15  A    between atoms: C27_38  and  O7_39 
ROOT
HETATM    1  C6  UNL     1      13.655  19.213  18.166  1.00  0.00     0.180 C 
ENDROOT
BRANCH   1   2
HETATM    2  C5  UNL     1      12.600  18.447  17.424  1.00  0.00     0.115 C 
BRANCH   2   3
HETATM    3  N1  UNL     1      11.311  18.970  17.444  1.00  0.00    -0.263 N 
BRANCH   3   4
HETATM    4  C4  UNL     1      10.681  19.361  18.630  1.00  0.00     0.085 C 
BRANCH   4   5
HETATM    5  C2  UNL     1       9.707  18.375  19.233  1.00  0.00     0.017 C 
HETATM    6  C1  UNL     1       8.273  18.677  18.970  1.00  0.00     0.015 C 
HETATM    7  C3  UNL     1       9.899  18.421  20.756  1.00  0.00     0.015 C 
ENDBRANCH   4   5
ENDBRANCH   3   4
BRANCH   3   8
HETATM    8  S1  UNL     1      10.535  19.297  15.980  1.00  0.00     0.267 S 
HETATM    9  O5  UNL     1       9.575  20.459  16.186  1.00  0.00    -0.200 OA
HETATM   10  O6  UNL     1      11.541  19.747  14.957  1.00  0.00    -0.200 OA
BRANCH   8  11
HETATM   11  C23 UNL     1       9.589  17.955  15.405  1.00  0.00     0.080 A 
HETATM   12  C24 UNL     1       8.213  18.033  15.235  1.00  0.00     0.026 A 
HETATM   13  C25 UNL     1       7.494  16.945  14.774  1.00  0.00     0.011 A 
HETATM   14  C26 UNL     1       8.108  15.753  14.467  1.00  0.00    -0.035 A 
HETATM   15  C28 UNL     1       9.476  15.662  14.631  1.00  0.00     0.011 A 
HETATM   16  C29 UNL     1      10.163  16.739  15.085  1.00  0.00     0.026 A 
BRANCH  14  17
HETATM   17  C27 UNL     1       7.388  14.565  13.971  1.00  0.00     0.202 C 
BRANCH  17  18
HETATM   18  O7  UNL     1       7.398  13.606  15.001  1.00  0.00    -0.396 OA
ATOM     19  H7  UNL     1       7.417  14.076  15.826  1.00  0.00     0.209 HD
ENDBRANCH  17  18
ENDBRANCH  14  17
ENDBRANCH   8  11
ENDBRANCH   3   8
ENDBRANCH   2   3
ENDBRANCH   1   2
BRANCH   1  20
HETATM   20  O1  UNL     1      14.737  18.366  18.420  1.00  0.00    -0.388 OA
ATOM     21  H1  UNL     1      15.509  18.893  18.593  1.00  0.00     0.210 HD
ENDBRANCH   1  20
BRANCH   1  22
HETATM   22  C7  UNL     1      14.219  20.336  17.315  1.00  0.00     0.124 C 
BRANCH  22  23
HETATM   23  C8  UNL     1      14.813  19.860  16.043  1.00  0.00     0.066 C 
BRANCH  23  24
HETATM   24  C9  UNL     1      15.163  20.959  15.136  1.00  0.00    -0.056 A 
HETATM   25  C10 UNL     1      16.504  21.252  14.955  1.00  0.00     0.007 A 
HETATM   26  C11 UNL     1      16.929  22.265  14.122  1.00  0.00     0.001 A 
HETATM   27  C12 UNL     1      16.013  23.021  13.438  1.00  0.00     0.000 A 
HETATM   28  C13 UNL     1      14.660  22.745  13.605  1.00  0.00     0.001 A 
HETATM   29  C14 UNL     1      14.257  21.731  14.442  1.00  0.00     0.007 A 
ENDBRANCH  23  24
ENDBRANCH  22  23
BRANCH  22  30
HETATM   30  N2  UNL     1      14.988  21.243  18.100  1.00  0.00    -0.329 N 
HETATM   31  C15 UNL     1      14.463  22.260  18.930  1.00  0.00     0.361 C 
HETATM   32  O2  UNL     1      13.219  22.386  18.988  1.00  0.00    -0.238 OA
ATOM     33  H2  UNL     1      16.003  21.150  18.060  1.00  0.00     0.165 HD
BRANCH  31  34
HETATM   34  O3  UNL     1      15.225  23.130  19.688  1.00  0.00    -0.299 OA
BRANCH  34  35
HETATM   35  C16 UNL     1      15.157  24.538  19.535  1.00  0.00     0.136 C 
HETATM   36  C17 UNL     1      15.693  24.846  18.136  1.00  0.00     0.040 C 
HETATM   37  C18 UNL     1      16.314  26.215  18.322  1.00  0.00     0.019 C 
HETATM   38  C19 UNL     1      17.481  26.447  17.376  1.00  0.00     0.033 C 
HETATM   39  C21 UNL     1      17.073  25.997  19.629  1.00  0.00     0.128 C 
HETATM   40  C20 UNL     1      18.513  25.512  17.970  1.00  0.00     0.168 C 
HETATM   41  O4  UNL     1      18.062  25.127  19.223  1.00  0.00    -0.385 OA
HETATM   42  C22 UNL     1      16.060  25.263  20.487  1.00  0.00     0.065 C 
ENDBRANCH  34  35
ENDBRANCH  31  34
ENDBRANCH  22  30
ENDBRANCH   1  22
TORSDOF 15
ENDMDL
