MODEL 4
REMARK VINA RESULT: -9.551041441      2.216      9.377
REMARK  15 active torsions:
REMARK  status: ('A' for Active; 'I' for Inactive)
REMARK    1  A    between atoms: C2_2  and  C4_4 
REMARK    2  A    between atoms: C4_4  and  N1_5 
REMARK    3  A    between atoms: N1_5  and  C5_6 
REMARK    4  A    between atoms: N1_5  and  S1_31 
REMARK    5  A    between atoms: C5_6  and  C6_7 
REMARK    6  A    between atoms: C6_7  and  O1_8 
REMARK    7  A    between atoms: C6_7  and  C7_10 
REMARK    8  A    between atoms: C7_10  and  C8_11 
REMARK    9  A    between atoms: C7_10  and  N2_18 
REMARK   10  A    between atoms: C8_11  and  C9_12 
REMARK       I    between atoms: N2_18  and  C15_20 
REMARK   11  A    between atoms: C15_20  and  O3_22 
REMARK   12  A    between atoms: O3_22  and  C16_23 
REMARK   13  A    between atoms: S1_31  and  C23_34 
REMARK   14  A    between atoms: C26_37  and  C27_38 
REMARK   15  A    between atoms: C27_38  and  O7_39 
ROOT
HETATM    1  C6  UNL     1      12.061  22.112  18.554  1.00  0.00     0.180 C 
ENDROOT
BRANCH   1   2
HETATM    2  C5  UNL     1      13.499  21.741  18.349  1.00  0.00     0.115 C 
BRANCH   2   3
HETATM    3  N1  UNL     1      14.159  22.341  17.281  1.00  0.00    -0.263 N 
BRANCH   3   4
HETATM    4  C4  UNL     1      14.915  23.508  17.430  1.00  0.00     0.085 C 
BRANCH   4   5
HETATM    5  C2  UNL     1      14.639  24.338  18.663  1.00  0.00     0.017 C 
HETATM    6  C1  UNL     1      14.336  25.771  18.394  1.00  0.00     0.015 C 
HETATM    7  C3  UNL     1      15.908  24.306  19.525  1.00  0.00     0.015 C 
ENDBRANCH   4   5
ENDBRANCH   3   4
BRANCH   3   8
HETATM    8  S1  UNL     1      14.189  21.554  15.787  1.00  0.00     0.267 S 
HETATM    9  O5  UNL     1      14.463  20.075  16.020  1.00  0.00    -0.200 OA
HETATM   10  O6  UNL     1      12.836  21.641  15.135  1.00  0.00    -0.200 OA
BRANCH   8  11
HETATM   11  C23 UNL     1      15.447  22.144  14.741  1.00  0.00     0.080 A 
HETATM   12  C24 UNL     1      16.781  21.794  14.910  1.00  0.00     0.026 A 
HETATM   13  C25 UNL     1      17.754  22.282  14.056  1.00  0.00     0.011 A 
HETATM   14  C26 UNL     1      17.442  23.124  13.015  1.00  0.00    -0.035 A 
HETATM   15  C28 UNL     1      16.121  23.480  12.835  1.00  0.00     0.011 A 
HETATM   16  C29 UNL     1      15.181  22.992  13.683  1.00  0.00     0.026 A 
BRANCH  14  17
HETATM   17  C27 UNL     1      18.442  23.670  12.076  1.00  0.00     0.202 C 
BRANCH  17  18
HETATM   18  O7  UNL     1      19.164  24.664  12.763  1.00  0.00    -0.396 OA
ATOM     19  H7  UNL     1      19.309  24.350  13.647  1.00  0.00     0.209 HD
ENDBRANCH  17  18
ENDBRANCH  14  17
ENDBRANCH   8  11
ENDBRANCH   3   8
ENDBRANCH   2   3
ENDBRANCH   1   2
BRANCH   1  20
HETATM   20  O1  UNL     1      11.607  22.812  17.432  1.00  0.00    -0.388 OA
ATOM     21  H1  UNL     1      10.686  22.622  17.300  1.00  0.00     0.210 HD
ENDBRANCH   1  20
BRANCH   1  22
HETATM   22  C7  UNL     1      11.181  20.877  18.636  1.00  0.00     0.124 C 
BRANCH  22  23
HETATM   23  C8  UNL     1      10.919  20.443  20.028  1.00  0.00     0.066 C 
BRANCH  23  24
HETATM   24  C9  UNL     1       9.785  19.517  20.127  1.00  0.00    -0.056 A 
HETATM   25  C10 UNL     1       9.826  18.538  21.105  1.00  0.00     0.007 A 
HETATM   26  C11 UNL     1       8.807  17.625  21.275  1.00  0.00     0.001 A 
HETATM   27  C12 UNL     1       7.705  17.668  20.462  1.00  0.00     0.000 A 
HETATM   28  C13 UNL     1       7.640  18.643  19.473  1.00  0.00     0.001 A 
HETATM   29  C14 UNL     1       8.669  19.544  19.319  1.00  0.00     0.007 A 
ENDBRANCH  23  24
ENDBRANCH  22  23
BRANCH  22  30
HETATM   30  N2  UNL     1      11.598  19.884  17.704  1.00  0.00    -0.329 N 
HETATM   31  C15 UNL     1      10.949  19.575  16.487  1.00  0.00     0.361 C 
HETATM   32  O2  UNL     1       9.918  20.221  16.192  1.00  0.00    -0.238 OA
ATOM     33  H2  UNL     1      12.436  19.350  17.935  1.00  0.00     0.165 HD
BRANCH  31  34
HETATM   34  O3  UNL     1      11.369  18.607  15.592  1.00  0.00    -0.299 OA
BRANCH  34  35
HETATM   35  C16 UNL     1      11.034  17.238  15.734  1.00  0.00     0.136 C 
HETATM   36  C17 UNL     1      10.178  16.874  14.519  1.00  0.00     0.040 C 
HETATM   37  C18 UNL     1       9.266  15.800  15.075  1.00  0.00     0.019 C 
HETATM   38  C19 UNL     1       7.922  15.769  14.369  1.00  0.00     0.033 C 
HETATM   39  C21 UNL     1       8.857  16.444  16.397  1.00  0.00     0.128 C 
HETATM   40  C20 UNL     1       7.304  17.051  14.885  1.00  0.00     0.168 C 
HETATM   41  O4  UNL     1       8.072  17.488  15.954  1.00  0.00    -0.385 OA
HETATM   42  C22 UNL     1      10.172  16.979  16.932  1.00  0.00     0.065 C 
ENDBRANCH  34  35
ENDBRANCH  31  34
ENDBRANCH  22  30
ENDBRANCH   1  22
TORSDOF 15
ENDMDL
