MODEL 17
REMARK VINA RESULT: -9.139865081      1.497      1.845
REMARK  15 active torsions:
REMARK  status: ('A' for Active; 'I' for Inactive)
REMARK    1  A    between atoms: C2_2  and  C4_4 
REMARK    2  A    between atoms: C4_4  and  N1_5 
REMARK    3  A    between atoms: N1_5  and  C5_6 
REMARK    4  A    between atoms: N1_5  and  S1_31 
REMARK    5  A    between atoms: C5_6  and  C6_7 
REMARK    6  A    between atoms: C6_7  and  O1_8 
REMARK    7  A    between atoms: C6_7  and  C7_10 
REMARK    8  A    between atoms: C7_10  and  C8_11 
REMARK    9  A    between atoms: C7_10  and  N2_18 
REMARK   10  A    between atoms: C8_11  and  C9_12 
REMARK       I    between atoms: N2_18  and  C15_20 
REMARK   11  A    between atoms: C15_20  and  O3_22 
REMARK   12  A    between atoms: O3_22  and  C16_23 
REMARK   13  A    between atoms: S1_31  and  C23_34 
REMARK   14  A    between atoms: C26_37  and  C27_38 
REMARK   15  A    between atoms: C27_38  and  O7_39 
ROOT
HETATM    1  C6  UNL     1      13.802  20.204  18.453  1.00  0.00     0.180 C 
ENDROOT
BRANCH   1   2
HETATM    2  C5  UNL     1      12.990  18.971  18.192  1.00  0.00     0.115 C 
BRANCH   2   3
HETATM    3  N1  UNL     1      11.732  19.151  17.626  1.00  0.00    -0.263 N 
BRANCH   3   4
HETATM    4  C4  UNL     1      10.768  19.987  18.199  1.00  0.00     0.085 C 
BRANCH   4   5
HETATM    5  C2  UNL     1      10.310  19.632  19.594  1.00  0.00     0.017 C 
HETATM    6  C1  UNL     1       8.910  19.131  19.681  1.00  0.00     0.015 C 
HETATM    7  C3  UNL     1      10.376  20.915  20.434  1.00  0.00     0.015 C 
ENDBRANCH   4   5
ENDBRANCH   3   4
BRANCH   3   8
HETATM    8  S1  UNL     1      11.406  18.472  16.115  1.00  0.00     0.267 S 
HETATM    9  O5  UNL     1      11.532  19.556  15.055  1.00  0.00    -0.200 OA
HETATM   10  O6  UNL     1      12.441  17.430  15.788  1.00  0.00    -0.200 OA
BRANCH   8  11
HETATM   11  C23 UNL     1       9.792  17.834  15.998  1.00  0.00     0.080 A 
HETATM   12  C24 UNL     1       8.859  18.333  15.099  1.00  0.00     0.026 A 
HETATM   13  C25 UNL     1       7.584  17.799  15.033  1.00  0.00     0.011 A 
HETATM   14  C26 UNL     1       7.195  16.761  15.847  1.00  0.00    -0.035 A 
HETATM   15  C28 UNL     1       8.113  16.256  16.746  1.00  0.00     0.011 A 
HETATM   16  C29 UNL     1       9.358  16.793  16.795  1.00  0.00     0.026 A 
BRANCH  14  17
HETATM   17  C27 UNL     1       5.850  16.156  15.815  1.00  0.00     0.202 C 
BRANCH  17  18
HETATM   18  O7  UNL     1       4.915  17.205  15.890  1.00  0.00    -0.396 OA
ATOM     19  H7  UNL     1       5.191  17.781  16.593  1.00  0.00     0.209 HD
ENDBRANCH  17  18
ENDBRANCH  14  17
ENDBRANCH   8  11
ENDBRANCH   3   8
ENDBRANCH   2   3
ENDBRANCH   1   2
BRANCH   1  20
HETATM   20  O1  UNL     1      15.092  19.827  18.839  1.00  0.00    -0.388 OA
ATOM     21  H1  UNL     1      15.202  20.004  19.766  1.00  0.00     0.210 HD
ENDBRANCH   1  20
BRANCH   1  22
HETATM   22  C7  UNL     1      13.987  21.018  17.185  1.00  0.00     0.124 C 
BRANCH  22  23
HETATM   23  C8  UNL     1      14.809  20.326  16.165  1.00  0.00     0.066 C 
BRANCH  23  24
HETATM   24  C9  UNL     1      15.253  21.224  15.092  1.00  0.00    -0.056 A 
HETATM   25  C10 UNL     1      14.311  21.652  14.171  1.00  0.00     0.007 A 
HETATM   26  C11 UNL     1      14.633  22.498  13.131  1.00  0.00     0.001 A 
HETATM   27  C12 UNL     1      15.920  22.945  12.982  1.00  0.00     0.000 A 
HETATM   28  C13 UNL     1      16.882  22.528  13.896  1.00  0.00     0.001 A 
HETATM   29  C14 UNL     1      16.540  21.683  14.926  1.00  0.00     0.007 A 
ENDBRANCH  23  24
ENDBRANCH  22  23
BRANCH  22  30
HETATM   30  N2  UNL     1      14.314  22.372  17.485  1.00  0.00    -0.329 N 
HETATM   31  C15 UNL     1      13.392  23.377  17.859  1.00  0.00     0.361 C 
HETATM   32  O2  UNL     1      12.183  23.063  17.936  1.00  0.00    -0.238 OA
ATOM     33  H2  UNL     1      15.296  22.639  17.424  1.00  0.00     0.165 HD
BRANCH  31  34
HETATM   34  O3  UNL     1      13.728  24.687  18.148  1.00  0.00    -0.299 OA
BRANCH  34  35
HETATM   35  C16 UNL     1      14.628  25.034  19.186  1.00  0.00     0.136 C 
HETATM   36  C17 UNL     1      15.764  25.819  18.528  1.00  0.00     0.040 C 
HETATM   37  C18 UNL     1      16.949  25.470  19.406  1.00  0.00     0.019 C 
HETATM   38  C19 UNL     1      18.259  25.502  18.637  1.00  0.00     0.033 C 
HETATM   39  C21 UNL     1      16.757  23.961  19.539  1.00  0.00     0.128 C 
HETATM   40  C20 UNL     1      18.101  24.277  17.762  1.00  0.00     0.168 C 
HETATM   41  O4  UNL     1      17.033  23.542  18.256  1.00  0.00    -0.385 OA
HETATM   42  C22 UNL     1      15.270  23.834  19.814  1.00  0.00     0.065 C 
ENDBRANCH  34  35
ENDBRANCH  31  34
ENDBRANCH  22  30
ENDBRANCH   1  22
TORSDOF 15
ENDMDL
