MODEL 2
REMARK VINA RESULT: -9.637040036      1.739     10.199
REMARK  15 active torsions:
REMARK  status: ('A' for Active; 'I' for Inactive)
REMARK    1  A    between atoms: C2_2  and  C4_4 
REMARK    2  A    between atoms: C4_4  and  N1_5 
REMARK    3  A    between atoms: N1_5  and  C5_6 
REMARK    4  A    between atoms: N1_5  and  S1_31 
REMARK    5  A    between atoms: C5_6  and  C6_7 
REMARK    6  A    between atoms: C6_7  and  O1_8 
REMARK    7  A    between atoms: C6_7  and  C7_10 
REMARK    8  A    between atoms: C7_10  and  C8_11 
REMARK    9  A    between atoms: C7_10  and  N2_18 
REMARK   10  A    between atoms: C8_11  and  C9_12 
REMARK       I    between atoms: N2_18  and  C15_20 
REMARK   11  A    between atoms: C15_20  and  O3_22 
REMARK   12  A    between atoms: O3_22  and  C16_23 
REMARK   13  A    between atoms: S1_31  and  C23_34 
REMARK   14  A    between atoms: C26_37  and  C27_38 
REMARK   15  A    between atoms: C27_38  and  O7_39 
ROOT
HETATM    1  C6  UNL     1      12.781  18.444  17.916  1.00  0.00     0.180 C 
ENDROOT
BRANCH   1   2
HETATM    2  C5  UNL     1      13.382  19.773  18.267  1.00  0.00     0.115 C 
BRANCH   2   3
HETATM    3  N1  UNL     1      13.097  20.838  17.419  1.00  0.00    -0.263 N 
BRANCH   3   4
HETATM    4  C4  UNL     1      13.129  20.714  16.026  1.00  0.00     0.085 C 
BRANCH   4   5
HETATM    5  C2  UNL     1      14.358  21.251  15.329  1.00  0.00     0.017 C 
HETATM    6  C1  UNL     1      14.110  21.806  13.970  1.00  0.00     0.015 C 
HETATM    7  C3  UNL     1      15.333  20.077  15.160  1.00  0.00     0.015 C 
ENDBRANCH   4   5
ENDBRANCH   3   4
BRANCH   3   8
HETATM    8  S1  UNL     1      12.534  22.287  18.081  1.00  0.00     0.267 S 
HETATM    9  O5  UNL     1      11.677  22.997  17.043  1.00  0.00    -0.200 OA
HETATM   10  O6  UNL     1      11.638  22.000  19.254  1.00  0.00    -0.200 OA
BRANCH   8  11
HETATM   11  C23 UNL     1      13.822  23.377  18.506  1.00  0.00     0.080 A 
HETATM   12  C24 UNL     1      13.857  24.694  18.066  1.00  0.00     0.026 A 
HETATM   13  C25 UNL     1      14.897  25.532  18.426  1.00  0.00     0.011 A 
HETATM   14  C26 UNL     1      15.927  25.099  19.228  1.00  0.00    -0.035 A 
HETATM   15  C28 UNL     1      15.904  23.792  19.672  1.00  0.00     0.011 A 
HETATM   16  C29 UNL     1      14.876  22.986  19.308  1.00  0.00     0.026 A 
BRANCH  14  17
HETATM   17  C27 UNL     1      17.057  25.953  19.642  1.00  0.00     0.202 C 
BRANCH  17  18
HETATM   18  O7  UNL     1      18.091  25.102  20.074  1.00  0.00    -0.396 OA
ATOM     19  H7  UNL     1      18.555  25.552  20.770  1.00  0.00     0.209 HD
ENDBRANCH  17  18
ENDBRANCH  14  17
ENDBRANCH   8  11
ENDBRANCH   3   8
ENDBRANCH   2   3
ENDBRANCH   1   2
BRANCH   1  20
HETATM   20  O1  UNL     1      13.298  17.471  18.776  1.00  0.00    -0.388 OA
ATOM     21  H1  UNL     1      12.817  17.495  19.595  1.00  0.00     0.210 HD
ENDBRANCH   1  20
BRANCH   1  22
HETATM   22  C7  UNL     1      11.283  18.437  18.159  1.00  0.00     0.124 C 
BRANCH  22  23
HETATM   23  C8  UNL     1      10.922  18.699  19.572  1.00  0.00     0.066 C 
BRANCH  23  24
HETATM   24  C9  UNL     1       9.494  18.490  19.838  1.00  0.00    -0.056 A 
HETATM   25  C10 UNL     1       9.140  17.811  20.992  1.00  0.00     0.007 A 
HETATM   26  C11 UNL     1       7.825  17.569  21.328  1.00  0.00     0.001 A 
HETATM   27  C12 UNL     1       6.816  18.004  20.509  1.00  0.00     0.000 A 
HETATM   28  C13 UNL     1       7.148  18.689  19.345  1.00  0.00     0.001 A 
HETATM   29  C14 UNL     1       8.467  18.920  19.028  1.00  0.00     0.007 A 
ENDBRANCH  23  24
ENDBRANCH  22  23
BRANCH  22  30
HETATM   30  N2  UNL     1      10.661  17.329  17.516  1.00  0.00    -0.329 N 
HETATM   31  C15 UNL     1      10.316  17.260  16.147  1.00  0.00     0.361 C 
HETATM   32  O2  UNL     1      10.572  18.252  15.427  1.00  0.00    -0.238 OA
ATOM     33  H2  UNL     1      10.447  16.515  18.092  1.00  0.00     0.165 HD
BRANCH  31  34
HETATM   34  O3  UNL     1       9.714  16.174  15.538  1.00  0.00    -0.299 OA
BRANCH  34  35
HETATM   35  C16 UNL     1       8.492  16.275  14.827  1.00  0.00     0.136 C 
HETATM   36  C17 UNL     1       7.519  17.018  15.745  1.00  0.00     0.040 C 
HETATM   37  C18 UNL     1       6.183  16.427  15.346  1.00  0.00     0.019 C 
HETATM   38  C19 UNL     1       5.192  16.425  16.498  1.00  0.00     0.033 C 
HETATM   39  C21 UNL     1       6.541  14.943  15.304  1.00  0.00     0.128 C 
HETATM   40  C20 UNL     1       5.795  15.358  17.386  1.00  0.00     0.168 C 
HETATM   41  O4  UNL     1       6.748  14.679  16.641  1.00  0.00    -0.385 OA
HETATM   42  C22 UNL     1       7.867  14.938  14.567  1.00  0.00     0.065 C 
ENDBRANCH  34  35
ENDBRANCH  31  34
ENDBRANCH  22  30
ENDBRANCH   1  22
TORSDOF 15
ENDMDL
