MODEL 10
REMARK VINA RESULT: -9.317915922      0.852      1.169
REMARK  15 active torsions:
REMARK  status: ('A' for Active; 'I' for Inactive)
REMARK    1  A    between atoms: C2_2  and  C4_4 
REMARK    2  A    between atoms: C4_4  and  N1_5 
REMARK    3  A    between atoms: N1_5  and  C5_6 
REMARK    4  A    between atoms: N1_5  and  S1_31 
REMARK    5  A    between atoms: C5_6  and  C6_7 
REMARK    6  A    between atoms: C6_7  and  O1_8 
REMARK    7  A    between atoms: C6_7  and  C7_10 
REMARK    8  A    between atoms: C7_10  and  C8_11 
REMARK    9  A    between atoms: C7_10  and  N2_18 
REMARK   10  A    between atoms: C8_11  and  C9_12 
REMARK       I    between atoms: N2_18  and  C15_20 
REMARK   11  A    between atoms: C15_20  and  O3_22 
REMARK   12  A    between atoms: O3_22  and  C16_23 
REMARK   13  A    between atoms: S1_31  and  C23_34 
REMARK   14  A    between atoms: C26_37  and  C27_38 
REMARK   15  A    between atoms: C27_38  and  O7_39 
ROOT
HETATM    1  C6  UNL     1      13.978  19.516  18.188  1.00  0.00     0.180 C 
ENDROOT
BRANCH   1   2
HETATM    2  C5  UNL     1      12.879  18.709  17.561  1.00  0.00     0.115 C 
BRANCH   2   3
HETATM    3  N1  UNL     1      11.598  19.251  17.600  1.00  0.00    -0.263 N 
BRANCH   3   4
HETATM    4  C4  UNL     1      10.990  19.647  18.795  1.00  0.00     0.085 C 
BRANCH   4   5
HETATM    5  C2  UNL     1      10.013  18.672  19.411  1.00  0.00     0.017 C 
HETATM    6  C1  UNL     1       8.580  19.038  19.244  1.00  0.00     0.015 C 
HETATM    7  C3  UNL     1      10.292  18.643  20.920  1.00  0.00     0.015 C 
ENDBRANCH   4   5
ENDBRANCH   3   4
BRANCH   3   8
HETATM    8  S1  UNL     1      10.808  19.594  16.147  1.00  0.00     0.267 S 
HETATM    9  O5  UNL     1       9.809  20.716  16.389  1.00  0.00    -0.200 OA
HETATM   10  O6  UNL     1      11.796  20.109  15.136  1.00  0.00    -0.200 OA
BRANCH   8  11
HETATM   11  C23 UNL     1       9.908  18.238  15.534  1.00  0.00     0.080 A 
HETATM   12  C24 UNL     1       8.520  18.223  15.495  1.00  0.00     0.026 A 
HETATM   13  C25 UNL     1       7.837  17.126  14.998  1.00  0.00     0.011 A 
HETATM   14  C26 UNL     1       8.502  16.018  14.526  1.00  0.00    -0.035 A 
HETATM   15  C28 UNL     1       9.881  16.020  14.559  1.00  0.00     0.011 A 
HETATM   16  C29 UNL     1      10.532  17.104  15.050  1.00  0.00     0.026 A 
BRANCH  14  17
HETATM   17  C27 UNL     1       7.821  14.825  13.985  1.00  0.00     0.202 C 
BRANCH  17  18
HETATM   18  O7  UNL     1       8.104  13.752  14.851  1.00  0.00    -0.396 OA
ATOM     19  H7  UNL     1       7.512  13.821  15.590  1.00  0.00     0.209 HD
ENDBRANCH  17  18
ENDBRANCH  14  17
ENDBRANCH   8  11
ENDBRANCH   3   8
ENDBRANCH   2   3
ENDBRANCH   1   2
BRANCH   1  20
HETATM   20  O1  UNL     1      15.088  18.691  18.390  1.00  0.00    -0.388 OA
ATOM     21  H1  UNL     1      15.619  19.054  19.090  1.00  0.00     0.210 HD
ENDBRANCH   1  20
BRANCH   1  22
HETATM   22  C7  UNL     1      14.458  20.610  17.253  1.00  0.00     0.124 C 
BRANCH  22  23
HETATM   23  C8  UNL     1      15.122  20.085  16.036  1.00  0.00     0.066 C 
BRANCH  23  24
HETATM   24  C9  UNL     1      15.451  21.141  15.072  1.00  0.00    -0.056 A 
HETATM   25  C10 UNL     1      16.789  21.415  14.838  1.00  0.00     0.007 A 
HETATM   26  C11 UNL     1      17.195  22.387  13.949  1.00  0.00     0.001 A 
HETATM   27  C12 UNL     1      16.264  23.120  13.261  1.00  0.00     0.000 A 
HETATM   28  C13 UNL     1      14.915  22.862  13.479  1.00  0.00     0.001 A 
HETATM   29  C14 UNL     1      14.531  21.888  14.371  1.00  0.00     0.007 A 
ENDBRANCH  23  24
ENDBRANCH  22  23
BRANCH  22  30
HETATM   30  N2  UNL     1      15.123  21.646  17.969  1.00  0.00    -0.329 N 
HETATM   31  C15 UNL     1      14.587  22.923  18.255  1.00  0.00     0.361 C 
HETATM   32  O2  UNL     1      13.430  23.177  17.849  1.00  0.00    -0.238 OA
ATOM     33  H2  UNL     1      16.066  21.451  18.304  1.00  0.00     0.165 HD
BRANCH  31  34
HETATM   34  O3  UNL     1      15.246  23.916  18.955  1.00  0.00    -0.299 OA
BRANCH  34  35
HETATM   35  C16 UNL     1      16.656  23.944  19.098  1.00  0.00     0.136 C 
HETATM   36  C17 UNL     1      17.037  25.405  19.346  1.00  0.00     0.040 C 
HETATM   37  C18 UNL     1      18.414  25.491  18.723  1.00  0.00     0.019 C 
HETATM   38  C19 UNL     1      18.719  26.883  18.197  1.00  0.00     0.033 C 
HETATM   39  C21 UNL     1      18.167  24.759  17.405  1.00  0.00     0.128 C 
HETATM   40  C20 UNL     1      17.792  26.941  17.001  1.00  0.00     0.168 C 
HETATM   41  O4  UNL     1      17.343  25.652  16.754  1.00  0.00    -0.385 OA
HETATM   42  C22 UNL     1      17.368  23.545  17.841  1.00  0.00     0.065 C 
ENDBRANCH  34  35
ENDBRANCH  31  34
ENDBRANCH  22  30
ENDBRANCH   1  22
TORSDOF 15
ENDMDL
