MODEL 9
REMARK VINA RESULT: -9.334159104      1.038      1.260
REMARK  15 active torsions:
REMARK  status: ('A' for Active; 'I' for Inactive)
REMARK    1  A    between atoms: C2_2  and  C4_4 
REMARK    2  A    between atoms: C4_4  and  N1_5 
REMARK    3  A    between atoms: N1_5  and  C5_6 
REMARK    4  A    between atoms: N1_5  and  S1_31 
REMARK    5  A    between atoms: C5_6  and  C6_7 
REMARK    6  A    between atoms: C6_7  and  O1_8 
REMARK    7  A    between atoms: C6_7  and  C7_10 
REMARK    8  A    between atoms: C7_10  and  C8_11 
REMARK    9  A    between atoms: C7_10  and  N2_18 
REMARK   10  A    between atoms: C8_11  and  C9_12 
REMARK       I    between atoms: N2_18  and  C15_20 
REMARK   11  A    between atoms: C15_20  and  O3_22 
REMARK   12  A    between atoms: O3_22  and  C16_23 
REMARK   13  A    between atoms: S1_31  and  C23_34 
REMARK   14  A    between atoms: C26_37  and  C27_38 
REMARK   15  A    between atoms: C27_38  and  O7_39 
ROOT
HETATM    1  C6  UNL     1      14.051  20.332  18.112  1.00  0.00     0.180 C 
ENDROOT
BRANCH   1   2
HETATM    2  C5  UNL     1      13.554  19.278  17.169  1.00  0.00     0.115 C 
BRANCH   2   3
HETATM    3  N1  UNL     1      12.194  18.984  17.212  1.00  0.00    -0.263 N 
BRANCH   3   4
HETATM    4  C4  UNL     1      11.590  18.405  18.332  1.00  0.00     0.085 C 
BRANCH   4   5
HETATM    5  C2  UNL     1      10.554  19.241  19.047  1.00  0.00     0.017 C 
HETATM    6  C1  UNL     1      10.954  19.698  20.406  1.00  0.00     0.015 C 
HETATM    7  C3  UNL     1       9.305  18.365  19.223  1.00  0.00     0.015 C 
ENDBRANCH   4   5
ENDBRANCH   3   4
BRANCH   3   8
HETATM    8  S1  UNL     1      11.205  19.486  15.938  1.00  0.00     0.267 S 
HETATM    9  O5  UNL     1      10.347  20.648  16.417  1.00  0.00    -0.200 OA
HETATM   10  O6  UNL     1      12.050  20.013  14.811  1.00  0.00    -0.200 OA
BRANCH   8  11
HETATM   11  C23 UNL     1      10.117  18.240  15.399  1.00  0.00     0.080 A 
HETATM   12  C24 UNL     1       8.737  18.383  15.455  1.00  0.00     0.026 A 
HETATM   13  C25 UNL     1       7.903  17.371  15.015  1.00  0.00     0.011 A 
HETATM   14  C26 UNL     1       8.403  16.194  14.509  1.00  0.00    -0.035 A 
HETATM   15  C28 UNL     1       9.773  16.039  14.448  1.00  0.00     0.011 A 
HETATM   16  C29 UNL     1      10.574  17.043  14.884  1.00  0.00     0.026 A 
BRANCH  14  17
HETATM   17  C27 UNL     1       7.557  15.085  14.026  1.00  0.00     0.202 C 
BRANCH  17  18
HETATM   18  O7  UNL     1       8.105  13.889  14.525  1.00  0.00    -0.396 OA
ATOM     19  H7  UNL     1       7.419  13.233  14.506  1.00  0.00     0.209 HD
ENDBRANCH  17  18
ENDBRANCH  14  17
ENDBRANCH   8  11
ENDBRANCH   3   8
ENDBRANCH   2   3
ENDBRANCH   1   2
BRANCH   1  20
HETATM   20  O1  UNL     1      15.031  19.776  18.939  1.00  0.00    -0.388 OA
ATOM     21  H1  UNL     1      15.841  20.260  18.827  1.00  0.00     0.210 HD
ENDBRANCH   1  20
BRANCH   1  22
HETATM   22  C7  UNL     1      14.749  21.453  17.364  1.00  0.00     0.124 C 
BRANCH  22  23
HETATM   23  C8  UNL     1      15.728  20.964  16.365  1.00  0.00     0.066 C 
BRANCH  23  24
HETATM   24  C9  UNL     1      15.783  21.810  15.167  1.00  0.00    -0.056 A 
HETATM   25  C10 UNL     1      17.024  22.070  14.610  1.00  0.00     0.007 A 
HETATM   26  C11 UNL     1      17.175  22.852  13.484  1.00  0.00     0.001 A 
HETATM   27  C12 UNL     1      16.076  23.400  12.877  1.00  0.00     0.000 A 
HETATM   28  C13 UNL     1      14.819  23.152  13.418  1.00  0.00     0.001 A 
HETATM   29  C14 UNL     1      14.690  22.370  14.543  1.00  0.00     0.007 A 
ENDBRANCH  23  24
ENDBRANCH  22  23
BRANCH  22  30
HETATM   30  N2  UNL     1      15.175  22.481  18.254  1.00  0.00    -0.329 N 
HETATM   31  C15 UNL     1      14.413  23.612  18.629  1.00  0.00     0.361 C 
HETATM   32  O2  UNL     1      13.266  23.733  18.142  1.00  0.00    -0.238 OA
ATOM     33  H2  UNL     1      16.108  22.393  18.655  1.00  0.00     0.165 HD
BRANCH  31  34
HETATM   34  O3  UNL     1      14.842  24.599  19.497  1.00  0.00    -0.299 OA
BRANCH  34  35
HETATM   35  C16 UNL     1      15.783  25.591  19.122  1.00  0.00     0.136 C 
HETATM   36  C17 UNL     1      16.111  25.341  17.649  1.00  0.00     0.040 C 
HETATM   37  C18 UNL     1      17.547  25.814  17.552  1.00  0.00     0.019 C 
HETATM   38  C19 UNL     1      18.324  25.067  16.481  1.00  0.00     0.033 C 
HETATM   39  C21 UNL     1      18.134  25.166  18.804  1.00  0.00     0.128 C 
HETATM   40  C20 UNL     1      18.449  23.703  17.124  1.00  0.00     0.168 C 
HETATM   41  O4  UNL     1      18.096  23.832  18.459  1.00  0.00    -0.385 OA
HETATM   42  C22 UNL     1      17.082  25.456  19.858  1.00  0.00     0.065 C 
ENDBRANCH  34  35
ENDBRANCH  31  34
ENDBRANCH  22  30
ENDBRANCH   1  22
TORSDOF 15
ENDMDL
