MODEL 2
REMARK VINA RESULT: -10.674480543      0.673      1.165
REMARK  10 active torsions:
REMARK  status: ('A' for Active; 'I' for Inactive)
REMARK    1  A    between atoms: N4_10  and  C5_11 
REMARK    2  A    between atoms: C6_13  and  C7_14 
REMARK    3  A    between atoms: C7_14  and  O2_15 
REMARK    4  A    between atoms: O2_15  and  P1_16 
REMARK    5  A    between atoms: P1_16  and  O5_19 
REMARK    6  A    between atoms: O5_19  and  P2_20 
REMARK    7  A    between atoms: P2_20  and  O8_23 
REMARK    8  A    between atoms: O8_23  and  P3_24 
REMARK    9  A    between atoms: C8_28  and  O11_29 
REMARK   10  A    between atoms: C9_31  and  O12_32 
ROOT
HETATM    1  C5  UNL     1      -4.772  18.067 -32.704  1.00  0.00     0.262 C 
HETATM    2  O1  UNL     1      -4.715  18.176 -31.343  1.00  0.00    -0.353 OA
HETATM    3  C6  UNL     1      -5.938  17.895 -30.798  1.00  0.00     0.180 C 
HETATM    4  C8  UNL     1      -6.643  16.977 -31.806  1.00  0.00     0.182 C 
HETATM    5  C9  UNL     1      -6.149  17.631 -33.103  1.00  0.00     0.198 C 
ENDROOT
BRANCH   1   6
HETATM    6  N4  UNL     1      -3.732  17.214 -33.178  1.00  0.00    -0.297 N 
HETATM    7  C2  UNL     1      -2.869  17.461 -34.175  1.00  0.00     0.146 A 
HETATM    8  N2  UNL     1      -2.693  18.500 -35.004  1.00  0.00    -0.314 N 
HETATM    9  C3  UNL     1      -2.028  16.379 -34.307  1.00  0.00     0.146 A 
HETATM   10  C1  UNL     1      -1.752  18.567 -35.963  1.00  0.00     0.196 A 
ATOM     11  H2  UNL     1      -3.319  19.298 -34.901  1.00  0.00     0.170 HD
HETATM   12  N1  UNL     1      -1.606  19.693 -36.818  1.00  0.00    -0.063 NA
HETATM   13  N5  UNL     1      -0.928  17.484 -36.081  1.00  0.00    -0.295 N 
HETATM   14  C10 UNL     1      -1.039  16.405 -35.288  1.00  0.00     0.278 A 
ATOM     15  H5  UNL     1      -0.201  17.495 -36.797  1.00  0.00     0.171 HD
HETATM   16  O13 UNL     1      -0.296  15.404 -35.378  1.00  0.00    -0.265 OA
HETATM   17  N3  UNL     1      -2.402  15.487 -33.381  1.00  0.00    -0.345 N 
HETATM   18  C4  UNL     1      -3.437  16.001 -32.697  1.00  0.00     0.188 A 
ATOM     19  H3  UNL     1      -1.973  14.575 -33.221  1.00  0.00     0.167 HD
ENDBRANCH   1   6
BRANCH   5  20
HETATM   20  O12 UNL     1      -6.933  18.771 -33.279  1.00  0.00    -0.388 OA
ATOM     21  H12 UNL     1      -7.844  18.526 -33.159  1.00  0.00     0.210 HD
ENDBRANCH   5  20
BRANCH   3  22
HETATM   22  C7  UNL     1      -5.826  17.201 -29.449  1.00  0.00     0.216 C 
BRANCH  22  23
HETATM   23  O2  UNL     1      -6.979  17.468 -28.700  1.00  0.00    -0.287 OA
BRANCH  23  24
HETATM   24  P1  UNL     1      -7.701  16.053 -28.169  1.00  0.00     0.417 P 
HETATM   25  O3  UNL     1      -7.919  15.116 -29.348  1.00  0.00    -0.624 OA
HETATM   26  O4  UNL     1      -9.181  16.338 -27.402  1.00  0.00    -0.624 OA
BRANCH  24  27
HETATM   27  O5  UNL     1      -6.680  15.308 -27.069  1.00  0.00    -0.180 OA
BRANCH  27  28
HETATM   28  P2  UNL     1      -6.384  16.334 -25.757  1.00  0.00     0.426 P 
HETATM   29  O6  UNL     1      -6.860  17.726 -26.181  1.00  0.00    -0.624 OA
HETATM   30  O7  UNL     1      -4.739  16.455 -25.411  1.00  0.00    -0.624 OA
BRANCH  28  31
HETATM   31  O8  UNL     1      -7.290  15.834 -24.434  1.00  0.00    -0.191 OA
BRANCH  31  32
HETATM   32  P3  UNL     1      -7.546  17.055 -23.317  1.00  0.00     0.358 P 
HETATM   33  O9  UNL     1      -8.761  18.123 -23.785  1.00  0.00    -0.635 OA
HETATM   34  O10 UNL     1      -6.113  17.957 -23.117  1.00  0.00    -0.635 OA
HETATM   35  S1  UNL     1      -7.999  16.341 -21.818  1.00  0.00     0.013 SA
ENDBRANCH  31  32
ENDBRANCH  28  31
ENDBRANCH  27  28
ENDBRANCH  24  27
ENDBRANCH  23  24
ENDBRANCH  22  23
ENDBRANCH   3  22
BRANCH   4  36
HETATM   36  O11 UNL     1      -8.008  17.024 -31.687  1.00  0.00    -0.390 OA
ATOM     37  H11 UNL     1      -8.365  16.233 -31.301  1.00  0.00     0.210 HD
ENDBRANCH   4  36
TORSDOF 10
ENDMDL
