MODEL 14
REMARK VINA RESULT: -9.693760533      3.685      5.928
REMARK  10 active torsions:
REMARK  status: ('A' for Active; 'I' for Inactive)
REMARK    1  A    between atoms: N4_10  and  C5_11 
REMARK    2  A    between atoms: C6_13  and  C7_14 
REMARK    3  A    between atoms: C7_14  and  O2_15 
REMARK    4  A    between atoms: O2_15  and  P1_16 
REMARK    5  A    between atoms: P1_16  and  O5_19 
REMARK    6  A    between atoms: O5_19  and  P2_20 
REMARK    7  A    between atoms: P2_20  and  O8_23 
REMARK    8  A    between atoms: O8_23  and  P3_24 
REMARK    9  A    between atoms: C8_28  and  O11_29 
REMARK   10  A    between atoms: C9_31  and  O12_32 
ROOT
HETATM    1  C5  UNL     1      -7.274  18.475 -33.071  1.00  0.00     0.262 C 
HETATM    2  O1  UNL     1      -6.989  17.615 -32.048  1.00  0.00    -0.353 OA
HETATM    3  C6  UNL     1      -5.929  18.085 -31.322  1.00  0.00     0.180 C 
HETATM    4  C8  UNL     1      -5.929  19.606 -31.519  1.00  0.00     0.182 C 
HETATM    5  C9  UNL     1      -6.348  19.651 -32.994  1.00  0.00     0.198 C 
ENDROOT
BRANCH   1   6
HETATM    6  N4  UNL     1      -8.657  18.823 -33.055  1.00  0.00    -0.297 N 
HETATM    7  C2  UNL     1      -9.423  19.062 -31.979  1.00  0.00     0.146 A 
HETATM    8  N2  UNL     1      -9.184  19.057 -30.660  1.00  0.00    -0.314 N 
HETATM    9  C3  UNL     1     -10.697  19.365 -32.404  1.00  0.00     0.146 A 
HETATM   10  C1  UNL     1     -10.099  19.328 -29.712  1.00  0.00     0.196 A 
ATOM     11  H2  UNL     1      -8.239  18.832 -30.351  1.00  0.00     0.170 HD
HETATM   12  N1  UNL     1      -9.796  19.311 -28.324  1.00  0.00    -0.063 NA
HETATM   13  N5  UNL     1     -11.358  19.626 -30.152  1.00  0.00    -0.295 N 
HETATM   14  C10 UNL     1     -11.677  19.652 -31.457  1.00  0.00     0.278 A 
ATOM     15  H5  UNL     1     -12.082  19.837 -29.465  1.00  0.00     0.171 HD
HETATM   16  O13 UNL     1     -12.821  19.922 -31.882  1.00  0.00    -0.265 OA
HETATM   17  N3  UNL     1     -10.680  19.303 -33.742  1.00  0.00    -0.345 N 
HETATM   18  C4  UNL     1      -9.438  18.974 -34.131  1.00  0.00     0.188 A 
ATOM     19  H3  UNL     1     -11.474  19.476 -34.359  1.00  0.00     0.167 HD
ENDBRANCH   1   6
BRANCH   5  20
HETATM   20  O12 UNL     1      -5.199  19.348 -33.726  1.00  0.00    -0.388 OA
ATOM     21  H12 UNL     1      -4.562  18.967 -33.133  1.00  0.00     0.210 HD
ENDBRANCH   5  20
BRANCH   3  22
HETATM   22  C7  UNL     1      -6.047  17.749 -29.843  1.00  0.00     0.216 C 
BRANCH  22  23
HETATM   23  O2  UNL     1      -7.302  17.174 -29.603  1.00  0.00    -0.287 OA
BRANCH  23  24
HETATM   24  P1  UNL     1      -7.323  16.339 -28.151  1.00  0.00     0.417 P 
HETATM   25  O3  UNL     1      -6.631  14.995 -28.325  1.00  0.00    -0.624 OA
HETATM   26  O4  UNL     1      -8.893  16.089 -27.578  1.00  0.00    -0.624 OA
BRANCH  24  27
HETATM   27  O5  UNL     1      -6.488  17.232 -27.005  1.00  0.00    -0.180 OA
BRANCH  27  28
HETATM   28  P2  UNL     1      -5.947  16.224 -25.758  1.00  0.00     0.426 P 
HETATM   29  O6  UNL     1      -4.477  15.918 -26.055  1.00  0.00    -0.624 OA
HETATM   30  O7  UNL     1      -6.767  14.752 -25.738  1.00  0.00    -0.624 OA
BRANCH  28  31
HETATM   31  O8  UNL     1      -6.042  17.038 -24.293  1.00  0.00    -0.191 OA
BRANCH  31  32
HETATM   32  P3  UNL     1      -7.506  17.823 -24.072  1.00  0.00     0.358 P 
HETATM   33  O9  UNL     1      -8.830  16.841 -24.418  1.00  0.00    -0.635 OA
HETATM   34  O10 UNL     1      -7.587  19.181 -25.099  1.00  0.00    -0.635 OA
HETATM   35  S1  UNL     1      -7.617  18.325 -22.430  1.00  0.00     0.013 SA
ENDBRANCH  31  32
ENDBRANCH  28  31
ENDBRANCH  27  28
ENDBRANCH  24  27
ENDBRANCH  23  24
ENDBRANCH  22  23
ENDBRANCH   3  22
BRANCH   4  36
HETATM   36  O11 UNL     1      -4.691  20.158 -31.312  1.00  0.00    -0.390 OA
ATOM     37  H11 UNL     1      -4.720  20.897 -30.716  1.00  0.00     0.210 HD
ENDBRANCH   4  36
TORSDOF 10
ENDMDL
