MODEL 1
REMARK VINA RESULT: -11.020467292      0.000      0.000
REMARK  10 active torsions:
REMARK  status: ('A' for Active; 'I' for Inactive)
REMARK    1  A    between atoms: N4_10  and  C5_11 
REMARK    2  A    between atoms: C6_13  and  C7_14 
REMARK    3  A    between atoms: C7_14  and  O2_15 
REMARK    4  A    between atoms: O2_15  and  P1_16 
REMARK    5  A    between atoms: P1_16  and  O5_19 
REMARK    6  A    between atoms: O5_19  and  P2_20 
REMARK    7  A    between atoms: P2_20  and  O8_23 
REMARK    8  A    between atoms: O8_23  and  P3_24 
REMARK    9  A    between atoms: C8_28  and  O11_29 
REMARK   10  A    between atoms: C9_31  and  O12_32 
ROOT
HETATM    1  C5  UNL     1      -4.999  18.304 -32.674  1.00  0.00     0.262 C 
HETATM    2  O1  UNL     1      -5.000  18.526 -31.326  1.00  0.00    -0.353 OA
HETATM    3  C6  UNL     1      -6.252  18.316 -30.817  1.00  0.00     0.180 C 
HETATM    4  C8  UNL     1      -6.933  17.330 -31.775  1.00  0.00     0.182 C 
HETATM    5  C9  UNL     1      -6.367  17.861 -33.098  1.00  0.00     0.198 C 
ENDROOT
BRANCH   1   6
HETATM    6  N4  UNL     1      -3.959  17.394 -33.026  1.00  0.00    -0.297 N 
HETATM    7  C2  UNL     1      -3.064  17.526 -34.017  1.00  0.00     0.146 A 
HETATM    8  N2  UNL     1      -2.849  18.471 -34.943  1.00  0.00    -0.314 N 
HETATM    9  C3  UNL     1      -2.237  16.425 -34.012  1.00  0.00     0.146 A 
HETATM   10  C1  UNL     1      -1.880  18.427 -35.875  1.00  0.00     0.196 A 
ATOM     11  H2  UNL     1      -3.465  19.283 -34.942  1.00  0.00     0.170 HD
HETATM   12  N1  UNL     1      -1.692  19.456 -36.836  1.00  0.00    -0.063 NA
HETATM   13  N5  UNL     1      -1.069  17.328 -35.856  1.00  0.00    -0.295 N 
HETATM   14  C10 UNL     1      -1.219  16.337 -34.960  1.00  0.00     0.278 A 
ATOM     15  H5  UNL     1      -0.322  17.256 -36.547  1.00  0.00     0.171 HD
HETATM   16  O13 UNL     1      -0.490  15.324 -34.924  1.00  0.00    -0.265 OA
HETATM   17  N3  UNL     1      -2.650  15.638 -33.010  1.00  0.00    -0.345 N 
HETATM   18  C4  UNL     1      -3.697  16.232 -32.415  1.00  0.00     0.188 A 
ATOM     19  H3  UNL     1      -2.241  14.742 -32.745  1.00  0.00     0.167 HD
ENDBRANCH   1   6
BRANCH   5  20
HETATM   20  O12 UNL     1      -7.116  18.998 -33.405  1.00  0.00    -0.388 OA
ATOM     21  H12 UNL     1      -7.979  18.897 -33.020  1.00  0.00     0.210 HD
ENDBRANCH   5  20
BRANCH   3  22
HETATM   22  C7  UNL     1      -6.215  17.738 -29.410  1.00  0.00     0.216 C 
BRANCH  22  23
HETATM   23  O2  UNL     1      -7.432  17.096 -29.148  1.00  0.00    -0.287 OA
BRANCH  23  24
HETATM   24  P1  UNL     1      -8.056  17.554 -27.662  1.00  0.00     0.417 P 
HETATM   25  O3  UNL     1      -9.029  16.494 -27.167  1.00  0.00    -0.624 OA
HETATM   26  O4  UNL     1      -8.846  19.047 -27.732  1.00  0.00    -0.624 OA
BRANCH  24  27
HETATM   27  O5  UNL     1      -6.795  17.684 -26.566  1.00  0.00    -0.180 OA
BRANCH  27  28
HETATM   28  P2  UNL     1      -6.333  16.150 -26.022  1.00  0.00     0.426 P 
HETATM   29  O6  UNL     1      -4.845  16.245 -25.673  1.00  0.00    -0.624 OA
HETATM   30  O7  UNL     1      -6.488  14.981 -27.226  1.00  0.00    -0.624 OA
BRANCH  28  31
HETATM   31  O8  UNL     1      -7.189  15.764 -24.630  1.00  0.00    -0.191 OA
BRANCH  31  32
HETATM   32  P3  UNL     1      -7.418  17.077 -23.616  1.00  0.00     0.358 P 
HETATM   33  O9  UNL     1      -8.474  18.221 -24.260  1.00  0.00    -0.635 OA
HETATM   34  O10 UNL     1      -5.926  17.851 -23.335  1.00  0.00    -0.635 OA
HETATM   35  S1  UNL     1      -8.072  16.513 -22.128  1.00  0.00     0.013 SA
ENDBRANCH  31  32
ENDBRANCH  28  31
ENDBRANCH  27  28
ENDBRANCH  24  27
ENDBRANCH  23  24
ENDBRANCH  22  23
ENDBRANCH   3  22
BRANCH   4  36
HETATM   36  O11 UNL     1      -8.301  17.413 -31.723  1.00  0.00    -0.390 OA
ATOM     37  H11 UNL     1      -8.705  16.583 -31.504  1.00  0.00     0.210 HD
ENDBRANCH   4  36
TORSDOF 10
ENDMDL
