MODEL 6
REMARK VINA RESULT: -10.339027568      1.059      1.636
REMARK  10 active torsions:
REMARK  status: ('A' for Active; 'I' for Inactive)
REMARK    1  A    between atoms: N4_10  and  C5_11 
REMARK    2  A    between atoms: C6_13  and  C7_14 
REMARK    3  A    between atoms: C7_14  and  O2_15 
REMARK    4  A    between atoms: O2_15  and  P1_16 
REMARK    5  A    between atoms: P1_16  and  O5_19 
REMARK    6  A    between atoms: O5_19  and  P2_20 
REMARK    7  A    between atoms: P2_20  and  O8_23 
REMARK    8  A    between atoms: O8_23  and  P3_24 
REMARK    9  A    between atoms: C8_28  and  O11_29 
REMARK   10  A    between atoms: C9_31  and  O12_32 
ROOT
HETATM    1  C5  UNL     1      -5.039  18.122 -32.920  1.00  0.00     0.262 C 
HETATM    2  O1  UNL     1      -4.957  18.558 -31.627  1.00  0.00    -0.353 OA
HETATM    3  C6  UNL     1      -6.136  18.323 -30.976  1.00  0.00     0.180 C 
HETATM    4  C8  UNL     1      -6.787  17.139 -31.704  1.00  0.00     0.182 C 
HETATM    5  C9  UNL     1      -6.385  17.499 -33.141  1.00  0.00     0.198 C 
ENDROOT
BRANCH   1   6
HETATM    6  N4  UNL     1      -3.944  17.263 -33.225  1.00  0.00    -0.297 N 
HETATM    7  C2  UNL     1      -3.018  17.434 -34.181  1.00  0.00     0.146 A 
HETATM    8  N2  UNL     1      -2.813  18.384 -35.105  1.00  0.00    -0.314 N 
HETATM    9  C3  UNL     1      -2.138  16.375 -34.137  1.00  0.00     0.146 A 
HETATM   10  C1  UNL     1      -1.808  18.384 -35.998  1.00  0.00     0.196 A 
ATOM     11  H2  UNL     1      -3.468  19.165 -35.133  1.00  0.00     0.170 HD
HETATM   12  N1  UNL     1      -1.633  19.417 -36.958  1.00  0.00    -0.063 NA
HETATM   13  N5  UNL     1      -0.945  17.326 -35.940  1.00  0.00    -0.295 N 
HETATM   14  C10 UNL     1      -1.082  16.334 -35.044  1.00  0.00     0.278 A 
ATOM     15  H5  UNL     1      -0.170  17.287 -36.601  1.00  0.00     0.171 HD
HETATM   16  O13 UNL     1      -0.306  15.357 -34.973  1.00  0.00    -0.265 OA
HETATM   17  N3  UNL     1      -2.552  15.574 -33.147  1.00  0.00    -0.345 N 
HETATM   18  C4  UNL     1      -3.648  16.119 -32.596  1.00  0.00     0.188 A 
ATOM     19  H3  UNL     1      -2.109  14.700 -32.860  1.00  0.00     0.167 HD
ENDBRANCH   1   6
BRANCH   5  20
HETATM   20  O12 UNL     1      -7.267  18.501 -33.545  1.00  0.00    -0.388 OA
ATOM     21  H12 UNL     1      -7.039  18.756 -34.432  1.00  0.00     0.210 HD
ENDBRANCH   5  20
BRANCH   3  22
HETATM   22  C7  UNL     1      -5.930  17.984 -29.508  1.00  0.00     0.216 C 
BRANCH  22  23
HETATM   23  O2  UNL     1      -7.179  17.819 -28.896  1.00  0.00    -0.287 OA
BRANCH  23  24
HETATM   24  P1  UNL     1      -7.269  16.360 -28.078  1.00  0.00     0.417 P 
HETATM   25  O3  UNL     1      -5.890  15.980 -27.557  1.00  0.00    -0.624 OA
HETATM   26  O4  UNL     1      -7.860  15.112 -29.054  1.00  0.00    -0.624 OA
BRANCH  24  27
HETATM   27  O5  UNL     1      -8.308  16.536 -26.775  1.00  0.00    -0.180 OA
BRANCH  27  28
HETATM   28  P2  UNL     1      -7.469  17.138 -25.435  1.00  0.00     0.426 P 
HETATM   29  O6  UNL     1      -7.425  18.660 -25.599  1.00  0.00    -0.624 OA
HETATM   30  O7  UNL     1      -5.873  16.596 -25.395  1.00  0.00    -0.624 OA
BRANCH  28  31
HETATM   31  O8  UNL     1      -8.312  16.772 -24.030  1.00  0.00    -0.191 OA
BRANCH  31  32
HETATM   32  P3  UNL     1      -7.627  17.448 -22.660  1.00  0.00     0.358 P 
HETATM   33  O9  UNL     1      -5.983  17.768 -22.842  1.00  0.00    -0.635 OA
HETATM   34  O10 UNL     1      -7.803  16.378 -21.345  1.00  0.00    -0.635 OA
HETATM   35  S1  UNL     1      -8.433  18.930 -22.317  1.00  0.00     0.013 SA
ENDBRANCH  31  32
ENDBRANCH  28  31
ENDBRANCH  27  28
ENDBRANCH  24  27
ENDBRANCH  23  24
ENDBRANCH  22  23
ENDBRANCH   3  22
BRANCH   4  36
HETATM   36  O11 UNL     1      -8.148  17.109 -31.537  1.00  0.00    -0.390 OA
ATOM     37  H11 UNL     1      -8.556  16.407 -32.029  1.00  0.00     0.210 HD
ENDBRANCH   4  36
TORSDOF 10
ENDMDL
