MODEL 9
REMARK VINA RESULT: -9.983463102      3.384      5.439
REMARK  10 active torsions:
REMARK  status: ('A' for Active; 'I' for Inactive)
REMARK    1  A    between atoms: N4_10  and  C5_11 
REMARK    2  A    between atoms: C6_13  and  C7_14 
REMARK    3  A    between atoms: C7_14  and  O2_15 
REMARK    4  A    between atoms: O2_15  and  P1_16 
REMARK    5  A    between atoms: P1_16  and  O5_19 
REMARK    6  A    between atoms: O5_19  and  P2_20 
REMARK    7  A    between atoms: P2_20  and  O8_23 
REMARK    8  A    between atoms: O8_23  and  P3_24 
REMARK    9  A    between atoms: C8_28  and  O11_29 
REMARK   10  A    between atoms: C9_31  and  O12_32 
ROOT
HETATM    1  C5  UNL     1      -6.874  17.534 -32.653  1.00  0.00     0.262 C 
HETATM    2  O1  UNL     1      -6.748  17.208 -31.331  1.00  0.00    -0.353 OA
HETATM    3  C6  UNL     1      -6.011  18.160 -30.681  1.00  0.00     0.180 C 
HETATM    4  C8  UNL     1      -6.192  19.452 -31.489  1.00  0.00     0.182 C 
HETATM    5  C9  UNL     1      -6.195  18.848 -32.899  1.00  0.00     0.198 C 
ENDROOT
BRANCH   1   6
HETATM    6  N4  UNL     1      -8.245  17.506 -33.042  1.00  0.00    -0.297 N 
HETATM    7  C2  UNL     1      -9.265  18.166 -32.473  1.00  0.00     0.146 A 
HETATM    8  N2  UNL     1      -9.352  19.007 -31.432  1.00  0.00    -0.314 N 
HETATM    9  C3  UNL     1     -10.421  17.862 -33.157  1.00  0.00     0.146 A 
HETATM   10  C1  UNL     1     -10.488  19.582 -31.001  1.00  0.00     0.196 A 
ATOM     11  H2  UNL     1      -8.492  19.227 -30.930  1.00  0.00     0.170 HD
HETATM   12  N1  UNL     1     -10.528  20.468 -29.892  1.00  0.00    -0.063 NA
HETATM   13  N5  UNL     1     -11.626  19.269 -31.690  1.00  0.00    -0.295 N 
HETATM   14  C10 UNL     1     -11.623  18.435 -32.745  1.00  0.00     0.278 A 
ATOM     15  H5  UNL     1     -12.509  19.684 -31.395  1.00  0.00     0.171 HD
HETATM   16  O13 UNL     1     -12.650  18.135 -33.389  1.00  0.00    -0.265 OA
HETATM   17  N3  UNL     1     -10.078  17.016 -34.136  1.00  0.00    -0.345 N 
HETATM   18  C4  UNL     1      -8.754  16.803 -34.061  1.00  0.00     0.188 A 
ATOM     19  H3  UNL     1     -10.712  16.603 -34.820  1.00  0.00     0.167 HD
ENDBRANCH   1   6
BRANCH   5  20
HETATM   20  O12 UNL     1      -4.858  18.595 -33.210  1.00  0.00    -0.388 OA
ATOM     21  H12 UNL     1      -4.646  19.066 -34.007  1.00  0.00     0.210 HD
ENDBRANCH   5  20
BRANCH   3  22
HETATM   22  C7  UNL     1      -6.474  18.370 -29.248  1.00  0.00     0.216 C 
BRANCH  22  23
HETATM   23  O2  UNL     1      -7.651  17.641 -29.035  1.00  0.00    -0.287 OA
BRANCH  23  24
HETATM   24  P1  UNL     1      -8.161  17.757 -27.444  1.00  0.00     0.417 P 
HETATM   25  O3  UNL     1      -9.029  16.556 -27.097  1.00  0.00    -0.624 OA
HETATM   26  O4  UNL     1      -9.030  19.177 -27.150  1.00  0.00    -0.624 OA
BRANCH  24  27
HETATM   27  O5  UNL     1      -6.814  17.756 -26.446  1.00  0.00    -0.180 OA
BRANCH  27  28
HETATM   28  P2  UNL     1      -6.397  16.170 -26.028  1.00  0.00     0.426 P 
HETATM   29  O6  UNL     1      -4.895  16.182 -25.731  1.00  0.00    -0.624 OA
HETATM   30  O7  UNL     1      -6.643  15.097 -27.304  1.00  0.00    -0.624 OA
BRANCH  28  31
HETATM   31  O8  UNL     1      -7.219  15.719 -24.635  1.00  0.00    -0.191 OA
BRANCH  31  32
HETATM   32  P3  UNL     1      -7.444  16.989 -23.567  1.00  0.00     0.358 P 
HETATM   33  O9  UNL     1      -8.632  18.068 -24.078  1.00  0.00    -0.635 OA
HETATM   34  O10 UNL     1      -5.989  17.862 -23.401  1.00  0.00    -0.635 OA
HETATM   35  S1  UNL     1      -7.915  16.346 -22.041  1.00  0.00     0.013 SA
ENDBRANCH  31  32
ENDBRANCH  28  31
ENDBRANCH  27  28
ENDBRANCH  24  27
ENDBRANCH  23  24
ENDBRANCH  22  23
ENDBRANCH   3  22
BRANCH   4  36
HETATM   36  O11 UNL     1      -5.157  20.332 -31.302  1.00  0.00    -0.390 OA
ATOM     37  H11 UNL     1      -5.003  20.519 -30.384  1.00  0.00     0.210 HD
ENDBRANCH   4  36
TORSDOF 10
ENDMDL
