MODEL 5
REMARK VINA RESULT: -10.427777615      0.827      1.678
REMARK  10 active torsions:
REMARK  status: ('A' for Active; 'I' for Inactive)
REMARK    1  A    between atoms: N4_10  and  C5_11 
REMARK    2  A    between atoms: C6_13  and  C7_14 
REMARK    3  A    between atoms: C7_14  and  O2_15 
REMARK    4  A    between atoms: O2_15  and  P1_16 
REMARK    5  A    between atoms: P1_16  and  O5_19 
REMARK    6  A    between atoms: O5_19  and  P2_20 
REMARK    7  A    between atoms: P2_20  and  O8_23 
REMARK    8  A    between atoms: O8_23  and  P3_24 
REMARK    9  A    between atoms: C8_28  and  O11_29 
REMARK   10  A    between atoms: C9_31  and  O12_32 
ROOT
HETATM    1  C5  UNL     1      -4.944  18.276 -32.771  1.00  0.00     0.262 C 
HETATM    2  O1  UNL     1      -4.931  18.523 -31.427  1.00  0.00    -0.353 OA
HETATM    3  C6  UNL     1      -6.172  18.297 -30.896  1.00  0.00     0.180 C 
HETATM    4  C8  UNL     1      -6.845  17.280 -31.827  1.00  0.00     0.182 C 
HETATM    5  C9  UNL     1      -6.308  17.798 -33.168  1.00  0.00     0.198 C 
ENDROOT
BRANCH   1   6
HETATM    6  N4  UNL     1      -3.891  17.381 -33.121  1.00  0.00    -0.297 N 
HETATM    7  C2  UNL     1      -2.995  17.526 -34.110  1.00  0.00     0.146 A 
HETATM    8  N2  UNL     1      -2.791  18.475 -35.035  1.00  0.00    -0.314 N 
HETATM    9  C3  UNL     1      -2.153  16.437 -34.104  1.00  0.00     0.146 A 
HETATM   10  C1  UNL     1      -1.820  18.445 -35.964  1.00  0.00     0.196 A 
ATOM     11  H2  UNL     1      -3.419  19.278 -35.034  1.00  0.00     0.170 HD
HETATM   12  N1  UNL     1      -1.643  19.478 -36.924  1.00  0.00    -0.063 NA
HETATM   13  N5  UNL     1      -0.993  17.357 -35.944  1.00  0.00    -0.295 N 
HETATM   14  C10 UNL     1      -1.132  16.364 -35.049  1.00  0.00     0.278 A 
ATOM     15  H5  UNL     1      -0.244  17.296 -36.633  1.00  0.00     0.171 HD
HETATM   16  O13 UNL     1      -0.389  15.361 -35.012  1.00  0.00    -0.265 OA
HETATM   17  N3  UNL     1      -2.557  15.644 -33.103  1.00  0.00    -0.345 N 
HETATM   18  C4  UNL     1      -3.613  16.223 -32.510  1.00  0.00     0.188 A 
ATOM     19  H3  UNL     1      -2.136  14.753 -32.838  1.00  0.00     0.167 HD
ENDBRANCH   1   6
BRANCH   5  20
HETATM   20  O12 UNL     1      -7.085  18.914 -33.484  1.00  0.00    -0.388 OA
ATOM     21  H12 UNL     1      -7.335  18.850 -34.399  1.00  0.00     0.210 HD
ENDBRANCH   5  20
BRANCH   3  22
HETATM   22  C7  UNL     1      -6.104  17.746 -29.481  1.00  0.00     0.216 C 
BRANCH  22  23
HETATM   23  O2  UNL     1      -7.403  17.643 -28.967  1.00  0.00    -0.287 OA
BRANCH  23  24
HETATM   24  P1  UNL     1      -7.450  16.645 -27.623  1.00  0.00     0.417 P 
HETATM   25  O3  UNL     1      -6.685  15.362 -27.913  1.00  0.00    -0.624 OA
HETATM   26  O4  UNL     1      -9.031  16.260 -27.165  1.00  0.00    -0.624 OA
BRANCH  24  27
HETATM   27  O5  UNL     1      -6.715  17.433 -26.340  1.00  0.00    -0.180 OA
BRANCH  27  28
HETATM   28  P2  UNL     1      -7.839  18.404 -25.529  1.00  0.00     0.426 P 
HETATM   29  O6  UNL     1      -8.882  18.821 -26.570  1.00  0.00    -0.624 OA
HETATM   30  O7  UNL     1      -7.138  19.817 -24.935  1.00  0.00    -0.624 OA
BRANCH  28  31
HETATM   31  O8  UNL     1      -8.601  17.506 -24.333  1.00  0.00    -0.191 OA
BRANCH  31  32
HETATM   32  P3  UNL     1      -7.834  17.608 -22.848  1.00  0.00     0.358 P 
HETATM   33  O9  UNL     1      -8.316  18.953 -21.955  1.00  0.00    -0.635 OA
HETATM   34  O10 UNL     1      -6.149  17.719 -23.081  1.00  0.00    -0.635 OA
HETATM   35  S1  UNL     1      -8.205  16.194 -21.940  1.00  0.00     0.013 SA
ENDBRANCH  31  32
ENDBRANCH  28  31
ENDBRANCH  27  28
ENDBRANCH  24  27
ENDBRANCH  23  24
ENDBRANCH  22  23
ENDBRANCH   3  22
BRANCH   4  36
HETATM   36  O11 UNL     1      -8.214  17.337 -31.758  1.00  0.00    -0.390 OA
ATOM     37  H11 UNL     1      -8.622  17.267 -32.612  1.00  0.00     0.210 HD
ENDBRANCH   4  36
TORSDOF 10
ENDMDL
