MODEL 13
REMARK VINA RESULT: -9.694292971      3.291      5.557
REMARK  10 active torsions:
REMARK  status: ('A' for Active; 'I' for Inactive)
REMARK    1  A    between atoms: N4_10  and  C5_11 
REMARK    2  A    between atoms: C6_13  and  C7_14 
REMARK    3  A    between atoms: C7_14  and  O2_15 
REMARK    4  A    between atoms: O2_15  and  P1_16 
REMARK    5  A    between atoms: P1_16  and  O5_19 
REMARK    6  A    between atoms: O5_19  and  P2_20 
REMARK    7  A    between atoms: P2_20  and  O8_23 
REMARK    8  A    between atoms: O8_23  and  P3_24 
REMARK    9  A    between atoms: C8_28  and  O11_29 
REMARK   10  A    between atoms: C9_31  and  O12_32 
ROOT
HETATM    1  C5  UNL     1      -6.619  17.993 -32.833  1.00  0.00     0.262 C 
HETATM    2  O1  UNL     1      -6.984  17.520 -31.603  1.00  0.00    -0.353 OA
HETATM    3  C6  UNL     1      -6.168  18.043 -30.638  1.00  0.00     0.180 C 
HETATM    4  C8  UNL     1      -5.653  19.374 -31.202  1.00  0.00     0.182 C 
HETATM    5  C9  UNL     1      -5.482  18.956 -32.668  1.00  0.00     0.198 C 
ENDROOT
BRANCH   1   6
HETATM    6  N4  UNL     1      -7.749  18.539 -33.509  1.00  0.00    -0.297 N 
HETATM    7  C2  UNL     1      -8.790  19.186 -32.963  1.00  0.00     0.146 A 
HETATM    8  N2  UNL     1      -9.109  19.518 -31.704  1.00  0.00    -0.314 N 
HETATM    9  C3  UNL     1      -9.660  19.548 -33.967  1.00  0.00     0.146 A 
HETATM   10  C1  UNL     1     -10.221  20.183 -31.342  1.00  0.00     0.196 A 
ATOM     11  H2  UNL     1      -8.461  19.247 -30.965  1.00  0.00     0.170 HD
HETATM   12  N1  UNL     1     -10.514  20.513 -29.992  1.00  0.00    -0.063 NA
HETATM   13  N5  UNL     1     -11.073  20.533 -32.351  1.00  0.00    -0.295 N 
HETATM   14  C10 UNL     1     -10.825  20.237 -33.639  1.00  0.00     0.278 A 
ATOM     15  H5  UNL     1     -11.929  21.037 -32.119  1.00  0.00     0.171 HD
HETATM   16  O13 UNL     1     -11.590  20.547 -34.577  1.00  0.00    -0.265 OA
HETATM   17  N3  UNL     1      -9.126  19.108 -35.114  1.00  0.00    -0.345 N 
HETATM   18  C4  UNL     1      -7.965  18.497 -34.829  1.00  0.00     0.188 A 
ATOM     19  H3  UNL     1      -9.532  19.219 -36.044  1.00  0.00     0.167 HD
ENDBRANCH   1   6
BRANCH   5  20
HETATM   20  O12 UNL     1      -4.289  18.234 -32.723  1.00  0.00    -0.388 OA
ATOM     21  H12 UNL     1      -4.384  17.554 -33.380  1.00  0.00     0.210 HD
ENDBRANCH   5  20
BRANCH   3  22
HETATM   22  C7  UNL     1      -6.901  18.279 -29.327  1.00  0.00     0.216 C 
BRANCH  22  23
HETATM   23  O2  UNL     1      -6.280  17.535 -28.315  1.00  0.00    -0.287 OA
BRANCH  23  24
HETATM   24  P1  UNL     1      -7.233  16.242 -27.837  1.00  0.00     0.417 P 
HETATM   25  O3  UNL     1      -6.354  15.154 -27.239  1.00  0.00    -0.624 OA
HETATM   26  O4  UNL     1      -8.127  15.597 -29.119  1.00  0.00    -0.624 OA
BRANCH  24  27
HETATM   27  O5  UNL     1      -8.309  16.771 -26.667  1.00  0.00    -0.180 OA
BRANCH  27  28
HETATM   28  P2  UNL     1      -7.472  17.277 -25.287  1.00  0.00     0.426 P 
HETATM   29  O6  UNL     1      -7.453  18.807 -25.329  1.00  0.00    -0.624 OA
HETATM   30  O7  UNL     1      -5.868  16.759 -25.298  1.00  0.00    -0.624 OA
BRANCH  28  31
HETATM   31  O8  UNL     1      -8.301  16.786 -23.912  1.00  0.00    -0.191 OA
BRANCH  31  32
HETATM   32  P3  UNL     1      -7.575  17.297 -22.492  1.00  0.00     0.358 P 
HETATM   33  O9  UNL     1      -5.942  17.663 -22.689  1.00  0.00    -0.635 OA
HETATM   34  O10 UNL     1      -7.691  16.069 -21.316  1.00  0.00    -0.635 OA
HETATM   35  S1  UNL     1      -8.385  18.712 -21.940  1.00  0.00     0.013 SA
ENDBRANCH  31  32
ENDBRANCH  28  31
ENDBRANCH  27  28
ENDBRANCH  24  27
ENDBRANCH  23  24
ENDBRANCH  22  23
ENDBRANCH   3  22
BRANCH   4  36
HETATM   36  O11 UNL     1      -4.469  19.760 -30.629  1.00  0.00    -0.390 OA
ATOM     37  H11 UNL     1      -4.531  19.831 -29.684  1.00  0.00     0.210 HD
ENDBRANCH   4  36
TORSDOF 10
ENDMDL
