MODEL 3
REMARK VINA RESULT: -10.595994642      0.891      1.214
REMARK  10 active torsions:
REMARK  status: ('A' for Active; 'I' for Inactive)
REMARK    1  A    between atoms: N4_10  and  C5_11 
REMARK    2  A    between atoms: C6_13  and  C7_14 
REMARK    3  A    between atoms: C7_14  and  O2_15 
REMARK    4  A    between atoms: O2_15  and  P1_16 
REMARK    5  A    between atoms: P1_16  and  O5_19 
REMARK    6  A    between atoms: O5_19  and  P2_20 
REMARK    7  A    between atoms: P2_20  and  O8_23 
REMARK    8  A    between atoms: O8_23  and  P3_24 
REMARK    9  A    between atoms: C8_28  and  O11_29 
REMARK   10  A    between atoms: C9_31  and  O12_32 
ROOT
HETATM    1  C5  UNL     1      -4.875  18.470 -33.006  1.00  0.00     0.262 C 
HETATM    2  O1  UNL     1      -4.937  18.755 -31.671  1.00  0.00    -0.353 OA
HETATM    3  C6  UNL     1      -6.214  18.580 -31.212  1.00  0.00     0.180 C 
HETATM    4  C8  UNL     1      -6.860  17.557 -32.155  1.00  0.00     0.182 C 
HETATM    5  C9  UNL     1      -6.227  18.022 -33.473  1.00  0.00     0.198 C 
ENDROOT
BRANCH   1   6
HETATM    6  N4  UNL     1      -3.831  17.536 -33.266  1.00  0.00    -0.297 N 
HETATM    7  C2  UNL     1      -2.909  17.597 -34.239  1.00  0.00     0.146 A 
HETATM    8  N2  UNL     1      -2.664  18.476 -35.222  1.00  0.00    -0.314 N 
HETATM    9  C3  UNL     1      -2.087  16.497 -34.137  1.00  0.00     0.146 A 
HETATM   10  C1  UNL     1      -1.671  18.367 -36.121  1.00  0.00     0.196 A 
ATOM     11  H2  UNL     1      -3.277  19.288 -35.292  1.00  0.00     0.170 HD
HETATM   12  N1  UNL     1      -1.452  19.327 -37.145  1.00  0.00    -0.063 NA
HETATM   13  N5  UNL     1      -0.866  17.269 -36.006  1.00  0.00    -0.295 N 
HETATM   14  C10 UNL     1      -1.045  16.342 -35.049  1.00  0.00     0.278 A 
ATOM     15  H5  UNL     1      -0.101  17.148 -36.669  1.00  0.00     0.171 HD
HETATM   16  O13 UNL     1      -0.321  15.331 -34.924  1.00  0.00    -0.265 OA
HETATM   17  N3  UNL     1      -2.531  15.782 -33.096  1.00  0.00    -0.345 N 
HETATM   18  C4  UNL     1      -3.590  16.418 -32.571  1.00  0.00     0.188 A 
ATOM     19  H3  UNL     1      -2.133  14.904 -32.759  1.00  0.00     0.167 HD
ENDBRANCH   1   6
BRANCH   5  20
HETATM   20  O12 UNL     1      -6.948  19.150 -33.867  1.00  0.00    -0.388 OA
ATOM     21  H12 UNL     1      -6.903  19.215 -34.814  1.00  0.00     0.210 HD
ENDBRANCH   5  20
BRANCH   3  22
HETATM   22  C7  UNL     1      -6.249  18.067 -29.781  1.00  0.00     0.216 C 
BRANCH  22  23
HETATM   23  O2  UNL     1      -7.409  17.304 -29.596  1.00  0.00    -0.287 OA
BRANCH  23  24
HETATM   24  P1  UNL     1      -7.336  16.415 -28.178  1.00  0.00     0.417 P 
HETATM   25  O3  UNL     1      -6.671  15.074 -28.450  1.00  0.00    -0.624 OA
HETATM   26  O4  UNL     1      -8.865  16.154 -27.506  1.00  0.00    -0.624 OA
BRANCH  24  27
HETATM   27  O5  UNL     1      -6.414  17.259 -27.062  1.00  0.00    -0.180 OA
BRANCH  27  28
HETATM   28  P2  UNL     1      -6.009  16.256 -25.761  1.00  0.00     0.426 P 
HETATM   29  O6  UNL     1      -4.541  15.867 -25.956  1.00  0.00    -0.624 OA
HETATM   30  O7  UNL     1      -6.905  14.829 -25.762  1.00  0.00    -0.624 OA
BRANCH  28  31
HETATM   31  O8  UNL     1      -6.153  17.111 -24.323  1.00  0.00    -0.191 OA
BRANCH  31  32
HETATM   32  P3  UNL     1      -7.674  17.780 -24.108  1.00  0.00     0.358 P 
HETATM   33  O9  UNL     1      -8.893  16.620 -24.042  1.00  0.00    -0.635 OA
HETATM   34  O10 UNL     1      -8.026  18.827 -25.406  1.00  0.00    -0.635 OA
HETATM   35  S1  UNL     1      -7.682  18.660 -22.630  1.00  0.00     0.013 SA
ENDBRANCH  31  32
ENDBRANCH  28  31
ENDBRANCH  27  28
ENDBRANCH  24  27
ENDBRANCH  23  24
ENDBRANCH  22  23
ENDBRANCH   3  22
BRANCH   4  36
HETATM   36  O11 UNL     1      -8.228  17.656 -32.172  1.00  0.00    -0.390 OA
ATOM     37  H11 UNL     1      -8.554  18.013 -32.989  1.00  0.00     0.210 HD
ENDBRANCH   4  36
TORSDOF 10
ENDMDL
