MODEL 3
REMARK VINA RESULT: -8.437741618      6.494     11.165
REMARK  12 active torsions:
REMARK  status: ('A' for Active; 'I' for Inactive)
REMARK    1  A    between atoms: C2_2  and  C3_3 
REMARK    2  A    between atoms: C2_2  and  N2_17 
REMARK    3  A    between atoms: C3_3  and  N1_4 
REMARK    4  A    between atoms: N1_4  and  C4_6 
REMARK    5  A    between atoms: C7_9  and  O1_10 
REMARK    6  A    between atoms: O1_10  and  C8_11 
REMARK       I    between atoms: N2_17  and  C11_19 
REMARK    7  A    between atoms: C11_19  and  C12_21 
REMARK    8  A    between atoms: C12_21  and  C13_22 
REMARK    9  A    between atoms: C12_21  and  N3_33 
REMARK   10  A    between atoms: C13_22  and  S1_23 
REMARK   11  A    between atoms: S1_23  and  C14_26 
REMARK   12  A    between atoms: C14_26  and  C15_27 
REMARK       I    between atoms: N3_33  and  C21_35 
REMARK       I    between atoms: C21_35  and  N4_37 
ROOT
HETATM    1  C12 UNL     1      35.862  29.205  14.519  1.00  0.00     0.095 C 
ENDROOT
BRANCH   1   2
HETATM    2  C11 UNL     1      35.500  28.493  15.759  1.00  0.00     0.265 C 
HETATM    3  N2  UNL     1      34.513  28.931  16.669  1.00  0.00    -0.350 N 
ATOM      4  H2  UNL     1      33.995  29.790  16.482  1.00  0.00     0.163 HD
HETATM    5  O2  UNL     1      36.090  27.394  16.073  1.00  0.00    -0.266 OA
BRANCH   3   6
HETATM    6  C2  UNL     1      34.232  28.171  17.859  1.00  0.00     0.098 C 
HETATM    7  C1  UNL     1      34.164  29.042  19.103  1.00  0.00     0.034 C 
BRANCH   6   8
HETATM    8  C3  UNL     1      32.911  27.445  17.740  1.00  0.00     0.144 C 
BRANCH   8   9
HETATM    9  N1  UNL     1      32.092  27.546  18.917  1.00  0.00    -0.388 N 
ATOM     10  H1  UNL     1      32.447  28.041  19.735  1.00  0.00     0.159 HD
BRANCH   9  11
HETATM   11  C4  UNL     1      30.802  26.970  18.959  1.00  0.00     0.028 A 
HETATM   12  C5  UNL     1      29.661  27.768  19.128  1.00  0.00     0.032 A 
HETATM   13  C6  UNL     1      28.407  27.210  19.153  1.00  0.00     0.039 A 
HETATM   14  C7  UNL     1      28.200  25.863  19.015  1.00  0.00     0.078 A 
HETATM   15  C9  UNL     1      29.317  25.074  18.848  1.00  0.00     0.039 A 
HETATM   16  C10 UNL     1      30.605  25.631  18.821  1.00  0.00     0.032 A 
BRANCH  14  17
HETATM   17  O1  UNL     1      26.939  25.285  19.038  1.00  0.00    -0.255 OA
BRANCH  17  18
HETATM   18  C8  UNL     1      26.098  25.581  17.922  1.00  0.00     0.530 C 
HETATM   19  F1  UNL     1      25.142  24.563  17.866  1.00  0.00    -0.144 F 
HETATM   20  F2  UNL     1      25.436  26.781  18.121  1.00  0.00    -0.144 F 
HETATM   21  F3  UNL     1      26.810  25.669  16.759  1.00  0.00    -0.144 F 
ENDBRANCH  17  18
ENDBRANCH  14  17
ENDBRANCH   9  11
ENDBRANCH   8   9
ENDBRANCH   6   8
ENDBRANCH   3   6
ENDBRANCH   1   2
BRANCH   1  22
HETATM   22  C13 UNL     1      34.989  29.147  13.362  1.00  0.00     0.203 C 
BRANCH  22  23
HETATM   23  S1  UNL     1      33.330  29.701  13.526  1.00  0.00     0.153 S 
HETATM   24  O3  UNL     1      32.700  29.827  12.149  1.00  0.00    -0.227 OA
HETATM   25  O4  UNL     1      32.565  28.542  14.181  1.00  0.00    -0.227 OA
BRANCH  23  26
HETATM   26  C14 UNL     1      33.041  31.123  14.479  1.00  0.00     0.179 C 
BRANCH  26  27
HETATM   27  C15 UNL     1      31.704  31.024  15.189  1.00  0.00    -0.044 A 
HETATM   28  C16 UNL     1      30.514  31.195  14.513  1.00  0.00     0.008 A 
HETATM   29  C17 UNL     1      29.296  31.099  15.186  1.00  0.00     0.001 A 
HETATM   30  C18 UNL     1      29.244  30.834  16.533  1.00  0.00     0.000 A 
HETATM   31  C19 UNL     1      30.431  30.663  17.213  1.00  0.00     0.001 A 
HETATM   32  C20 UNL     1      31.628  30.759  16.539  1.00  0.00     0.008 A 
ENDBRANCH  26  27
ENDBRANCH  23  26
ENDBRANCH  22  23
ENDBRANCH   1  22
BRANCH   1  33
HETATM   33  N3  UNL     1      37.270  29.320  14.390  1.00  0.00    -0.306 N 
HETATM   34  C21 UNL     1      38.036  30.392  13.926  1.00  0.00     0.322 C 
HETATM   35  O5  UNL     1      37.412  31.427  13.560  1.00  0.00    -0.247 OA
HETATM   36  N4  UNL     1      39.451  30.401  13.837  1.00  0.00    -0.330 N 
HETATM   37  C22 UNL     1      40.164  31.549  13.336  1.00  0.00     0.153 C 
HETATM   38  C25 UNL     1      40.170  29.217  14.268  1.00  0.00     0.153 C 
HETATM   39  C23 UNL     1      41.499  31.690  14.055  1.00  0.00     0.187 C 
HETATM   40  O6  UNL     1      42.189  30.487  13.811  1.00  0.00    -0.388 OA
HETATM   41  C24 UNL     1      41.608  29.515  14.591  1.00  0.00     0.187 C 
ATOM     42  H3  UNL     1      37.802  28.499  14.678  1.00  0.00     0.170 HD
ENDBRANCH   1  33
TORSDOF 12
ENDMDL
