MODEL 1
REMARK VINA RESULT: -8.637948352      0.000      0.000
REMARK  12 active torsions:
REMARK  status: ('A' for Active; 'I' for Inactive)
REMARK    1  A    between atoms: C2_2  and  C3_3 
REMARK    2  A    between atoms: C2_2  and  N2_17 
REMARK    3  A    between atoms: C3_3  and  N1_4 
REMARK    4  A    between atoms: N1_4  and  C4_6 
REMARK    5  A    between atoms: C7_9  and  O1_10 
REMARK    6  A    between atoms: O1_10  and  C8_11 
REMARK       I    between atoms: N2_17  and  C11_19 
REMARK    7  A    between atoms: C11_19  and  C12_21 
REMARK    8  A    between atoms: C12_21  and  C13_22 
REMARK    9  A    between atoms: C12_21  and  N3_33 
REMARK   10  A    between atoms: C13_22  and  S1_23 
REMARK   11  A    between atoms: S1_23  and  C14_26 
REMARK   12  A    between atoms: C14_26  and  C15_27 
REMARK       I    between atoms: N3_33  and  C21_35 
REMARK       I    between atoms: C21_35  and  N4_37 
ROOT
HETATM    1  C12 UNL     1      35.265  28.637  15.316  1.00  0.00     0.095 C 
ENDROOT
BRANCH   1   2
HETATM    2  C11 UNL     1      36.650  28.445  14.845  1.00  0.00     0.265 C 
HETATM    3  N2  UNL     1      37.515  29.495  14.469  1.00  0.00    -0.350 N 
ATOM      4  H2  UNL     1      37.192  30.461  14.519  1.00  0.00     0.163 HD
HETATM    5  O2  UNL     1      37.149  27.262  14.762  1.00  0.00    -0.266 OA
BRANCH   3   6
HETATM    6  C2  UNL     1      38.852  29.209  14.016  1.00  0.00     0.098 C 
HETATM    7  C1  UNL     1      39.002  29.366  12.512  1.00  0.00     0.034 C 
BRANCH   6   8
HETATM    8  C3  UNL     1      39.856  30.130  14.671  1.00  0.00     0.144 C 
BRANCH   8   9
HETATM    9  N1  UNL     1      41.018  30.382  13.864  1.00  0.00    -0.388 N 
ATOM     10  H1  UNL     1      40.900  30.681  12.896  1.00  0.00     0.159 HD
BRANCH   9  11
HETATM   11  C4  UNL     1      42.319  30.221  14.389  1.00  0.00     0.028 A 
HETATM   12  C5  UNL     1      43.414  29.980  13.544  1.00  0.00     0.032 A 
HETATM   13  C6  UNL     1      44.680  29.839  14.053  1.00  0.00     0.039 A 
HETATM   14  C7  UNL     1      44.947  29.926  15.395  1.00  0.00     0.078 A 
HETATM   15  C9  UNL     1      43.876  30.163  16.229  1.00  0.00     0.039 A 
HETATM   16  C10 UNL     1      42.576  30.308  15.722  1.00  0.00     0.032 A 
BRANCH  14  17
HETATM   17  O1  UNL     1      46.222  29.786  15.924  1.00  0.00    -0.255 OA
BRANCH  17  18
HETATM   18  C8  UNL     1      47.022  30.969  15.940  1.00  0.00     0.530 C 
HETATM   19  F1  UNL     1      47.829  30.917  14.801  1.00  0.00    -0.144 F 
HETATM   20  F2  UNL     1      46.221  32.095  15.848  1.00  0.00    -0.144 F 
HETATM   21  F3  UNL     1      47.767  31.063  17.083  1.00  0.00    -0.144 F 
ENDBRANCH  17  18
ENDBRANCH  14  17
ENDBRANCH   9  11
ENDBRANCH   8   9
ENDBRANCH   6   8
ENDBRANCH   3   6
ENDBRANCH   1   2
BRANCH   1  22
HETATM   22  C13 UNL     1      34.892  28.257  16.665  1.00  0.00     0.203 C 
BRANCH  22  23
HETATM   23  S1  UNL     1      33.325  28.756  17.282  1.00  0.00     0.153 S 
HETATM   24  O3  UNL     1      33.208  30.269  17.203  1.00  0.00    -0.227 OA
HETATM   25  O4  UNL     1      32.294  28.249  16.264  1.00  0.00    -0.227 OA
BRANCH  23  26
HETATM   26  C14 UNL     1      32.847  28.173  18.846  1.00  0.00     0.179 C 
BRANCH  26  27
HETATM   27  C15 UNL     1      31.368  27.836  18.857  1.00  0.00    -0.044 A 
HETATM   28  C16 UNL     1      30.404  28.822  18.870  1.00  0.00     0.008 A 
HETATM   29  C17 UNL     1      29.049  28.489  18.880  1.00  0.00     0.001 A 
HETATM   30  C18 UNL     1      28.636  27.180  18.878  1.00  0.00     0.000 A 
HETATM   31  C19 UNL     1      29.596  26.190  18.866  1.00  0.00     0.001 A 
HETATM   32  C20 UNL     1      30.931  26.530  18.855  1.00  0.00     0.008 A 
ENDBRANCH  26  27
ENDBRANCH  23  26
ENDBRANCH  22  23
ENDBRANCH   1  22
BRANCH   1  33
HETATM   33  N3  UNL     1      34.346  28.568  14.237  1.00  0.00    -0.306 N 
HETATM   34  C21 UNL     1      34.037  29.527  13.270  1.00  0.00     0.322 C 
HETATM   35  O5  UNL     1      34.649  30.629  13.339  1.00  0.00    -0.247 OA
HETATM   36  N4  UNL     1      33.093  29.353  12.227  1.00  0.00    -0.330 N 
HETATM   37  C22 UNL     1      32.826  30.401  11.273  1.00  0.00     0.153 C 
HETATM   38  C25 UNL     1      32.397  28.083  12.140  1.00  0.00     0.153 C 
HETATM   39  C23 UNL     1      32.508  29.800   9.911  1.00  0.00     0.187 C 
HETATM   40  O6  UNL     1      31.390  28.969  10.116  1.00  0.00    -0.388 OA
HETATM   41  C24 UNL     1      31.829  27.842  10.768  1.00  0.00     0.187 C 
ATOM     42  H3  UNL     1      33.836  27.688  14.156  1.00  0.00     0.170 HD
ENDBRANCH   1  33
TORSDOF 12
ENDMDL
