MODEL 6
REMARK VINA RESULT: -8.346532258      1.460      2.014
REMARK  12 active torsions:
REMARK  status: ('A' for Active; 'I' for Inactive)
REMARK    1  A    between atoms: C2_2  and  C3_3 
REMARK    2  A    between atoms: C2_2  and  N2_17 
REMARK    3  A    between atoms: C3_3  and  N1_4 
REMARK    4  A    between atoms: N1_4  and  C4_6 
REMARK    5  A    between atoms: C7_9  and  O1_10 
REMARK    6  A    between atoms: O1_10  and  C8_11 
REMARK       I    between atoms: N2_17  and  C11_19 
REMARK    7  A    between atoms: C11_19  and  C12_21 
REMARK    8  A    between atoms: C12_21  and  C13_22 
REMARK    9  A    between atoms: C12_21  and  N3_33 
REMARK   10  A    between atoms: C13_22  and  S1_23 
REMARK   11  A    between atoms: S1_23  and  C14_26 
REMARK   12  A    between atoms: C14_26  and  C15_27 
REMARK       I    between atoms: N3_33  and  C21_35 
REMARK       I    between atoms: C21_35  and  N4_37 
ROOT
HETATM    1  C12 UNL     1      35.574  28.901  15.093  1.00  0.00     0.095 C 
ENDROOT
BRANCH   1   2
HETATM    2  C11 UNL     1      36.838  29.294  14.442  1.00  0.00     0.265 C 
HETATM    3  N2  UNL     1      37.101  30.582  13.927  1.00  0.00    -0.350 N 
ATOM      4  H2  UNL     1      36.392  31.312  13.998  1.00  0.00     0.163 HD
HETATM    5  O2  UNL     1      37.796  28.445  14.318  1.00  0.00    -0.266 OA
BRANCH   3   6
HETATM    6  C2  UNL     1      38.366  30.871  13.303  1.00  0.00     0.098 C 
HETATM    7  C1  UNL     1      38.236  31.102  11.806  1.00  0.00     0.034 C 
BRANCH   6   8
HETATM    8  C3  UNL     1      38.996  32.109  13.900  1.00  0.00     0.144 C 
BRANCH   8   9
HETATM    9  N1  UNL     1      39.475  31.920  15.241  1.00  0.00    -0.388 N 
ATOM     10  H1  UNL     1      38.903  32.233  16.027  1.00  0.00     0.159 HD
BRANCH   9  11
HETATM   11  C4  UNL     1      40.724  31.311  15.491  1.00  0.00     0.028 A 
HETATM   12  C5  UNL     1      41.850  32.080  15.821  1.00  0.00     0.032 A 
HETATM   13  C6  UNL     1      43.060  31.486  16.079  1.00  0.00     0.039 A 
HETATM   14  C7  UNL     1      43.237  30.129  16.029  1.00  0.00     0.078 A 
HETATM   15  C9  UNL     1      42.135  29.367  15.706  1.00  0.00     0.039 A 
HETATM   16  C10 UNL     1      40.892  29.962  15.440  1.00  0.00     0.032 A 
BRANCH  14  17
HETATM   17  O1  UNL     1      44.454  29.514  16.287  1.00  0.00    -0.255 OA
BRANCH  17  18
HETATM   18  C8  UNL     1      45.550  29.936  15.473  1.00  0.00     0.530 C 
HETATM   19  F1  UNL     1      46.046  31.106  16.053  1.00  0.00    -0.144 F 
HETATM   20  F2  UNL     1      46.558  28.986  15.491  1.00  0.00    -0.144 F 
HETATM   21  F3  UNL     1      45.170  30.137  14.175  1.00  0.00    -0.144 F 
ENDBRANCH  17  18
ENDBRANCH  14  17
ENDBRANCH   9  11
ENDBRANCH   8   9
ENDBRANCH   6   8
ENDBRANCH   3   6
ENDBRANCH   1   2
BRANCH   1  22
HETATM   22  C13 UNL     1      35.593  28.166  16.342  1.00  0.00     0.203 C 
BRANCH  22  23
HETATM   23  S1  UNL     1      34.326  28.469  17.521  1.00  0.00     0.153 S 
HETATM   24  O3  UNL     1      34.939  28.584  18.906  1.00  0.00    -0.227 OA
HETATM   25  O4  UNL     1      33.807  29.883  17.223  1.00  0.00    -0.227 OA
BRANCH  23  26
HETATM   26  C14 UNL     1      32.957  27.401  17.530  1.00  0.00     0.179 C 
BRANCH  26  27
HETATM   27  C15 UNL     1      31.696  28.157  17.906  1.00  0.00    -0.044 A 
HETATM   28  C16 UNL     1      31.011  27.883  19.071  1.00  0.00     0.008 A 
HETATM   29  C17 UNL     1      29.854  28.592  19.397  1.00  0.00     0.001 A 
HETATM   30  C18 UNL     1      29.365  29.576  18.573  1.00  0.00     0.000 A 
HETATM   31  C19 UNL     1      30.045  29.852  17.407  1.00  0.00     0.001 A 
HETATM   32  C20 UNL     1      31.187  29.148  17.095  1.00  0.00     0.008 A 
ENDBRANCH  26  27
ENDBRANCH  23  26
ENDBRANCH  22  23
ENDBRANCH   1  22
BRANCH   1  33
HETATM   33  N3  UNL     1      34.541  28.725  14.135  1.00  0.00    -0.306 N 
HETATM   34  C21 UNL     1      33.695  29.673  13.556  1.00  0.00     0.322 C 
HETATM   35  O5  UNL     1      33.846  30.874  13.916  1.00  0.00    -0.247 OA
HETATM   36  N4  UNL     1      32.687  29.386  12.601  1.00  0.00    -0.330 N 
HETATM   37  C22 UNL     1      31.848  30.426  12.059  1.00  0.00     0.153 C 
HETATM   38  C25 UNL     1      32.520  28.008  12.178  1.00  0.00     0.153 C 
HETATM   39  C23 UNL     1      31.498  30.113  10.611  1.00  0.00     0.187 C 
HETATM   40  O6  UNL     1      30.846  28.865  10.640  1.00  0.00    -0.388 OA
HETATM   41  C24 UNL     1      31.806  27.905  10.857  1.00  0.00     0.187 C 
ATOM     42  H3  UNL     1      34.395  27.764  13.825  1.00  0.00     0.170 HD
ENDBRANCH   1  33
TORSDOF 12
ENDMDL
