MODEL 2
REMARK VINA RESULT: -8.453473463      6.368     11.499
REMARK  12 active torsions:
REMARK  status: ('A' for Active; 'I' for Inactive)
REMARK    1  A    between atoms: C2_2  and  C3_3 
REMARK    2  A    between atoms: C2_2  and  N2_17 
REMARK    3  A    between atoms: C3_3  and  N1_4 
REMARK    4  A    between atoms: N1_4  and  C4_6 
REMARK    5  A    between atoms: C7_9  and  O1_10 
REMARK    6  A    between atoms: O1_10  and  C8_11 
REMARK       I    between atoms: N2_17  and  C11_19 
REMARK    7  A    between atoms: C11_19  and  C12_21 
REMARK    8  A    between atoms: C12_21  and  C13_22 
REMARK    9  A    between atoms: C12_21  and  N3_33 
REMARK   10  A    between atoms: C13_22  and  S1_23 
REMARK   11  A    between atoms: S1_23  and  C14_26 
REMARK   12  A    between atoms: C14_26  and  C15_27 
REMARK       I    between atoms: N3_33  and  C21_35 
REMARK       I    between atoms: C21_35  and  N4_37 
ROOT
HETATM    1  C12 UNL     1      35.933  29.355  14.716  1.00  0.00     0.095 C 
ENDROOT
BRANCH   1   2
HETATM    2  C11 UNL     1      35.550  28.523  15.872  1.00  0.00     0.265 C 
HETATM    3  N2  UNL     1      34.552  28.872  16.807  1.00  0.00    -0.350 N 
ATOM      4  H2  UNL     1      34.042  29.749  16.702  1.00  0.00     0.163 HD
HETATM    5  O2  UNL     1      36.129  27.393  16.079  1.00  0.00    -0.266 OA
BRANCH   3   6
HETATM    6  C2  UNL     1      34.250  27.996  17.910  1.00  0.00     0.098 C 
HETATM    7  C1  UNL     1      34.272  28.717  19.248  1.00  0.00     0.034 C 
BRANCH   6   8
HETATM    8  C3  UNL     1      32.881  27.375  17.751  1.00  0.00     0.144 C 
BRANCH   8   9
HETATM    9  N1  UNL     1      32.083  27.429  18.945  1.00  0.00    -0.388 N 
ATOM     10  H1  UNL     1      32.460  27.875  19.781  1.00  0.00     0.159 HD
BRANCH   9  11
HETATM   11  C4  UNL     1      30.785  26.872  18.979  1.00  0.00     0.028 A 
HETATM   12  C5  UNL     1      29.656  27.684  19.164  1.00  0.00     0.032 A 
HETATM   13  C6  UNL     1      28.394  27.145  19.182  1.00  0.00     0.039 A 
HETATM   14  C7  UNL     1      28.166  25.803  19.023  1.00  0.00     0.078 A 
HETATM   15  C9  UNL     1      29.271  25.000  18.841  1.00  0.00     0.039 A 
HETATM   16  C10 UNL     1      30.567  25.539  18.820  1.00  0.00     0.032 A 
BRANCH  14  17
HETATM   17  O1  UNL     1      26.896  25.244  19.038  1.00  0.00    -0.255 OA
BRANCH  17  18
HETATM   18  C8  UNL     1      26.065  25.556  17.919  1.00  0.00     0.530 C 
HETATM   19  F1  UNL     1      25.102  24.545  17.849  1.00  0.00    -0.144 F 
HETATM   20  F2  UNL     1      25.411  26.759  18.123  1.00  0.00    -0.144 F 
HETATM   21  F3  UNL     1      26.786  25.648  16.761  1.00  0.00    -0.144 F 
ENDBRANCH  17  18
ENDBRANCH  14  17
ENDBRANCH   9  11
ENDBRANCH   8   9
ENDBRANCH   6   8
ENDBRANCH   3   6
ENDBRANCH   1   2
BRANCH   1  22
HETATM   22  C13 UNL     1      35.019  29.525  13.602  1.00  0.00     0.203 C 
BRANCH  22  23
HETATM   23  S1  UNL     1      33.705  30.681  13.756  1.00  0.00     0.153 S 
HETATM   24  O3  UNL     1      33.905  31.511  15.012  1.00  0.00    -0.227 OA
HETATM   25  O4  UNL     1      33.896  31.685  12.610  1.00  0.00    -0.227 OA
BRANCH  23  26
HETATM   26  C14 UNL     1      32.080  30.077  13.656  1.00  0.00     0.179 C 
BRANCH  26  27
HETATM   27  C15 UNL     1      31.867  29.339  12.348  1.00  0.00    -0.044 A 
HETATM   28  C16 UNL     1      31.108  29.878  11.331  1.00  0.00     0.008 A 
HETATM   29  C17 UNL     1      30.925  29.181  10.137  1.00  0.00     0.001 A 
HETATM   30  C18 UNL     1      31.492  27.945   9.938  1.00  0.00     0.000 A 
HETATM   31  C19 UNL     1      32.251  27.402  10.952  1.00  0.00     0.001 A 
HETATM   32  C20 UNL     1      32.425  28.099  12.127  1.00  0.00     0.008 A 
ENDBRANCH  26  27
ENDBRANCH  23  26
ENDBRANCH  22  23
ENDBRANCH   1  22
BRANCH   1  33
HETATM   33  N3  UNL     1      37.341  29.362  14.537  1.00  0.00    -0.306 N 
HETATM   34  C21 UNL     1      38.156  30.323  13.936  1.00  0.00     0.322 C 
HETATM   35  O5  UNL     1      37.587  31.351  13.474  1.00  0.00    -0.247 OA
HETATM   36  N4  UNL     1      39.565  30.228  13.809  1.00  0.00    -0.330 N 
HETATM   37  C22 UNL     1      40.332  31.265  13.164  1.00  0.00     0.153 C 
HETATM   38  C25 UNL     1      40.222  29.053  14.350  1.00  0.00     0.153 C 
HETATM   39  C23 UNL     1      41.697  31.394  13.827  1.00  0.00     0.187 C 
HETATM   40  O6  UNL     1      42.300  30.128  13.700  1.00  0.00    -0.388 OA
HETATM   41  C24 UNL     1      41.687  29.288  14.599  1.00  0.00     0.187 C 
ATOM     42  H3  UNL     1      37.829  28.543  14.901  1.00  0.00     0.170 HD
ENDBRANCH   1  33
TORSDOF 12
ENDMDL
