MODEL 4
REMARK VINA RESULT: -8.391097214      6.176     11.212
REMARK  12 active torsions:
REMARK  status: ('A' for Active; 'I' for Inactive)
REMARK    1  A    between atoms: C2_2  and  C3_3 
REMARK    2  A    between atoms: C2_2  and  N2_17 
REMARK    3  A    between atoms: C3_3  and  N1_4 
REMARK    4  A    between atoms: N1_4  and  C4_6 
REMARK    5  A    between atoms: C7_9  and  O1_10 
REMARK    6  A    between atoms: O1_10  and  C8_11 
REMARK       I    between atoms: N2_17  and  C11_19 
REMARK    7  A    between atoms: C11_19  and  C12_21 
REMARK    8  A    between atoms: C12_21  and  C13_22 
REMARK    9  A    between atoms: C12_21  and  N3_33 
REMARK   10  A    between atoms: C13_22  and  S1_23 
REMARK   11  A    between atoms: S1_23  and  C14_26 
REMARK   12  A    between atoms: C14_26  and  C15_27 
REMARK       I    between atoms: N3_33  and  C21_35 
REMARK       I    between atoms: C21_35  and  N4_37 
ROOT
HETATM    1  C12 UNL     1      36.786  30.249  13.602  1.00  0.00     0.095 C 
ENDROOT
BRANCH   1   2
HETATM    2  C11 UNL     1      35.915  29.330  14.359  1.00  0.00     0.265 C 
HETATM    3  N2  UNL     1      35.737  29.375  15.759  1.00  0.00    -0.350 N 
ATOM      4  H2  UNL     1      36.226  30.080  16.310  1.00  0.00     0.163 HD
HETATM    5  O2  UNL     1      35.248  28.415  13.748  1.00  0.00    -0.266 OA
BRANCH   3   6
HETATM    6  C2  UNL     1      34.869  28.430  16.412  1.00  0.00     0.098 C 
HETATM    7  C1  UNL     1      35.638  27.343  17.145  1.00  0.00     0.034 C 
BRANCH   6   8
HETATM    8  C3  UNL     1      33.981  29.119  17.424  1.00  0.00     0.144 C 
BRANCH   8   9
HETATM    9  N1  UNL     1      32.592  29.134  17.056  1.00  0.00    -0.388 N 
ATOM     10  H1  UNL     1      32.295  29.670  16.241  1.00  0.00     0.159 HD
BRANCH   9  11
HETATM   11  C4  UNL     1      31.632  28.417  17.804  1.00  0.00     0.028 A 
HETATM   12  C5  UNL     1      30.474  29.048  18.285  1.00  0.00     0.032 A 
HETATM   13  C6  UNL     1      29.533  28.348  18.998  1.00  0.00     0.039 A 
HETATM   14  C7  UNL     1      29.667  27.014  19.278  1.00  0.00     0.078 A 
HETATM   15  C9  UNL     1      30.802  26.388  18.809  1.00  0.00     0.039 A 
HETATM   16  C10 UNL     1      31.772  27.092  18.078  1.00  0.00     0.032 A 
BRANCH  14  17
HETATM   17  O1  UNL     1      28.725  26.293  19.998  1.00  0.00    -0.255 OA
BRANCH  17  18
HETATM   18  C8  UNL     1      27.469  26.089  19.349  1.00  0.00     0.530 C 
HETATM   19  F1  UNL     1      26.873  24.993  19.978  1.00  0.00    -0.144 F 
HETATM   20  F2  UNL     1      26.646  27.188  19.532  1.00  0.00    -0.144 F 
HETATM   21  F3  UNL     1      27.619  25.882  18.006  1.00  0.00    -0.144 F 
ENDBRANCH  17  18
ENDBRANCH  14  17
ENDBRANCH   9  11
ENDBRANCH   8   9
ENDBRANCH   6   8
ENDBRANCH   3   6
ENDBRANCH   1   2
BRANCH   1  22
HETATM   22  C13 UNL     1      36.654  30.360  12.162  1.00  0.00     0.203 C 
BRANCH  22  23
HETATM   23  S1  UNL     1      35.793  31.738  11.495  1.00  0.00     0.153 S 
HETATM   24  O3  UNL     1      35.398  32.681  12.619  1.00  0.00    -0.227 OA
HETATM   25  O4  UNL     1      36.832  32.531  10.690  1.00  0.00    -0.227 OA
BRANCH  23  26
HETATM   26  C14 UNL     1      34.448  31.421  10.444  1.00  0.00     0.179 C 
BRANCH  26  27
HETATM   27  C15 UNL     1      33.666  30.215  10.931  1.00  0.00    -0.044 A 
HETATM   28  C16 UNL     1      33.714  29.008  10.265  1.00  0.00     0.008 A 
HETATM   29  C17 UNL     1      32.987  27.913  10.731  1.00  0.00     0.001 A 
HETATM   30  C18 UNL     1      32.208  28.001  11.858  1.00  0.00     0.000 A 
HETATM   31  C19 UNL     1      32.156  29.204  12.527  1.00  0.00     0.001 A 
HETATM   32  C20 UNL     1      32.879  30.280  12.059  1.00  0.00     0.008 A 
ENDBRANCH  26  27
ENDBRANCH  23  26
ENDBRANCH  22  23
ENDBRANCH   1  22
BRANCH   1  33
HETATM   33  N3  UNL     1      38.032  30.425  14.256  1.00  0.00    -0.306 N 
HETATM   34  C21 UNL     1      39.177  29.625  14.220  1.00  0.00     0.322 C 
HETATM   35  O5  UNL     1      39.126  28.583  13.508  1.00  0.00    -0.247 OA
HETATM   36  N4  UNL     1      40.379  29.895  14.920  1.00  0.00    -0.330 N 
HETATM   37  C22 UNL     1      41.514  29.009  14.835  1.00  0.00     0.153 C 
HETATM   38  C25 UNL     1      40.443  31.098  15.729  1.00  0.00     0.153 C 
HETATM   39  C23 UNL     1      42.808  29.807  14.909  1.00  0.00     0.187 C 
HETATM   40  O6  UNL     1      42.759  30.492  16.139  1.00  0.00    -0.388 OA
HETATM   41  C24 UNL     1      41.860  31.523  16.000  1.00  0.00     0.187 C 
ATOM     42  H3  UNL     1      38.104  31.259  14.840  1.00  0.00     0.170 HD
ENDBRANCH   1  33
TORSDOF 12
ENDMDL
