MODEL 7
REMARK VINA RESULT: -13.254811428      0.731      6.073
REMARK  1 active torsions:
REMARK  status: ('A' for Active; 'I' for Inactive)
REMARK    1  A    between atoms: C3_4  and  C4_5 
ROOT
HETATM    1  O1  UNL     1       1.143  20.467  18.505  1.00  0.00    -0.287 OA
HETATM    2  C1  UNL     1       1.850  19.740  19.218  1.00  0.00     0.187 A 
HETATM    3  C2  UNL     1       1.513  18.432  19.550  1.00  0.00     0.093 A 
HETATM    4  C3  UNL     1       2.315  17.652  20.340  1.00  0.00     0.090 A 
HETATM    5  O2  UNL     1       3.440  18.184  20.790  1.00  0.00    -0.308 OA
HETATM    6  C10 UNL     1       3.835  19.400  20.531  1.00  0.00     0.101 A 
HETATM    7  C11 UNL     1       3.048  20.204  19.739  1.00  0.00     0.049 A 
HETATM    8  C12 UNL     1       3.491  21.495  19.477  1.00  0.00     0.019 A 
HETATM    9  C13 UNL     1       4.684  21.940  20.001  1.00  0.00     0.013 A 
HETATM   10  C14 UNL     1       5.489  21.152  20.797  1.00  0.00    -0.023 A 
HETATM   11  C15 UNL     1       6.675  21.658  21.293  1.00  0.00     0.012 A 
HETATM   12  C16 UNL     1       7.432  20.816  22.083  1.00  0.00     0.001 A 
HETATM   13  C17 UNL     1       7.006  19.515  22.359  1.00  0.00     0.001 A 
HETATM   14  C18 UNL     1       5.819  19.042  21.848  1.00  0.00     0.015 A 
HETATM   15  C19 UNL     1       5.041  19.872  21.053  1.00  0.00     0.009 A 
ENDROOT
BRANCH   4  16
HETATM   16  C4  UNL     1       1.974  16.260  20.705  1.00  0.00    -0.002 A 
HETATM   17  C5  UNL     1       2.755  15.577  21.616  1.00  0.00     0.014 A 
HETATM   18  C6  UNL     1       2.456  14.281  21.969  1.00  0.00     0.001 A 
HETATM   19  C7  UNL     1       1.370  13.633  21.419  1.00  0.00     0.000 A 
HETATM   20  C8  UNL     1       0.574  14.290  20.507  1.00  0.00     0.001 A 
HETATM   21  C9  UNL     1       0.901  15.601  20.170  1.00  0.00     0.014 A 
ENDBRANCH   4  16
TORSDOF 1
ENDMDL
