MODEL 4
REMARK VINA RESULT: -14.411470790      1.293      3.440
REMARK  1 active torsions:
REMARK  status: ('A' for Active; 'I' for Inactive)
REMARK    1  A    between atoms: C3_4  and  C4_5 
ROOT
HETATM    1  O1  UNL     1       3.300  14.984  22.232  1.00  0.00    -0.287 OA
HETATM    2  C1  UNL     1       3.203  16.054  21.612  1.00  0.00     0.187 A 
HETATM    3  C2  UNL     1       4.108  17.101  21.747  1.00  0.00     0.093 A 
HETATM    4  C3  UNL     1       3.975  18.271  21.048  1.00  0.00     0.090 A 
HETATM    5  O2  UNL     1       2.944  18.384  20.226  1.00  0.00    -0.308 OA
HETATM    6  C10 UNL     1       2.047  17.455  20.037  1.00  0.00     0.101 A 
HETATM    7  C11 UNL     1       2.158  16.269  20.727  1.00  0.00     0.049 A 
HETATM    8  C12 UNL     1       1.192  15.296  20.508  1.00  0.00     0.019 A 
HETATM    9  C13 UNL     1       0.160  15.526  19.624  1.00  0.00     0.013 A 
HETATM   10  C14 UNL     1       0.030  16.706  18.922  1.00  0.00    -0.023 A 
HETATM   11  C15 UNL     1      -1.029  16.875  18.050  1.00  0.00     0.012 A 
HETATM   12  C16 UNL     1      -1.099  18.080  17.380  1.00  0.00     0.001 A 
HETATM   13  C17 UNL     1      -0.138  19.074  17.584  1.00  0.00     0.001 A 
HETATM   14  C18 UNL     1       0.904  18.871  18.461  1.00  0.00     0.015 A 
HETATM   15  C19 UNL     1       0.994  17.668  19.146  1.00  0.00     0.009 A 
ENDROOT
BRANCH   4  16
HETATM   16  C4  UNL     1       4.925  19.398  21.177  1.00  0.00    -0.002 A 
HETATM   17  C5  UNL     1       4.697  20.572  20.488  1.00  0.00     0.014 A 
HETATM   18  C6  UNL     1       5.569  21.632  20.594  1.00  0.00     0.001 A 
HETATM   19  C7  UNL     1       6.692  21.544  21.390  1.00  0.00     0.000 A 
HETATM   20  C8  UNL     1       6.945  20.384  22.089  1.00  0.00     0.001 A 
HETATM   21  C9  UNL     1       6.044  19.329  21.962  1.00  0.00     0.014 A 
ENDBRANCH   4  16
TORSDOF 1
ENDMDL
