MODEL 3
REMARK VINA RESULT: -14.434745668      1.292      3.575
REMARK  1 active torsions:
REMARK  status: ('A' for Active; 'I' for Inactive)
REMARK    1  A    between atoms: C3_4  and  C4_5 
ROOT
HETATM    1  O1  UNL     1       3.299  15.000  22.231  1.00  0.00    -0.287 OA
HETATM    2  C1  UNL     1       3.199  16.067  21.607  1.00  0.00     0.187 A 
HETATM    3  C2  UNL     1       4.101  17.117  21.737  1.00  0.00     0.093 A 
HETATM    4  C3  UNL     1       3.964  18.284  21.034  1.00  0.00     0.090 A 
HETATM    5  O2  UNL     1       2.933  18.392  20.213  1.00  0.00    -0.308 OA
HETATM    6  C10 UNL     1       2.038  17.459  20.028  1.00  0.00     0.101 A 
HETATM    7  C11 UNL     1       2.153  16.276  20.722  1.00  0.00     0.049 A 
HETATM    8  C12 UNL     1       1.188  15.300  20.508  1.00  0.00     0.019 A 
HETATM    9  C13 UNL     1       0.156  15.524  19.625  1.00  0.00     0.013 A 
HETATM   10  C14 UNL     1       0.021  16.702  18.919  1.00  0.00    -0.023 A 
HETATM   11  C15 UNL     1      -1.039  16.865  18.047  1.00  0.00     0.012 A 
HETATM   12  C16 UNL     1      -1.113  18.067  17.374  1.00  0.00     0.001 A 
HETATM   13  C17 UNL     1      -0.154  19.064  17.573  1.00  0.00     0.001 A 
HETATM   14  C18 UNL     1       0.889  18.867  18.449  1.00  0.00     0.015 A 
HETATM   15  C19 UNL     1       0.983  17.666  19.138  1.00  0.00     0.009 A 
ENDROOT
BRANCH   4  16
HETATM   16  C4  UNL     1       4.912  19.414  21.158  1.00  0.00    -0.002 A 
HETATM   17  C5  UNL     1       6.026  19.291  21.965  1.00  0.00     0.014 A 
HETATM   18  C6  UNL     1       6.919  20.330  22.094  1.00  0.00     0.001 A 
HETATM   19  C7  UNL     1       6.722  21.518  21.422  1.00  0.00     0.000 A 
HETATM   20  C8  UNL     1       5.619  21.668  20.611  1.00  0.00     0.001 A 
HETATM   21  C9  UNL     1       4.732  20.599  20.499  1.00  0.00     0.014 A 
ENDBRANCH   4  16
TORSDOF 1
ENDMDL
