MODEL 6
REMARK VINA RESULT: -13.388969372      1.524      6.515
REMARK  1 active torsions:
REMARK  status: ('A' for Active; 'I' for Inactive)
REMARK    1  A    between atoms: C3_4  and  C4_5 
ROOT
HETATM    1  O1  UNL     1       3.260  15.398  21.992  1.00  0.00    -0.287 OA
HETATM    2  C1  UNL     1       3.089  16.437  21.339  1.00  0.00     0.187 A 
HETATM    3  C2  UNL     1       2.018  16.631  20.473  1.00  0.00     0.093 A 
HETATM    4  C3  UNL     1       1.856  17.791  19.765  1.00  0.00     0.090 A 
HETATM    5  O2  UNL     1       2.761  18.743  19.926  1.00  0.00    -0.308 OA
HETATM    6  C10 UNL     1       3.797  18.649  20.714  1.00  0.00     0.101 A 
HETATM    7  C11 UNL     1       3.983  17.493  21.438  1.00  0.00     0.049 A 
HETATM    8  C12 UNL     1       5.092  17.418  22.271  1.00  0.00     0.019 A 
HETATM    9  C13 UNL     1       5.969  18.476  22.358  1.00  0.00     0.013 A 
HETATM   10  C14 UNL     1       5.802  19.643  21.642  1.00  0.00    -0.023 A 
HETATM   11  C15 UNL     1       6.719  20.669  21.774  1.00  0.00     0.012 A 
HETATM   12  C16 UNL     1       6.492  21.808  21.029  1.00  0.00     0.001 A 
HETATM   13  C17 UNL     1       5.383  21.907  20.185  1.00  0.00     0.001 A 
HETATM   14  C18 UNL     1       4.489  20.865  20.078  1.00  0.00     0.015 A 
HETATM   15  C19 UNL     1       4.698  19.709  20.818  1.00  0.00     0.009 A 
ENDROOT
BRANCH   4  16
HETATM   16  C4  UNL     1       0.724  18.016  18.839  1.00  0.00    -0.002 A 
HETATM   17  C5  UNL     1      -0.401  17.221  18.922  1.00  0.00     0.014 A 
HETATM   18  C6  UNL     1      -1.465  17.414  18.070  1.00  0.00     0.001 A 
HETATM   19  C7  UNL     1      -1.429  18.405  17.112  1.00  0.00     0.000 A 
HETATM   20  C8  UNL     1      -0.319  19.213  17.005  1.00  0.00     0.001 A 
HETATM   21  C9  UNL     1       0.742  18.994  17.882  1.00  0.00     0.014 A 
ENDBRANCH   4  16
TORSDOF 1
ENDMDL
