MODEL 5
REMARK VINA RESULT: -13.397039414      1.519      6.445
REMARK  1 active torsions:
REMARK  status: ('A' for Active; 'I' for Inactive)
REMARK    1  A    between atoms: C3_4  and  C4_5 
ROOT
HETATM    1  O1  UNL     1       3.229  15.392  21.973  1.00  0.00    -0.287 OA
HETATM    2  C1  UNL     1       3.059  16.434  21.322  1.00  0.00     0.187 A 
HETATM    3  C2  UNL     1       1.987  16.631  20.459  1.00  0.00     0.093 A 
HETATM    4  C3  UNL     1       1.826  17.793  19.753  1.00  0.00     0.090 A 
HETATM    5  O2  UNL     1       2.733  18.742  19.914  1.00  0.00    -0.308 OA
HETATM    6  C10 UNL     1       3.770  18.645  20.700  1.00  0.00     0.101 A 
HETATM    7  C11 UNL     1       3.955  17.487  21.421  1.00  0.00     0.049 A 
HETATM    8  C12 UNL     1       5.066  17.408  22.252  1.00  0.00     0.019 A 
HETATM    9  C13 UNL     1       5.946  18.464  22.339  1.00  0.00     0.013 A 
HETATM   10  C14 UNL     1       5.780  19.633  21.626  1.00  0.00    -0.023 A 
HETATM   11  C15 UNL     1       6.699  20.656  21.758  1.00  0.00     0.012 A 
HETATM   12  C16 UNL     1       6.473  21.798  21.015  1.00  0.00     0.001 A 
HETATM   13  C17 UNL     1       5.363  21.900  20.174  1.00  0.00     0.001 A 
HETATM   14  C18 UNL     1       4.467  20.861  20.067  1.00  0.00     0.015 A 
HETATM   15  C19 UNL     1       4.674  19.703  20.803  1.00  0.00     0.009 A 
ENDROOT
BRANCH   4  16
HETATM   16  C4  UNL     1       0.693  18.022  18.829  1.00  0.00    -0.002 A 
HETATM   17  C5  UNL     1       0.776  19.014  17.872  1.00  0.00     0.014 A 
HETATM   18  C6  UNL     1      -0.267  19.244  17.004  1.00  0.00     0.001 A 
HETATM   19  C7  UNL     1      -1.420  18.490  17.071  1.00  0.00     0.000 A 
HETATM   20  C8  UNL     1      -1.530  17.494  18.017  1.00  0.00     0.001 A 
HETATM   21  C9  UNL     1      -0.458  17.284  18.881  1.00  0.00     0.014 A 
ENDBRANCH   4  16
TORSDOF 1
ENDMDL
