MODEL 7
REMARK VINA RESULT: -5.819653043      3.032      4.913
REMARK  3 active torsions:
REMARK  status: ('A' for Active; 'I' for Inactive)
REMARK    1  A    between atoms: N1_1  and  C1_5 
REMARK    2  A    between atoms: C1_5  and  C2_6 
REMARK    3  A    between atoms: C5_9  and  N2_10 
ROOT
HETATM    1  C2  UNL     1      49.908  23.012  31.632  1.00  0.00    -0.033 A 
HETATM    2  C3  UNL     1      49.638  23.251  30.300  1.00  0.00     0.011 A 
HETATM    3  C4  UNL     1      50.554  22.962  29.301  1.00  0.00     0.037 A 
HETATM    4  C5  UNL     1      51.778  22.421  29.617  1.00  0.00     0.102 A 
HETATM    5  C6  UNL     1      52.066  22.176  30.942  1.00  0.00     0.037 A 
HETATM    6  C7  UNL     1      51.137  22.468  31.949  1.00  0.00     0.011 A 
ENDROOT
BRANCH   1   7
HETATM    7  C1  UNL     1      48.924  23.320  32.713  1.00  0.00     0.268 C 
BRANCH   7   8
HETATM    8  N1  UNL     1      48.584  24.727  32.605  1.00  0.00    -0.075 N 
ATOM      9  H13 UNL     1      48.865  25.268  33.423  1.00  0.00     0.274 HD
ATOM     10  H12 UNL     1      49.151  25.222  31.917  1.00  0.00     0.274 HD
ATOM     11  H11 UNL     1      47.583  24.787  32.414  1.00  0.00     0.274 HD
ENDBRANCH   7   8
ENDBRANCH   1   7
BRANCH   4  12
HETATM   12  N2  UNL     1      52.755  22.106  28.628  1.00  0.00    -0.116 N 
HETATM   13  O1  UNL     1      53.688  21.310  28.844  1.00  0.00    -0.532 OA
HETATM   14  O2  UNL     1      52.710  22.674  27.376  1.00  0.00    -0.532 OA
ENDBRANCH   4  12
TORSDOF 3
ENDMDL
