MODEL 3
REMARK VINA RESULT: -6.389655458      0.790      1.851
REMARK  3 active torsions:
REMARK  status: ('A' for Active; 'I' for Inactive)
REMARK    1  A    between atoms: N1_1  and  C1_5 
REMARK    2  A    between atoms: C1_5  and  C2_6 
REMARK    3  A    between atoms: C5_9  and  N2_10 
ROOT
HETATM    1  C2  UNL     1      51.860  22.639  28.920  1.00  0.00    -0.033 A 
HETATM    2  C3  UNL     1      50.587  23.169  28.986  1.00  0.00     0.011 A 
HETATM    3  C4  UNL     1      49.855  23.181  30.163  1.00  0.00     0.037 A 
HETATM    4  C5  UNL     1      50.388  22.654  31.315  1.00  0.00     0.102 A 
HETATM    5  C6  UNL     1      51.657  22.119  31.270  1.00  0.00     0.037 A 
HETATM    6  C7  UNL     1      52.394  22.110  30.078  1.00  0.00     0.011 A 
ENDROOT
BRANCH   1   7
HETATM    7  C1  UNL     1      52.653  22.624  27.655  1.00  0.00     0.268 C 
BRANCH   7   8
HETATM    8  N1  UNL     1      53.675  23.649  27.767  1.00  0.00    -0.075 N 
ATOM      9  H13 UNL     1      54.408  23.559  27.064  1.00  0.00     0.274 HD
ATOM     10  H12 UNL     1      53.342  24.574  27.494  1.00  0.00     0.274 HD
ATOM     11  H11 UNL     1      54.034  23.621  28.722  1.00  0.00     0.274 HD
ENDBRANCH   7   8
ENDBRANCH   1   7
BRANCH   4  12
HETATM   12  N2  UNL     1      49.677  22.642  32.551  1.00  0.00    -0.116 N 
HETATM   13  O1  UNL     1      49.817  21.732  33.391  1.00  0.00    -0.532 OA
HETATM   14  O2  UNL     1      48.794  23.645  32.876  1.00  0.00    -0.532 OA
ENDBRANCH   4  12
TORSDOF 3
ENDMDL
