MODEL 1
REMARK VINA RESULT: -6.947643643      0.000      0.000
REMARK  3 active torsions:
REMARK  status: ('A' for Active; 'I' for Inactive)
REMARK    1  A    between atoms: N1_1  and  C1_5 
REMARK    2  A    between atoms: C1_5  and  C2_6 
REMARK    3  A    between atoms: C5_9  and  N2_10 
ROOT
HETATM    1  C2  UNL     1      51.752  22.401  29.277  1.00  0.00    -0.033 A 
HETATM    2  C3  UNL     1      52.155  22.087  30.558  1.00  0.00     0.011 A 
HETATM    3  C4  UNL     1      51.364  22.356  31.665  1.00  0.00     0.037 A 
HETATM    4  C5  UNL     1      50.136  22.953  31.511  1.00  0.00     0.102 A 
HETATM    5  C6  UNL     1      49.716  23.275  30.238  1.00  0.00     0.037 A 
HETATM    6  C7  UNL     1      50.518  23.002  29.123  1.00  0.00     0.011 A 
ENDROOT
BRANCH   1   7
HETATM    7  C1  UNL     1      52.599  22.113  28.081  1.00  0.00     0.268 C 
BRANCH   7   8
HETATM    8  N1  UNL     1      53.984  22.105  28.518  1.00  0.00    -0.075 N 
ATOM      9  H13 UNL     1      54.444  23.007  28.399  1.00  0.00     0.274 HD
ATOM     10  H12 UNL     1      54.080  22.039  29.531  1.00  0.00     0.274 HD
ATOM     11  H11 UNL     1      54.457  21.349  28.023  1.00  0.00     0.274 HD
ENDBRANCH   7   8
ENDBRANCH   1   7
BRANCH   4  12
HETATM   12  N2  UNL     1      49.285  23.251  32.615  1.00  0.00    -0.116 N 
HETATM   13  O1  UNL     1      48.882  24.406  32.853  1.00  0.00    -0.532 OA
HETATM   14  O2  UNL     1      48.865  22.266  33.477  1.00  0.00    -0.532 OA
ENDBRANCH   4  12
TORSDOF 3
ENDMDL
