MODEL 6
REMARK VINA RESULT: -5.989652769      3.044      4.863
REMARK  3 active torsions:
REMARK  status: ('A' for Active; 'I' for Inactive)
REMARK    1  A    between atoms: N1_1  and  C1_5 
REMARK    2  A    between atoms: C1_5  and  C2_6 
REMARK    3  A    between atoms: C5_9  and  N2_10 
ROOT
HETATM    1  C2  UNL     1      49.827  22.679  31.830  1.00  0.00    -0.033 A 
HETATM    2  C3  UNL     1      49.279  23.204  30.678  1.00  0.00     0.011 A 
HETATM    3  C4  UNL     1      49.986  23.261  29.486  1.00  0.00     0.037 A 
HETATM    4  C5  UNL     1      51.275  22.788  29.422  1.00  0.00     0.102 A 
HETATM    5  C6  UNL     1      51.840  22.260  30.563  1.00  0.00     0.037 A 
HETATM    6  C7  UNL     1      51.121  22.204  31.765  1.00  0.00     0.011 A 
ENDROOT
BRANCH   1   7
HETATM    7  C1  UNL     1      49.069  22.614  33.116  1.00  0.00     0.268 C 
BRANCH   7   8
HETATM    8  N1  UNL     1      48.579  21.256  33.266  1.00  0.00    -0.075 N 
ATOM      9  H13 UNL     1      47.627  21.136  32.920  1.00  0.00     0.274 HD
ATOM     10  H12 UNL     1      49.033  20.596  32.635  1.00  0.00     0.274 HD
ATOM     11  H11 UNL     1      48.679  21.001  34.249  1.00  0.00     0.274 HD
ENDBRANCH   7   8
ENDBRANCH   1   7
BRANCH   4  12
HETATM   12  N2  UNL     1      52.045  22.824  28.223  1.00  0.00    -0.116 N 
HETATM   13  O1  UNL     1      52.225  21.813  27.518  1.00  0.00    -0.532 OA
HETATM   14  O2  UNL     1      52.631  23.989  27.787  1.00  0.00    -0.532 OA
ENDBRANCH   4  12
TORSDOF 3
ENDMDL
