MODEL 9
REMARK VINA RESULT: -5.765047961      1.212      1.946
REMARK  3 active torsions:
REMARK  status: ('A' for Active; 'I' for Inactive)
REMARK    1  A    between atoms: N1_1  and  C1_5 
REMARK    2  A    between atoms: C1_5  and  C2_6 
REMARK    3  A    between atoms: C5_9  and  N2_10 
ROOT
HETATM    1  C2  UNL     1      52.782  22.400  28.698  1.00  0.00    -0.033 A 
HETATM    2  C3  UNL     1      51.631  23.089  28.374  1.00  0.00     0.011 A 
HETATM    3  C4  UNL     1      50.588  23.244  29.275  1.00  0.00     0.037 A 
HETATM    4  C5  UNL     1      50.676  22.705  30.536  1.00  0.00     0.102 A 
HETATM    5  C6  UNL     1      51.817  22.013  30.878  1.00  0.00     0.037 A 
HETATM    6  C7  UNL     1      52.869  21.859  29.966  1.00  0.00     0.011 A 
ENDROOT
BRANCH   1   7
HETATM    7  C1  UNL     1      53.908  22.230  27.733  1.00  0.00     0.268 C 
BRANCH   7   8
HETATM    8  N1  UNL     1      53.491  22.808  26.468  1.00  0.00    -0.075 N 
ATOM      9  H13 UNL     1      53.500  23.828  26.475  1.00  0.00     0.274 HD
ATOM     10  H12 UNL     1      54.175  22.674  25.724  1.00  0.00     0.274 HD
ATOM     11  H11 UNL     1      52.574  22.421  26.241  1.00  0.00     0.274 HD
ENDBRANCH   7   8
ENDBRANCH   1   7
BRANCH   4  12
HETATM   12  N2  UNL     1      49.632  22.836  31.499  1.00  0.00    -0.116 N 
HETATM   13  O1  UNL     1      48.940  23.867  31.594  1.00  0.00    -0.532 OA
HETATM   14  O2  UNL     1      49.341  21.818  32.376  1.00  0.00    -0.532 OA
ENDBRANCH   4  12
TORSDOF 3
ENDMDL
