MODEL 5
REMARK VINA RESULT: -5.991225790      3.041      4.655
REMARK  3 active torsions:
REMARK  status: ('A' for Active; 'I' for Inactive)
REMARK    1  A    between atoms: N1_1  and  C1_5 
REMARK    2  A    between atoms: C1_5  and  C2_6 
REMARK    3  A    between atoms: C5_9  and  N2_10 
ROOT
HETATM    1  C2  UNL     1      49.849  22.670  31.823  1.00  0.00    -0.033 A 
HETATM    2  C3  UNL     1      51.137  22.178  31.765  1.00  0.00     0.011 A 
HETATM    3  C4  UNL     1      51.886  22.211  30.599  1.00  0.00     0.037 A 
HETATM    4  C5  UNL     1      51.354  22.743  29.449  1.00  0.00     0.102 A 
HETATM    5  C6  UNL     1      50.068  23.239  29.486  1.00  0.00     0.037 A 
HETATM    6  C7  UNL     1      49.316  23.205  30.667  1.00  0.00     0.011 A 
ENDROOT
BRANCH   1   7
HETATM    7  C1  UNL     1      49.038  22.638  33.077  1.00  0.00     0.268 C 
BRANCH   7   8
HETATM    8  N1  UNL     1      48.595  21.270  33.276  1.00  0.00    -0.075 N 
ATOM      9  H13 UNL     1      47.649  21.209  33.650  1.00  0.00     0.274 HD
ATOM     10  H12 UNL     1      48.424  20.776  32.400  1.00  0.00     0.274 HD
ATOM     11  H11 UNL     1      49.287  20.806  33.866  1.00  0.00     0.274 HD
ENDBRANCH   7   8
ENDBRANCH   1   7
BRANCH   4  12
HETATM   12  N2  UNL     1      52.081  22.801  28.223  1.00  0.00    -0.116 N 
HETATM   13  O1  UNL     1      52.237  21.803  27.494  1.00  0.00    -0.532 OA
HETATM   14  O2  UNL     1      52.649  23.974  27.787  1.00  0.00    -0.532 OA
ENDBRANCH   4  12
TORSDOF 3
ENDMDL
