MODEL 4
REMARK VINA RESULT: -6.348190827      0.631      1.104
REMARK  3 active torsions:
REMARK  status: ('A' for Active; 'I' for Inactive)
REMARK    1  A    between atoms: N1_1  and  C1_5 
REMARK    2  A    between atoms: C1_5  and  C2_6 
REMARK    3  A    between atoms: C5_9  and  N2_10 
ROOT
HETATM    1  C2  UNL     1      51.806  22.692  29.102  1.00  0.00    -0.033 A 
HETATM    2  C3  UNL     1      52.266  22.100  30.261  1.00  0.00     0.011 A 
HETATM    3  C4  UNL     1      51.477  21.994  31.396  1.00  0.00     0.037 A 
HETATM    4  C5  UNL     1      50.194  22.486  31.397  1.00  0.00     0.102 A 
HETATM    5  C6  UNL     1      49.717  23.082  30.249  1.00  0.00     0.037 A 
HETATM    6  C7  UNL     1      50.517  23.186  29.104  1.00  0.00     0.011 A 
ENDROOT
BRANCH   1   7
HETATM    7  C1  UNL     1      52.651  22.809  27.877  1.00  0.00     0.268 C 
BRANCH   7   8
HETATM    8  N1  UNL     1      53.826  21.979  28.075  1.00  0.00    -0.075 N 
ATOM      9  H13 UNL     1      53.611  20.982  28.082  1.00  0.00     0.274 HD
ATOM     10  H12 UNL     1      54.450  21.974  27.268  1.00  0.00     0.274 HD
ATOM     11  H11 UNL     1      54.283  22.293  28.931  1.00  0.00     0.274 HD
ENDBRANCH   7   8
ENDBRANCH   1   7
BRANCH   4  12
HETATM   12  N2  UNL     1      49.342  22.402  32.537  1.00  0.00    -0.116 N 
HETATM   13  O1  UNL     1      48.863  21.323  32.932  1.00  0.00    -0.532 OA
HETATM   14  O2  UNL     1      49.008  23.523  33.260  1.00  0.00    -0.532 OA
ENDBRANCH   4  12
TORSDOF 3
ENDMDL
