MODEL 2
REMARK VINA RESULT: -6.936096287      0.066      1.427
REMARK  3 active torsions:
REMARK  status: ('A' for Active; 'I' for Inactive)
REMARK    1  A    between atoms: N1_1  and  C1_5 
REMARK    2  A    between atoms: C1_5  and  C2_6 
REMARK    3  A    between atoms: C5_9  and  N2_10 
ROOT
HETATM    1  C2  UNL     1      51.722  22.402  29.255  1.00  0.00    -0.033 A 
HETATM    2  C3  UNL     1      50.488  22.999  29.092  1.00  0.00     0.011 A 
HETATM    3  C4  UNL     1      49.670  23.303  30.169  1.00  0.00     0.037 A 
HETATM    4  C5  UNL     1      50.074  23.011  31.450  1.00  0.00     0.102 A 
HETATM    5  C6  UNL     1      51.303  22.414  31.633  1.00  0.00     0.037 A 
HETATM    6  C7  UNL     1      52.127  22.110  30.542  1.00  0.00     0.011 A 
ENDROOT
BRANCH   1   7
HETATM    7  C1  UNL     1      52.607  22.073  28.098  1.00  0.00     0.268 C 
BRANCH   7   8
HETATM    8  N1  UNL     1      53.978  22.096  28.576  1.00  0.00    -0.075 N 
ATOM      9  H13 UNL     1      54.332  23.041  28.723  1.00  0.00     0.274 HD
ATOM     10  H12 UNL     1      54.069  21.769  29.538  1.00  0.00     0.274 HD
ATOM     11  H11 UNL     1      54.542  21.557  27.918  1.00  0.00     0.274 HD
ENDBRANCH   7   8
ENDBRANCH   1   7
BRANCH   4  12
HETATM   12  N2  UNL     1      49.272  23.303  32.592  1.00  0.00    -0.116 N 
HETATM   13  O1  UNL     1      48.862  24.452  32.842  1.00  0.00    -0.532 OA
HETATM   14  O2  UNL     1      48.909  22.316  33.479  1.00  0.00    -0.532 OA
ENDBRANCH   4  12
TORSDOF 3
ENDMDL
