MODEL 12
REMARK VINA RESULT: -5.150026391      3.174      4.881
REMARK  3 active torsions:
REMARK  status: ('A' for Active; 'I' for Inactive)
REMARK    1  A    between atoms: O1_2  and  C2_3 
REMARK    2  A    between atoms: C5_6  and  C6_7 
REMARK    3  A    between atoms: C6_7  and  N1_8 
ROOT
HETATM    1  C2  UNL     1      53.467  22.638  28.053  1.00  0.00     0.068 A 
HETATM    2  C3  UNL     1      53.032  21.987  29.200  1.00  0.00     0.037 A 
HETATM    3  C4  UNL     1      51.776  22.203  29.720  1.00  0.00     0.011 A 
HETATM    4  C5  UNL     1      50.904  23.080  29.112  1.00  0.00    -0.033 A 
HETATM    5  C7  UNL     1      51.347  23.723  27.970  1.00  0.00     0.011 A 
HETATM    6  C8  UNL     1      52.604  23.520  27.434  1.00  0.00     0.037 A 
ENDROOT
BRANCH   4   7
HETATM    7  C6  UNL     1      49.548  23.334  29.644  1.00  0.00     0.268 C 
BRANCH   7   8
HETATM    8  N1  UNL     1      49.561  23.505  31.103  1.00  0.00    -0.075 N 
ATOM      9  H13 UNL     1      50.484  23.778  31.438  1.00  0.00     0.274 HD
ATOM     10  H12 UNL     1      49.038  24.335  31.385  1.00  0.00     0.274 HD
ATOM     11  H11 UNL     1      49.222  22.671  31.584  1.00  0.00     0.274 HD
ENDBRANCH   7   8
ENDBRANCH   4   7
BRANCH   1  12
HETATM   12  O1  UNL     1      54.727  22.438  27.512  1.00  0.00    -0.356 OA
HETATM   13  C1  UNL     1      55.204  23.412  26.598  1.00  0.00     0.210 C 
ENDBRANCH   1  12
TORSDOF 3
ENDMDL
