MODEL 4
REMARK VINA RESULT: -6.100753723      1.232      1.370
REMARK  3 active torsions:
REMARK  status: ('A' for Active; 'I' for Inactive)
REMARK    1  A    between atoms: O1_2  and  C2_3 
REMARK    2  A    between atoms: C5_6  and  C6_7 
REMARK    3  A    between atoms: C6_7  and  N1_8 
ROOT
HETATM    1  C2  UNL     1      50.011  23.272  31.137  1.00  0.00     0.068 A 
HETATM    2  C3  UNL     1      49.668  23.474  29.807  1.00  0.00     0.037 A 
HETATM    3  C4  UNL     1      50.508  23.104  28.781  1.00  0.00     0.011 A 
HETATM    4  C5  UNL     1      51.725  22.515  29.046  1.00  0.00    -0.033 A 
HETATM    5  C7  UNL     1      52.056  22.318  30.374  1.00  0.00     0.011 A 
HETATM    6  C8  UNL     1      51.228  22.683  31.417  1.00  0.00     0.037 A 
ENDROOT
BRANCH   4   7
HETATM    7  C6  UNL     1      52.650  22.105  27.968  1.00  0.00     0.268 C 
BRANCH   7   8
HETATM    8  N1  UNL     1      54.027  21.962  28.460  1.00  0.00    -0.075 N 
ATOM      9  H13 UNL     1      54.238  20.994  28.700  1.00  0.00     0.274 HD
ATOM     10  H12 UNL     1      54.706  22.091  27.708  1.00  0.00     0.274 HD
ATOM     11  H11 UNL     1      54.216  22.589  29.243  1.00  0.00     0.274 HD
ENDBRANCH   7   8
ENDBRANCH   4   7
BRANCH   1  12
HETATM   12  O1  UNL     1      49.182  23.637  32.187  1.00  0.00    -0.356 OA
HETATM   13  C1  UNL     1      48.583  24.922  32.125  1.00  0.00     0.210 C 
ENDBRANCH   1  12
TORSDOF 3
ENDMDL
