MODEL 11
REMARK VINA RESULT: -5.174296538      3.044      4.489
REMARK  3 active torsions:
REMARK  status: ('A' for Active; 'I' for Inactive)
REMARK    1  A    between atoms: O1_2  and  C2_3 
REMARK    2  A    between atoms: C5_6  and  C6_7 
REMARK    3  A    between atoms: C6_7  and  N1_8 
ROOT
HETATM    1  C2  UNL     1      52.516  22.661  28.203  1.00  0.00     0.068 A 
HETATM    2  C3  UNL     1      51.325  23.354  28.034  1.00  0.00     0.037 A 
HETATM    3  C4  UNL     1      50.418  23.492  29.060  1.00  0.00     0.011 A 
HETATM    4  C5  UNL     1      50.668  22.941  30.298  1.00  0.00    -0.033 A 
HETATM    5  C7  UNL     1      51.858  22.253  30.456  1.00  0.00     0.011 A 
HETATM    6  C8  UNL     1      52.780  22.104  29.438  1.00  0.00     0.037 A 
ENDROOT
BRANCH   4   7
HETATM    7  C6  UNL     1      49.716  23.071  31.421  1.00  0.00     0.268 C 
BRANCH   7   8
HETATM    8  N1  UNL     1      50.089  22.210  32.552  1.00  0.00    -0.075 N 
ATOM      9  H13 UNL     1      50.835  21.562  32.297  1.00  0.00     0.274 HD
ATOM     10  H12 UNL     1      50.578  22.737  33.276  1.00  0.00     0.274 HD
ATOM     11  H11 UNL     1      49.282  21.715  32.932  1.00  0.00     0.274 HD
ENDBRANCH   7   8
ENDBRANCH   4   7
BRANCH   1  12
HETATM   12  O1  UNL     1      53.444  22.508  27.184  1.00  0.00    -0.356 OA
HETATM   13  C1  UNL     1      54.714  23.113  27.367  1.00  0.00     0.210 C 
ENDBRANCH   1  12
TORSDOF 3
ENDMDL
