MODEL 2
REMARK VINA RESULT: -6.240993880      0.039      1.497
REMARK  3 active torsions:
REMARK  status: ('A' for Active; 'I' for Inactive)
REMARK    1  A    between atoms: O1_2  and  C2_3 
REMARK    2  A    between atoms: C5_6  and  C6_7 
REMARK    3  A    between atoms: C6_7  and  N1_8 
ROOT
HETATM    1  C2  UNL     1      50.201  22.874  31.280  1.00  0.00     0.068 A 
HETATM    2  C3  UNL     1      51.477  22.338  31.167  1.00  0.00     0.037 A 
HETATM    3  C4  UNL     1      52.151  22.326  29.968  1.00  0.00     0.011 A 
HETATM    4  C5  UNL     1      51.575  22.852  28.831  1.00  0.00    -0.033 A 
HETATM    5  C7  UNL     1      50.304  23.384  28.955  1.00  0.00     0.011 A 
HETATM    6  C8  UNL     1      49.611  23.404  30.150  1.00  0.00     0.037 A 
ENDROOT
BRANCH   4   7
HETATM    7  C6  UNL     1      52.272  22.856  27.528  1.00  0.00     0.268 C 
BRANCH   7   8
HETATM    8  N1  UNL     1      53.318  23.886  27.475  1.00  0.00    -0.075 N 
ATOM      9  H13 UNL     1      52.946  24.808  27.703  1.00  0.00     0.274 HD
ATOM     10  H12 UNL     1      53.978  23.787  28.247  1.00  0.00     0.274 HD
ATOM     11  H11 UNL     1      53.798  23.892  26.575  1.00  0.00     0.274 HD
ENDBRANCH   7   8
ENDBRANCH   4   7
BRANCH   1  12
HETATM   12  O1  UNL     1      49.502  22.896  32.477  1.00  0.00    -0.356 OA
HETATM   13  C1  UNL     1      48.841  21.702  32.865  1.00  0.00     0.210 C 
ENDBRANCH   1  12
TORSDOF 3
ENDMDL
