MODEL 14
REMARK VINA RESULT: -4.449334283      5.511      7.344
REMARK  3 active torsions:
REMARK  status: ('A' for Active; 'I' for Inactive)
REMARK    1  A    between atoms: O1_2  and  C2_3 
REMARK    2  A    between atoms: C5_6  and  C6_7 
REMARK    3  A    between atoms: C6_7  and  N1_8 
ROOT
HETATM    1  C2  UNL     1      55.262  22.692  25.850  1.00  0.00     0.068 A 
HETATM    2  C3  UNL     1      56.101  21.817  25.174  1.00  0.00     0.037 A 
HETATM    3  C4  UNL     1      57.471  21.905  25.279  1.00  0.00     0.011 A 
HETATM    4  C5  UNL     1      58.056  22.872  26.067  1.00  0.00    -0.033 A 
HETATM    5  C7  UNL     1      57.210  23.738  26.737  1.00  0.00     0.011 A 
HETATM    6  C8  UNL     1      55.834  23.666  26.643  1.00  0.00     0.037 A 
ENDROOT
BRANCH   4   7
HETATM    7  C6  UNL     1      59.522  22.993  26.203  1.00  0.00     0.268 C 
BRANCH   7   8
HETATM    8  N1  UNL     1      59.894  23.995  27.211  1.00  0.00    -0.075 N 
ATOM      9  H13 UNL     1      59.435  24.888  27.035  1.00  0.00     0.274 HD
ATOM     10  H12 UNL     1      59.480  23.780  28.119  1.00  0.00     0.274 HD
ATOM     11  H11 UNL     1      60.906  24.104  27.280  1.00  0.00     0.274 HD
ENDBRANCH   7   8
ENDBRANCH   4   7
BRANCH   1  12
HETATM   12  O1  UNL     1      53.880  22.624  25.759  1.00  0.00    -0.356 OA
HETATM   13  C1  UNL     1      53.133  23.033  26.894  1.00  0.00     0.210 C 
ENDBRANCH   1  12
TORSDOF 3
ENDMDL
