MODEL 7
REMARK VINA RESULT: -5.891889203      1.320      1.559
REMARK  3 active torsions:
REMARK  status: ('A' for Active; 'I' for Inactive)
REMARK    1  A    between atoms: O1_2  and  C2_3 
REMARK    2  A    between atoms: C5_6  and  C6_7 
REMARK    3  A    between atoms: C6_7  and  N1_8 
ROOT
HETATM    1  C2  UNL     1      50.675  22.745  30.101  1.00  0.00     0.068 A 
HETATM    2  C3  UNL     1      50.583  23.453  28.911  1.00  0.00     0.037 A 
HETATM    3  C4  UNL     1      51.628  23.500  28.016  1.00  0.00     0.011 A 
HETATM    4  C5  UNL     1      52.808  22.837  28.278  1.00  0.00    -0.033 A 
HETATM    5  C7  UNL     1      52.889  22.135  29.467  1.00  0.00     0.011 A 
HETATM    6  C8  UNL     1      51.851  22.077  30.377  1.00  0.00     0.037 A 
ENDROOT
BRANCH   4   7
HETATM    7  C6  UNL     1      53.949  22.866  27.339  1.00  0.00     0.268 C 
BRANCH   7   8
HETATM    8  N1  UNL     1      53.505  22.774  25.942  1.00  0.00    -0.075 N 
ATOM      9  H13 UNL     1      53.229  21.822  25.701  1.00  0.00     0.274 HD
ATOM     10  H12 UNL     1      52.607  23.239  25.805  1.00  0.00     0.274 HD
ATOM     11  H11 UNL     1      54.210  23.131  25.297  1.00  0.00     0.274 HD
ENDBRANCH   7   8
ENDBRANCH   4   7
BRANCH   1  12
HETATM   12  O1  UNL     1      49.636  22.684  31.017  1.00  0.00    -0.356 OA
HETATM   13  C1  UNL     1      49.580  23.702  32.004  1.00  0.00     0.210 C 
ENDBRANCH   1  12
TORSDOF 3
ENDMDL
