MODEL 3
REMARK VINA RESULT: -6.102695096      1.224      2.007
REMARK  3 active torsions:
REMARK  status: ('A' for Active; 'I' for Inactive)
REMARK    1  A    between atoms: O1_2  and  C2_3 
REMARK    2  A    between atoms: C5_6  and  C6_7 
REMARK    3  A    between atoms: C6_7  and  N1_8 
ROOT
HETATM    1  C2  UNL     1      50.003  23.250  31.149  1.00  0.00     0.068 A 
HETATM    2  C3  UNL     1      51.237  22.671  31.412  1.00  0.00     0.037 A 
HETATM    3  C4  UNL     1      52.102  22.324  30.400  1.00  0.00     0.011 A 
HETATM    4  C5  UNL     1      51.766  22.543  29.081  1.00  0.00    -0.033 A 
HETATM    5  C7  UNL     1      50.535  23.121  28.830  1.00  0.00     0.011 A 
HETATM    6  C8  UNL     1      49.653  23.475  29.832  1.00  0.00     0.037 A 
ENDROOT
BRANCH   4   7
HETATM    7  C6  UNL     1      52.672  22.183  27.970  1.00  0.00     0.268 C 
BRANCH   7   8
HETATM    8  N1  UNL     1      54.050  21.980  28.438  1.00  0.00    -0.075 N 
ATOM      9  H13 UNL     1      54.158  22.259  29.412  1.00  0.00     0.274 HD
ATOM     10  H12 UNL     1      54.269  20.988  28.531  1.00  0.00     0.274 HD
ATOM     11  H11 UNL     1      54.726  22.455  27.838  1.00  0.00     0.274 HD
ENDBRANCH   7   8
ENDBRANCH   4   7
BRANCH   1  12
HETATM   12  O1  UNL     1      49.115  23.607  32.152  1.00  0.00    -0.356 OA
HETATM   13  C1  UNL     1      48.587  24.924  32.113  1.00  0.00     0.210 C 
ENDBRANCH   1  12
TORSDOF 3
ENDMDL
