MODEL 9
REMARK VINA RESULT: -8.814470855      2.439      7.149
REMARK  10 active torsions:
REMARK  status: ('A' for Active; 'I' for Inactive)
REMARK    1  A    between atoms: C2_2  and  N1_3 
REMARK    2  A    between atoms: N1_3  and  C3_4 
REMARK    3  A    between atoms: N1_3  and  C5_6 
REMARK    4  A    between atoms: C5_6  and  C6_7 
REMARK    5  A    between atoms: C6_7  and  N2_8 
REMARK    6  A    between atoms: N2_8  and  C7_10 
REMARK    7  A    between atoms: C9_12  and  N3_13 
REMARK    8  A    between atoms: N3_13  and  C10_15 
REMARK    9  A    between atoms: C12_17  and  O1_18 
REMARK   10  A    between atoms: C17_26  and  N5_27 
ROOT
HETATM    1  C7  UNL     1      47.936   5.289  -2.223  1.00  0.00     0.120 A 
HETATM    2  C8  UNL     1      47.289   5.991  -3.250  1.00  0.00     0.097 A 
HETATM    3  C9  UNL     1      47.042   7.329  -3.207  1.00  0.00     0.125 A 
HETATM    4  N4  UNL     1      47.487   7.946  -2.060  1.00  0.00    -0.176 N 
ATOM      5  H4  UNL     1      47.330   8.951  -1.971  1.00  0.00     0.186 HD
HETATM    6  C17 UNL     1      48.107   7.327  -1.058  1.00  0.00     0.693 A 
HETATM    7  N7  UNL     1      48.321   6.008  -1.156  1.00  0.00    -0.176 N 
ATOM      8  H7  UNL     1      48.796   5.531  -0.390  1.00  0.00     0.186 HD
ENDROOT
BRANCH   3   9
HETATM    9  N3  UNL     1      46.367   8.098  -4.173  1.00  0.00    -0.341 N 
ATOM     10  H3  UNL     1      45.353   7.986  -4.150  1.00  0.00     0.167 HD
BRANCH   9  11
HETATM   11  C10 UNL     1      46.810   8.981  -5.153  1.00  0.00     0.042 A 
HETATM   12  C11 UNL     1      47.705  10.003  -5.036  1.00  0.00     0.066 A 
HETATM   13  C12 UNL     1      48.124  10.811  -6.101  1.00  0.00     0.067 A 
HETATM   14  C13 UNL     1      47.596  10.555  -7.346  1.00  0.00     0.037 A 
HETATM   15  C14 UNL     1      46.695   9.542  -7.530  1.00  0.00     0.012 A 
HETATM   16  C15 UNL     1      46.316   8.781  -6.458  1.00  0.00    -0.035 A 
HETATM   17  C16 UNL     1      45.319   7.673  -6.684  1.00  0.00     0.050 C 
BRANCH  13  18
HETATM   18  O1  UNL     1      49.040  11.828  -5.881  1.00  0.00    -0.361 OA
ATOM     19  H1  UNL     1      48.738  12.719  -5.742  1.00  0.00     0.217 HD
ENDBRANCH  13  18
ENDBRANCH   9  11
ENDBRANCH   3   9
BRANCH   1  20
HETATM   20  N2  UNL     1      48.170   3.883  -2.305  1.00  0.00    -0.374 N 
ATOM     21  H2  UNL     1      49.130   3.538  -2.327  1.00  0.00     0.161 HD
BRANCH  20  22
HETATM   22  C6  UNL     1      47.077   2.936  -2.357  1.00  0.00     0.151 C 
BRANCH  22  23
HETATM   23  C5  UNL     1      46.114   3.085  -1.228  1.00  0.00     0.292 C 
BRANCH  23  24
HETATM   24  N1  UNL     1      44.808   3.537  -1.593  1.00  0.00     0.089 N 
BRANCH  24  25
HETATM   25  C2  UNL     1      44.429   4.786  -0.983  1.00  0.00     0.268 C 
HETATM   26  C1  UNL     1      45.176   5.042   0.310  1.00  0.00     0.037 C 
ENDBRANCH  24  25
BRANCH  24  27
HETATM   27  C3  UNL     1      44.575   3.501  -3.019  1.00  0.00     0.268 C 
HETATM   28  C4  UNL     1      43.798   4.718  -3.439  1.00  0.00     0.037 C 
ENDBRANCH  24  27
ENDBRANCH  23  24
ENDBRANCH  22  23
ENDBRANCH  20  22
ENDBRANCH   1  20
BRANCH   6  29
HETATM   29  N5  UNL     1      48.556   8.023   0.102  1.00  0.00    -0.141 N 
HETATM   30  C18 UNL     1      49.374   7.519   1.037  1.00  0.00     0.207 A 
HETATM   31  N6  UNL     1      49.603   8.444   2.003  1.00  0.00    -0.350 N 
HETATM   32  C19 UNL     1      48.918   9.531   1.662  1.00  0.00     0.061 A 
ATOM     33  H6  UNL     1      50.186   8.327   2.831  1.00  0.00     0.166 HD
HETATM   34  C20 UNL     1      48.810  10.756   2.308  1.00  0.00     0.032 A 
HETATM   35  C24 UNL     1      48.266   9.259   0.471  1.00  0.00     0.084 A 
HETATM   36  C21 UNL     1      48.027  11.744   1.752  1.00  0.00     0.002 A 
HETATM   37  C22 UNL     1      47.361  11.484   0.545  1.00  0.00     0.002 A 
HETATM   38  C23 UNL     1      47.494  10.247  -0.069  1.00  0.00     0.033 A 
ENDBRANCH   6  29
TORSDOF 10
ENDMDL
