MODEL 15
REMARK VINA RESULT: -8.702555756      1.250      6.148
REMARK  10 active torsions:
REMARK  status: ('A' for Active; 'I' for Inactive)
REMARK    1  A    between atoms: C2_2  and  N1_3 
REMARK    2  A    between atoms: N1_3  and  C3_4 
REMARK    3  A    between atoms: N1_3  and  C5_6 
REMARK    4  A    between atoms: C5_6  and  C6_7 
REMARK    5  A    between atoms: C6_7  and  N2_8 
REMARK    6  A    between atoms: N2_8  and  C7_10 
REMARK    7  A    between atoms: C9_12  and  N3_13 
REMARK    8  A    between atoms: N3_13  and  C10_15 
REMARK    9  A    between atoms: C12_17  and  O1_18 
REMARK   10  A    between atoms: C17_26  and  N5_27 
ROOT
HETATM    1  C7  UNL     1      47.146   9.518  -4.942  1.00  0.00     0.120 A 
HETATM    2  C8  UNL     1      47.716  10.422  -4.033  1.00  0.00     0.097 A 
HETATM    3  C9  UNL     1      47.995  10.111  -2.738  1.00  0.00     0.125 A 
HETATM    4  N4  UNL     1      47.672   8.819  -2.387  1.00  0.00    -0.176 N 
ATOM      5  H4  UNL     1      47.860   8.529  -1.427  1.00  0.00     0.186 HD
HETATM    6  C17 UNL     1      47.132   7.923  -3.210  1.00  0.00     0.693 A 
HETATM    7  N7  UNL     1      46.878   8.288  -4.475  1.00  0.00    -0.176 N 
ATOM      8  H7  UNL     1      46.464   7.603  -5.107  1.00  0.00     0.186 HD
ENDROOT
BRANCH   3   9
HETATM    9  N3  UNL     1      48.527  10.967  -1.757  1.00  0.00    -0.341 N 
ATOM     10  H3  UNL     1      48.736  11.904  -2.101  1.00  0.00     0.167 HD
BRANCH   9  11
HETATM   11  C10 UNL     1      48.823  10.787  -0.409  1.00  0.00     0.042 A 
HETATM   12  C11 UNL     1      49.813  10.036   0.152  1.00  0.00     0.066 A 
HETATM   13  C12 UNL     1      50.060   9.957   1.528  1.00  0.00     0.067 A 
HETATM   14  C13 UNL     1      49.250  10.687   2.368  1.00  0.00     0.037 A 
HETATM   15  C14 UNL     1      48.241  11.463   1.867  1.00  0.00     0.012 A 
HETATM   16  C15 UNL     1      48.038  11.506   0.516  1.00  0.00    -0.035 A 
HETATM   17  C16 UNL     1      46.918  12.366  -0.013  1.00  0.00     0.050 C 
BRANCH  13  18
HETATM   18  O1  UNL     1      51.092   9.161   2.004  1.00  0.00    -0.361 OA
ATOM     19  H1  UNL     1      51.732   8.802   1.400  1.00  0.00     0.217 HD
ENDBRANCH  13  18
ENDBRANCH   9  11
ENDBRANCH   3   9
BRANCH   1  20
HETATM   20  N2  UNL     1      46.863   9.886  -6.292  1.00  0.00    -0.374 N 
ATOM     21  H2  UNL     1      46.405  10.779  -6.480  1.00  0.00     0.161 HD
BRANCH  20  22
HETATM   22  C6  UNL     1      47.210   9.023  -7.400  1.00  0.00     0.151 C 
BRANCH  22  23
HETATM   23  C5  UNL     1      46.174   8.996  -8.474  1.00  0.00     0.292 C 
BRANCH  23  24
HETATM   24  N1  UNL     1      45.210   7.947  -8.367  1.00  0.00     0.089 N 
BRANCH  24  25
HETATM   25  C2  UNL     1      44.713   7.478  -9.636  1.00  0.00     0.268 C 
HETATM   26  C1  UNL     1      45.161   8.355 -10.786  1.00  0.00     0.037 C 
ENDBRANCH  24  25
BRANCH  24  27
HETATM   27  C3  UNL     1      45.629   6.880  -7.486  1.00  0.00     0.268 C 
HETATM   28  C4  UNL     1      44.467   6.425  -6.648  1.00  0.00     0.037 C 
ENDBRANCH  24  27
ENDBRANCH  23  24
ENDBRANCH  22  23
ENDBRANCH  20  22
ENDBRANCH   1  20
BRANCH   6  29
HETATM   29  N5  UNL     1      46.830   6.595  -2.792  1.00  0.00    -0.141 N 
HETATM   30  C18 UNL     1      45.663   5.968  -2.994  1.00  0.00     0.207 A 
HETATM   31  N6  UNL     1      45.710   4.716  -2.472  1.00  0.00    -0.350 N 
HETATM   32  C19 UNL     1      46.920   4.569  -1.941  1.00  0.00     0.061 A 
ATOM     33  H6  UNL     1      44.962   4.023  -2.485  1.00  0.00     0.166 HD
HETATM   34  C20 UNL     1      47.478   3.479  -1.283  1.00  0.00     0.032 A 
HETATM   35  C24 UNL     1      47.615   5.749  -2.145  1.00  0.00     0.084 A 
HETATM   36  C21 UNL     1      48.770   3.566  -0.814  1.00  0.00     0.002 A 
HETATM   37  C22 UNL     1      49.486   4.755  -1.014  1.00  0.00     0.002 A 
HETATM   38  C23 UNL     1      48.893   5.821  -1.674  1.00  0.00     0.033 A 
ENDBRANCH   6  29
TORSDOF 10
ENDMDL
