MODEL 1
REMARK VINA RESULT: -9.542835662      0.000      0.000
REMARK  10 active torsions:
REMARK  status: ('A' for Active; 'I' for Inactive)
REMARK    1  A    between atoms: C2_2  and  N1_3 
REMARK    2  A    between atoms: N1_3  and  C3_4 
REMARK    3  A    between atoms: N1_3  and  C5_6 
REMARK    4  A    between atoms: C5_6  and  C6_7 
REMARK    5  A    between atoms: C6_7  and  N2_8 
REMARK    6  A    between atoms: N2_8  and  C7_10 
REMARK    7  A    between atoms: C9_12  and  N3_13 
REMARK    8  A    between atoms: N3_13  and  C10_15 
REMARK    9  A    between atoms: C12_17  and  O1_18 
REMARK   10  A    between atoms: C17_26  and  N5_27 
ROOT
HETATM    1  C7  UNL     1      46.636   7.614  -3.232  1.00  0.00     0.120 A 
HETATM    2  C8  UNL     1      47.237   8.500  -2.326  1.00  0.00     0.097 A 
HETATM    3  C9  UNL     1      47.750   9.709  -2.683  1.00  0.00     0.125 A 
HETATM    4  N4  UNL     1      47.628   9.997  -4.024  1.00  0.00    -0.176 N 
ATOM      5  H4  UNL     1      47.994  10.891  -4.351  1.00  0.00     0.186 HD
HETATM    6  C17 UNL     1      47.065   9.193  -4.924  1.00  0.00     0.693 A 
HETATM    7  N7  UNL     1      46.579   8.014  -4.513  1.00  0.00    -0.176 N 
ATOM      8  H7  UNL     1      46.148   7.396  -5.200  1.00  0.00     0.186 HD
ENDROOT
BRANCH   3   9
HETATM    9  N3  UNL     1      48.401  10.634  -1.847  1.00  0.00    -0.341 N 
ATOM     10  H3  UNL     1      48.659  11.501  -2.319  1.00  0.00     0.167 HD
BRANCH   9  11
HETATM   11  C10 UNL     1      48.762  10.599  -0.504  1.00  0.00     0.042 A 
HETATM   12  C11 UNL     1      49.769   9.897   0.089  1.00  0.00     0.066 A 
HETATM   13  C12 UNL     1      50.084   9.966   1.452  1.00  0.00     0.067 A 
HETATM   14  C13 UNL     1      49.327  10.799   2.243  1.00  0.00     0.037 A 
HETATM   15  C14 UNL     1      48.303  11.533   1.709  1.00  0.00     0.012 A 
HETATM   16  C15 UNL     1      48.034  11.430   0.372  1.00  0.00    -0.035 A 
HETATM   17  C16 UNL     1      46.899  12.245  -0.195  1.00  0.00     0.050 C 
BRANCH  13  18
HETATM   18  O1  UNL     1      51.129   9.211   1.962  1.00  0.00    -0.361 OA
ATOM     19  H1  UNL     1      51.911   9.067   1.441  1.00  0.00     0.217 HD
ENDBRANCH  13  18
ENDBRANCH   9  11
ENDBRANCH   3   9
BRANCH   1  20
HETATM   20  N2  UNL     1      46.116   6.351  -2.816  1.00  0.00    -0.374 N 
ATOM     21  H2  UNL     1      45.589   5.785  -3.482  1.00  0.00     0.161 HD
BRANCH  20  22
HETATM   22  C6  UNL     1      46.319   5.854  -1.472  1.00  0.00     0.151 C 
BRANCH  22  23
HETATM   23  C5  UNL     1      47.286   4.720  -1.402  1.00  0.00     0.292 C 
BRANCH  23  24
HETATM   24  N1  UNL     1      48.115   4.694  -0.239  1.00  0.00     0.089 N 
BRANCH  24  25
HETATM   25  C2  UNL     1      49.524   4.800  -0.522  1.00  0.00     0.268 C 
HETATM   26  C1  UNL     1      49.812   4.794  -2.009  1.00  0.00     0.037 C 
ENDBRANCH  24  25
BRANCH  24  27
HETATM   27  C3  UNL     1      47.668   5.600   0.795  1.00  0.00     0.268 C 
HETATM   28  C4  UNL     1      48.796   6.509   1.199  1.00  0.00     0.037 C 
ENDBRANCH  24  27
ENDBRANCH  23  24
ENDBRANCH  22  23
ENDBRANCH  20  22
ENDBRANCH   1  20
BRANCH   6  29
HETATM   29  N5  UNL     1      46.956   9.553  -6.298  1.00  0.00    -0.141 N 
HETATM   30  C18 UNL     1      47.501  10.643  -6.857  1.00  0.00     0.207 A 
HETATM   31  N6  UNL     1      47.206  10.684  -8.181  1.00  0.00    -0.350 N 
HETATM   32  C19 UNL     1      46.470   9.608  -8.443  1.00  0.00     0.061 A 
ATOM     33  H6  UNL     1      47.494  11.401  -8.847  1.00  0.00     0.166 HD
HETATM   34  C20 UNL     1      45.911   9.180  -9.640  1.00  0.00     0.032 A 
HETATM   35  C24 UNL     1      46.318   8.906  -7.259  1.00  0.00     0.084 A 
HETATM   36  C21 UNL     1      45.176   8.016  -9.662  1.00  0.00     0.002 A 
HETATM   37  C22 UNL     1      45.013   7.293  -8.470  1.00  0.00     0.002 A 
HETATM   38  C23 UNL     1      45.587   7.754  -7.295  1.00  0.00     0.033 A 
ENDBRANCH   6  29
TORSDOF 10
ENDMDL
