MODEL 12
REMARK VINA RESULT: -8.760475932      2.957      7.319
REMARK  10 active torsions:
REMARK  status: ('A' for Active; 'I' for Inactive)
REMARK    1  A    between atoms: C2_2  and  N1_3 
REMARK    2  A    between atoms: N1_3  and  C3_4 
REMARK    3  A    between atoms: N1_3  and  C5_6 
REMARK    4  A    between atoms: C5_6  and  C6_7 
REMARK    5  A    between atoms: C6_7  and  N2_8 
REMARK    6  A    between atoms: N2_8  and  C7_10 
REMARK    7  A    between atoms: C9_12  and  N3_13 
REMARK    8  A    between atoms: N3_13  and  C10_15 
REMARK    9  A    between atoms: C12_17  and  O1_18 
REMARK   10  A    between atoms: C17_26  and  N5_27 
ROOT
HETATM    1  C7  UNL     1      47.897   5.224  -2.269  1.00  0.00     0.120 A 
HETATM    2  C8  UNL     1      47.245   5.930  -3.292  1.00  0.00     0.097 A 
HETATM    3  C9  UNL     1      46.999   7.267  -3.245  1.00  0.00     0.125 A 
HETATM    4  N4  UNL     1      47.450   7.882  -2.098  1.00  0.00    -0.176 N 
ATOM      5  H4  UNL     1      47.294   8.886  -2.006  1.00  0.00     0.186 HD
HETATM    6  C17 UNL     1      48.074   7.260  -1.100  1.00  0.00     0.693 A 
HETATM    7  N7  UNL     1      48.287   5.941  -1.203  1.00  0.00    -0.176 N 
ATOM      8  H7  UNL     1      48.765   5.462  -0.440  1.00  0.00     0.186 HD
ENDROOT
BRANCH   3   9
HETATM    9  N3  UNL     1      46.320   8.039  -4.205  1.00  0.00    -0.341 N 
ATOM     10  H3  UNL     1      45.306   7.937  -4.169  1.00  0.00     0.167 HD
BRANCH   9  11
HETATM   11  C10 UNL     1      46.760   8.913  -5.194  1.00  0.00     0.042 A 
HETATM   12  C11 UNL     1      47.643   9.946  -5.086  1.00  0.00     0.066 A 
HETATM   13  C12 UNL     1      48.059  10.744  -6.159  1.00  0.00     0.067 A 
HETATM   14  C13 UNL     1      47.543  10.466  -7.404  1.00  0.00     0.037 A 
HETATM   15  C14 UNL     1      46.654   9.441  -7.579  1.00  0.00     0.012 A 
HETATM   16  C15 UNL     1      46.277   8.690  -6.500  1.00  0.00    -0.035 A 
HETATM   17  C16 UNL     1      45.293   7.568  -6.717  1.00  0.00     0.050 C 
BRANCH  13  18
HETATM   18  O1  UNL     1      48.963  11.775  -5.947  1.00  0.00    -0.361 OA
ATOM     19  H1  UNL     1      49.483  12.107  -6.670  1.00  0.00     0.217 HD
ENDBRANCH  13  18
ENDBRANCH   9  11
ENDBRANCH   3   9
BRANCH   1  20
HETATM   20  N2  UNL     1      48.130   3.819  -2.355  1.00  0.00    -0.374 N 
ATOM     21  H2  UNL     1      48.943   3.478  -2.869  1.00  0.00     0.161 HD
BRANCH  20  22
HETATM   22  C6  UNL     1      47.238   2.865  -1.730  1.00  0.00     0.151 C 
BRANCH  22  23
HETATM   23  C5  UNL     1      46.134   2.414  -2.627  1.00  0.00     0.292 C 
BRANCH  23  24
HETATM   24  N1  UNL     1      46.548   1.714  -3.802  1.00  0.00     0.089 N 
BRANCH  24  25
HETATM   25  C2  UNL     1      46.899   0.336  -3.569  1.00  0.00     0.268 C 
HETATM   26  C1  UNL     1      47.100  -0.430  -4.860  1.00  0.00     0.037 C 
ENDBRANCH  24  25
BRANCH  24  27
HETATM   27  C3  UNL     1      45.647   1.896  -4.917  1.00  0.00     0.268 C 
HETATM   28  C4  UNL     1      45.812   3.278  -5.486  1.00  0.00     0.037 C 
ENDBRANCH  24  27
ENDBRANCH  23  24
ENDBRANCH  22  23
ENDBRANCH  20  22
ENDBRANCH   1  20
BRANCH   6  29
HETATM   29  N5  UNL     1      48.530   7.953   0.058  1.00  0.00    -0.141 N 
HETATM   30  C18 UNL     1      49.346   7.444   0.992  1.00  0.00     0.207 A 
HETATM   31  N6  UNL     1      49.582   8.368   1.958  1.00  0.00    -0.350 N 
HETATM   32  C19 UNL     1      48.903   9.459   1.618  1.00  0.00     0.061 A 
ATOM     33  H6  UNL     1      50.166   8.248   2.785  1.00  0.00     0.166 HD
HETATM   34  C20 UNL     1      48.803  10.685   2.264  1.00  0.00     0.032 A 
HETATM   35  C24 UNL     1      48.247   9.191   0.428  1.00  0.00     0.084 A 
HETATM   36  C21 UNL     1      48.026  11.677   1.709  1.00  0.00     0.002 A 
HETATM   37  C22 UNL     1      47.356  11.421   0.504  1.00  0.00     0.002 A 
HETATM   38  C23 UNL     1      47.481  10.184  -0.110  1.00  0.00     0.033 A 
ENDBRANCH   6  29
TORSDOF 10
ENDMDL
