MODEL 2
REMARK VINA RESULT: -9.455269473      0.466      1.229
REMARK  10 active torsions:
REMARK  status: ('A' for Active; 'I' for Inactive)
REMARK    1  A    between atoms: C2_2  and  N1_3 
REMARK    2  A    between atoms: N1_3  and  C3_4 
REMARK    3  A    between atoms: N1_3  and  C5_6 
REMARK    4  A    between atoms: C5_6  and  C6_7 
REMARK    5  A    between atoms: C6_7  and  N2_8 
REMARK    6  A    between atoms: N2_8  and  C7_10 
REMARK    7  A    between atoms: C9_12  and  N3_13 
REMARK    8  A    between atoms: N3_13  and  C10_15 
REMARK    9  A    between atoms: C12_17  and  O1_18 
REMARK   10  A    between atoms: C17_26  and  N5_27 
ROOT
HETATM    1  C7  UNL     1      46.584   7.630  -3.247  1.00  0.00     0.120 A 
HETATM    2  C8  UNL     1      47.197   8.504  -2.337  1.00  0.00     0.097 A 
HETATM    3  C9  UNL     1      47.733   9.704  -2.691  1.00  0.00     0.125 A 
HETATM    4  N4  UNL     1      47.624   9.995  -4.033  1.00  0.00    -0.176 N 
ATOM      5  H4  UNL     1      48.009  10.882  -4.358  1.00  0.00     0.186 HD
HETATM    6  C17 UNL     1      47.052   9.202  -4.936  1.00  0.00     0.693 A 
HETATM    7  N7  UNL     1      46.541   8.031  -4.528  1.00  0.00    -0.176 N 
ATOM      8  H7  UNL     1      46.103   7.422  -5.218  1.00  0.00     0.186 HD
ENDROOT
BRANCH   3   9
HETATM    9  N3  UNL     1      48.397  10.617  -1.852  1.00  0.00    -0.341 N 
ATOM     10  H3  UNL     1      48.670  11.480  -2.321  1.00  0.00     0.167 HD
BRANCH   9  11
HETATM   11  C10 UNL     1      48.754  10.573  -0.508  1.00  0.00     0.042 A 
HETATM   12  C11 UNL     1      49.744   9.849   0.088  1.00  0.00     0.066 A 
HETATM   13  C12 UNL     1      50.056   9.911   1.451  1.00  0.00     0.067 A 
HETATM   14  C13 UNL     1      49.314  10.760   2.241  1.00  0.00     0.037 A 
HETATM   15  C14 UNL     1      48.308  11.516   1.704  1.00  0.00     0.012 A 
HETATM   16  C15 UNL     1      48.041  11.419   0.366  1.00  0.00    -0.035 A 
HETATM   17  C16 UNL     1      46.925  12.259  -0.202  1.00  0.00     0.050 C 
BRANCH  13  18
HETATM   18  O1  UNL     1      51.083   9.133   1.964  1.00  0.00    -0.361 OA
ATOM     19  H1  UNL     1      51.867   8.981   1.449  1.00  0.00     0.217 HD
ENDBRANCH  13  18
ENDBRANCH   9  11
ENDBRANCH   3   9
BRANCH   1  20
HETATM   20  N2  UNL     1      46.038   6.377  -2.835  1.00  0.00    -0.374 N 
ATOM     21  H2  UNL     1      45.171   6.363  -2.297  1.00  0.00     0.161 HD
BRANCH  20  22
HETATM   22  C6  UNL     1      46.686   5.125  -3.163  1.00  0.00     0.151 C 
BRANCH  22  23
HETATM   23  C5  UNL     1      47.195   4.393  -1.966  1.00  0.00     0.292 C 
BRANCH  23  24
HETATM   24  N1  UNL     1      48.199   5.076  -1.214  1.00  0.00     0.089 N 
BRANCH  24  25
HETATM   25  C2  UNL     1      47.823   5.351   0.150  1.00  0.00     0.268 C 
HETATM   26  C1  UNL     1      48.752   6.349   0.810  1.00  0.00     0.037 C 
ENDBRANCH  24  25
BRANCH  24  27
HETATM   27  C3  UNL     1      49.508   4.475  -1.338  1.00  0.00     0.268 C 
HETATM   28  C4  UNL     1      50.159   4.930  -2.615  1.00  0.00     0.037 C 
ENDBRANCH  24  27
ENDBRANCH  23  24
ENDBRANCH  22  23
ENDBRANCH  20  22
ENDBRANCH   1  20
BRANCH   6  29
HETATM   29  N5  UNL     1      46.956   9.563  -6.311  1.00  0.00    -0.141 N 
HETATM   30  C18 UNL     1      47.519  10.646  -6.866  1.00  0.00     0.207 A 
HETATM   31  N6  UNL     1      47.234  10.692  -8.192  1.00  0.00    -0.350 N 
HETATM   32  C19 UNL     1      46.486   9.625  -8.459  1.00  0.00     0.061 A 
ATOM     33  H6  UNL     1      47.535  11.406  -8.855  1.00  0.00     0.166 HD
HETATM   34  C20 UNL     1      45.930   9.205  -9.661  1.00  0.00     0.032 A 
HETATM   35  C24 UNL     1      46.317   8.925  -7.277  1.00  0.00     0.084 A 
HETATM   36  C21 UNL     1      45.181   8.050  -9.688  1.00  0.00     0.002 A 
HETATM   37  C22 UNL     1      45.001   7.329  -8.499  1.00  0.00     0.002 A 
HETATM   38  C23 UNL     1      45.573   7.782  -7.319  1.00  0.00     0.033 A 
ENDBRANCH   6  29
TORSDOF 10
ENDMDL
