MODEL 4
REMARK VINA RESULT: -7.410649942      4.259      7.742
REMARK  9 active torsions:
REMARK  status: ('A' for Active; 'I' for Inactive)
REMARK    1  A    between atoms: N1_1  and  S1_4 
REMARK    2  A    between atoms: S1_4  and  C1_7 
REMARK    3  A    between atoms: C4_10  and  N2_11 
REMARK    4  A    between atoms: N2_11  and  C5_13 
REMARK    5  A    between atoms: C6_15  and  C7_16 
REMARK    6  A    between atoms: C7_16  and  O4_17 
REMARK    7  A    between atoms: C8_19  and  O5_20 
REMARK    8  A    between atoms: C9_22  and  O6_23 
REMARK    9  A    between atoms: C10_25  and  O7_26 
ROOT
HETATM    1  C5  UNL     1      -3.175   2.695  12.063  1.00  0.00     0.253 C 
HETATM    2  O3  UNL     1      -3.388   2.819  13.396  1.00  0.00    -0.354 OA
HETATM    3  C6  UNL     1      -4.341   2.075  13.999  1.00  0.00     0.179 C 
HETATM    4  C8  UNL     1      -4.111   0.619  13.566  1.00  0.00     0.180 C 
HETATM    5  C9  UNL     1      -4.635   0.614  12.130  1.00  0.00     0.182 C 
HETATM    6  C10 UNL     1      -3.996   1.694  11.333  1.00  0.00     0.198 C 
ENDROOT
BRANCH   1   7
HETATM    7  N2  UNL     1      -1.768   2.335  11.874  1.00  0.00    -0.362 N 
ATOM      8  H2  UNL     1      -1.348   1.691  12.545  1.00  0.00     0.162 HD
BRANCH   7   9
HETATM    9  C4  UNL     1      -0.957   2.815  10.833  1.00  0.00     0.030 A 
HETATM   10  C3  UNL     1      -1.072   2.236   9.582  1.00  0.00     0.031 A 
HETATM   11  C2  UNL     1      -0.311   2.637   8.521  1.00  0.00     0.027 A 
HETATM   12  C1  UNL     1       0.611   3.646   8.655  1.00  0.00     0.079 A 
HETATM   13  C12 UNL     1       0.751   4.238   9.877  1.00  0.00     0.027 A 
HETATM   14  C11 UNL     1      -0.027   3.828  10.963  1.00  0.00     0.031 A 
BRANCH  12  15
HETATM   15  S1  UNL     1       1.563   4.128   7.277  1.00  0.00     0.256 S 
HETATM   16  O1  UNL     1       1.441   5.623   7.116  1.00  0.00    -0.201 OA
HETATM   17  O2  UNL     1       2.999   3.720   7.424  1.00  0.00    -0.201 OA
BRANCH  15  18
HETATM   18  N1  UNL     1       0.853   3.405   5.875  1.00  0.00    -0.324 N 
ATOM     19  H12 UNL     1       0.762   3.846   4.961  1.00  0.00     0.169 HD
ATOM     20  H11 UNL     1       0.551   2.469   6.141  1.00  0.00     0.169 HD
ENDBRANCH  15  18
ENDBRANCH  12  15
ENDBRANCH   7   9
ENDBRANCH   1   7
BRANCH   6  21
HETATM   21  O7  UNL     1      -5.000   2.322  10.579  1.00  0.00    -0.389 OA
ATOM     22  H7  UNL     1      -4.635   2.740   9.809  1.00  0.00     0.210 HD
ENDBRANCH   6  21
BRANCH   3  23
HETATM   23  C7  UNL     1      -4.218   2.203  15.498  1.00  0.00     0.198 C 
BRANCH  23  24
HETATM   24  O4  UNL     1      -3.130   1.469  15.984  1.00  0.00    -0.398 OA
ATOM     25  H4  UNL     1      -3.022   1.590  16.920  1.00  0.00     0.209 HD
ENDBRANCH  23  24
ENDBRANCH   3  23
BRANCH   5  26
HETATM   26  O6  UNL     1      -4.500  -0.658  11.571  1.00  0.00    -0.390 OA
ATOM     27  H6  UNL     1      -3.956  -0.618  10.793  1.00  0.00     0.210 HD
ENDBRANCH   5  26
BRANCH   4  28
HETATM   28  O5  UNL     1      -4.797  -0.264  14.363  1.00  0.00    -0.390 OA
ATOM     29  H5  UNL     1      -4.597  -1.166  14.143  1.00  0.00     0.210 HD
ENDBRANCH   4  28
TORSDOF 9
ENDMDL
