MODEL 3
REMARK VINA RESULT: -7.439443952      4.245      7.728
REMARK  9 active torsions:
REMARK  status: ('A' for Active; 'I' for Inactive)
REMARK    1  A    between atoms: N1_1  and  S1_4 
REMARK    2  A    between atoms: S1_4  and  C1_7 
REMARK    3  A    between atoms: C4_10  and  N2_11 
REMARK    4  A    between atoms: N2_11  and  C5_13 
REMARK    5  A    between atoms: C6_15  and  C7_16 
REMARK    6  A    between atoms: C7_16  and  O4_17 
REMARK    7  A    between atoms: C8_19  and  O5_20 
REMARK    8  A    between atoms: C9_22  and  O6_23 
REMARK    9  A    between atoms: C10_25  and  O7_26 
ROOT
HETATM    1  C5  UNL     1      -3.162   2.730  12.132  1.00  0.00     0.253 C 
HETATM    2  O3  UNL     1      -3.350   2.854  13.470  1.00  0.00    -0.354 OA
HETATM    3  C6  UNL     1      -4.314   2.134  14.084  1.00  0.00     0.179 C 
HETATM    4  C8  UNL     1      -4.131   0.674  13.642  1.00  0.00     0.180 C 
HETATM    5  C9  UNL     1      -4.678   0.691  12.214  1.00  0.00     0.182 C 
HETATM    6  C10 UNL     1      -4.021   1.756  11.411  1.00  0.00     0.198 C 
ENDROOT
BRANCH   1   7
HETATM    7  N2  UNL     1      -1.768   2.332  11.920  1.00  0.00    -0.362 N 
ATOM      8  H2  UNL     1      -1.328   1.746  12.630  1.00  0.00     0.162 HD
BRANCH   7   9
HETATM    9  C4  UNL     1      -0.997   2.701  10.806  1.00  0.00     0.030 A 
HETATM   10  C3  UNL     1      -0.042   3.690  10.959  1.00  0.00     0.031 A 
HETATM   11  C2  UNL     1       0.739   4.114   9.922  1.00  0.00     0.027 A 
HETATM   12  C1  UNL     1       0.608   3.568   8.669  1.00  0.00     0.079 A 
HETATM   13  C12 UNL     1      -0.326   2.589   8.484  1.00  0.00     0.027 A 
HETATM   14  C11 UNL     1      -1.127   2.155   9.544  1.00  0.00     0.031 A 
BRANCH  12  15
HETATM   15  S1  UNL     1       1.624   4.136   7.373  1.00  0.00     0.256 S 
HETATM   16  O1  UNL     1       1.334   5.599   7.150  1.00  0.00    -0.201 OA
HETATM   17  O2  UNL     1       3.078   3.916   7.669  1.00  0.00    -0.201 OA
BRANCH  15  18
HETATM   18  N1  UNL     1       1.151   3.298   5.935  1.00  0.00    -0.324 N 
ATOM     19  H12 UNL     1       1.251   3.649   4.983  1.00  0.00     0.169 HD
ATOM     20  H11 UNL     1       0.760   2.402   6.225  1.00  0.00     0.169 HD
ENDBRANCH  15  18
ENDBRANCH  12  15
ENDBRANCH   7   9
ENDBRANCH   1   7
BRANCH   6  21
HETATM   21  O7  UNL     1      -5.020   2.415  10.677  1.00  0.00    -0.389 OA
ATOM     22  H7  UNL     1      -5.416   1.829  10.041  1.00  0.00     0.210 HD
ENDBRANCH   6  21
BRANCH   3  23
HETATM   23  C7  UNL     1      -4.165   2.252  15.582  1.00  0.00     0.198 C 
BRANCH  23  24
HETATM   24  O4  UNL     1      -3.133   1.433  16.056  1.00  0.00    -0.398 OA
ATOM     25  H4  UNL     1      -2.767   1.772  16.865  1.00  0.00     0.209 HD
ENDBRANCH  23  24
ENDBRANCH   3  23
BRANCH   5  26
HETATM   26  O6  UNL     1      -4.587  -0.582  11.648  1.00  0.00    -0.390 OA
ATOM     27  H6  UNL     1      -5.116  -0.629  10.861  1.00  0.00     0.210 HD
ENDBRANCH   5  26
BRANCH   4  28
HETATM   28  O5  UNL     1      -4.830  -0.193  14.446  1.00  0.00    -0.390 OA
ATOM     29  H5  UNL     1      -4.586  -1.097  14.285  1.00  0.00     0.210 HD
ENDBRANCH   4  28
TORSDOF 9
ENDMDL
