MODEL 8
REMARK VINA RESULT: -7.227823111      4.336      7.810
REMARK  9 active torsions:
REMARK  status: ('A' for Active; 'I' for Inactive)
REMARK    1  A    between atoms: N1_1  and  S1_4 
REMARK    2  A    between atoms: S1_4  and  C1_7 
REMARK    3  A    between atoms: C4_10  and  N2_11 
REMARK    4  A    between atoms: N2_11  and  C5_13 
REMARK    5  A    between atoms: C6_15  and  C7_16 
REMARK    6  A    between atoms: C7_16  and  O4_17 
REMARK    7  A    between atoms: C8_19  and  O5_20 
REMARK    8  A    between atoms: C9_22  and  O6_23 
REMARK    9  A    between atoms: C10_25  and  O7_26 
ROOT
HETATM    1  C5  UNL     1      -2.951   2.556  11.800  1.00  0.00     0.253 C 
HETATM    2  O3  UNL     1      -3.132   2.830  13.116  1.00  0.00    -0.354 OA
HETATM    3  C6  UNL     1      -4.145   2.247  13.793  1.00  0.00     0.179 C 
HETATM    4  C8  UNL     1      -4.065   0.740  13.504  1.00  0.00     0.180 C 
HETATM    5  C9  UNL     1      -4.608   0.648  12.078  1.00  0.00     0.182 C 
HETATM    6  C10 UNL     1      -3.876   1.576  11.175  1.00  0.00     0.198 C 
ENDROOT
BRANCH   1   7
HETATM    7  N2  UNL     1      -1.589   2.041  11.641  1.00  0.00    -0.362 N 
ATOM      8  H2  UNL     1      -1.312   1.244  12.215  1.00  0.00     0.162 HD
BRANCH   7   9
HETATM    9  C4  UNL     1      -0.637   2.570  10.754  1.00  0.00     0.030 A 
HETATM   10  C3  UNL     1       0.359   3.385  11.258  1.00  0.00     0.031 A 
HETATM   11  C2  UNL     1       1.313   3.948  10.460  1.00  0.00     0.027 A 
HETATM   12  C1  UNL     1       1.323   3.723   9.105  1.00  0.00     0.079 A 
HETATM   13  C12 UNL     1       0.353   2.923   8.574  1.00  0.00     0.027 A 
HETATM   14  C11 UNL     1      -0.625   2.347   9.390  1.00  0.00     0.031 A 
BRANCH  12  15
HETATM   15  S1  UNL     1       2.558   4.459   8.120  1.00  0.00     0.256 S 
HETATM   16  O1  UNL     1       3.775   4.690   8.980  1.00  0.00    -0.201 OA
HETATM   17  O2  UNL     1       2.896   3.614   6.928  1.00  0.00    -0.201 OA
BRANCH  15  18
HETATM   18  N1  UNL     1       1.977   6.014   7.632  1.00  0.00    -0.324 N 
ATOM     19  H12 UNL     1       1.865   6.331   6.670  1.00  0.00     0.169 HD
ATOM     20  H11 UNL     1       1.773   6.539   8.482  1.00  0.00     0.169 HD
ENDBRANCH  15  18
ENDBRANCH  12  15
ENDBRANCH   7   9
ENDBRANCH   1   7
BRANCH   6  21
HETATM   21  O7  UNL     1      -4.825   2.224  10.368  1.00  0.00    -0.389 OA
ATOM     22  H7  UNL     1      -4.894   1.802   9.520  1.00  0.00     0.210 HD
ENDBRANCH   6  21
BRANCH   3  23
HETATM   23  C7  UNL     1      -3.989   2.507  15.272  1.00  0.00     0.198 C 
BRANCH  23  24
HETATM   24  O4  UNL     1      -3.147   1.562  15.869  1.00  0.00    -0.398 OA
ATOM     25  H4  UNL     1      -3.269   1.536  16.811  1.00  0.00     0.209 HD
ENDBRANCH  23  24
ENDBRANCH   3  23
BRANCH   5  26
HETATM   26  O6  UNL     1      -4.606  -0.680  11.646  1.00  0.00    -0.390 OA
ATOM     27  H6  UNL     1      -5.234  -1.188  12.146  1.00  0.00     0.210 HD
ENDBRANCH   5  26
BRANCH   4  28
HETATM   28  O5  UNL     1      -4.824   0.011  14.387  1.00  0.00    -0.390 OA
ATOM     29  H5  UNL     1      -4.703  -0.924  14.268  1.00  0.00     0.210 HD
ENDBRANCH   4  28
TORSDOF 9
ENDMDL
