MODEL 6
REMARK VINA RESULT: -7.570768854      0.903      1.182
REMARK  8 active torsions:
REMARK  status: ('A' for Active; 'I' for Inactive)
REMARK    1  A    between atoms: N5_13  and  C6_14 
REMARK    2  A    between atoms: C7_16  and  C8_17 
REMARK    3  A    between atoms: C8_17  and  O2_18 
REMARK    4  A    between atoms: O2_18  and  P1_19 
REMARK    5  A    between atoms: P1_19  and  O5_22 
REMARK    6  A    between atoms: O5_22  and  P2_23 
REMARK    7  A    between atoms: C9_27  and  O9_28 
REMARK    8  A    between atoms: C10_30  and  O10_31 
ROOT
HETATM    1  C6  UNL     1     109.594  53.935  13.294  1.00  0.00     0.262 C 
HETATM    2  O1  UNL     1     109.287  53.194  14.436  1.00  0.00    -0.353 OA
HETATM    3  C7  UNL     1     109.964  52.006  14.164  1.00  0.00     0.180 C 
HETATM    4  C9  UNL     1     111.329  52.402  13.671  1.00  0.00     0.182 C 
HETATM    5  C10 UNL     1     111.104  53.872  13.292  1.00  0.00     0.198 C 
ENDROOT
BRANCH   1   6
HETATM    6  N5  UNL     1     109.086  55.276  13.345  1.00  0.00    -0.297 N 
HETATM    7  C3  UNL     1     108.079  55.718  12.561  1.00  0.00     0.142 A 
HETATM    8  N3  UNL     1     107.343  55.095  11.608  1.00  0.00    -0.336 N 
HETATM    9  C4  UNL     1     107.823  57.042  12.846  1.00  0.00     0.119 A 
HETATM   10  C2  UNL     1     106.366  55.721  10.925  1.00  0.00     0.183 A 
ATOM     11  H3  UNL     1     107.537  54.115  11.401  1.00  0.00     0.168 HD
HETATM   12  N2  UNL     1     106.121  56.997  11.202  1.00  0.00    -0.339 N 
HETATM   13  C1  UNL     1     106.825  57.669  12.144  1.00  0.00     0.148 A 
ATOM     14  H2  UNL     1     105.384  57.484  10.692  1.00  0.00     0.167 HD
HETATM   15  N1  UNL     1     106.531  59.011  12.402  1.00  0.00    -0.080 NA
HETATM   16  N4  UNL     1     108.697  57.373  13.814  1.00  0.00    -0.346 N 
HETATM   17  C5  UNL     1     109.453  56.299  14.106  1.00  0.00     0.188 A 
ATOM     18  H4  UNL     1     108.773  58.290  14.254  1.00  0.00     0.167 HD
ENDBRANCH   1   6
BRANCH   5  19
HETATM   19  O10 UNL     1     111.664  54.167  12.071  1.00  0.00    -0.388 OA
ATOM     20  H10 UNL     1     112.403  53.615  11.850  1.00  0.00     0.210 HD
ENDBRANCH   5  19
BRANCH   3  21
HETATM   21  C8  UNL     1     110.024  51.099  15.371  1.00  0.00     0.216 C 
BRANCH  21  22
HETATM   22  O2  UNL     1     110.660  51.768  16.370  1.00  0.00    -0.287 OA
BRANCH  22  23
HETATM   23  P1  UNL     1     111.461  50.897  17.501  1.00  0.00     0.418 P 
HETATM   24  O3  UNL     1     112.712  50.727  16.642  1.00  0.00    -0.624 OA
HETATM   25  O4  UNL     1     112.423  51.773  18.624  1.00  0.00    -0.624 OA
BRANCH  23  26
HETATM   26  O5  UNL     1     111.217  49.321  17.713  1.00  0.00    -0.173 OA
BRANCH  26  27
HETATM   27  P2  UNL     1     112.511  48.317  17.861  1.00  0.00     0.431 P 
HETATM   28  O6  UNL     1     113.431  48.348  19.190  1.00  0.00    -0.616 OA
HETATM   29  O7  UNL     1     113.000  47.428  16.509  1.00  0.00    -0.616 OA
HETATM   30  O8  UNL     1     111.603  47.151  18.254  1.00  0.00    -0.616 OA
ENDBRANCH  26  27
ENDBRANCH  23  26
ENDBRANCH  22  23
ENDBRANCH  21  22
ENDBRANCH   3  21
BRANCH   4  31
HETATM   31  O9  UNL     1     111.633  51.746  12.470  1.00  0.00    -0.390 OA
ATOM     32  H9  UNL     1     112.060  52.338  11.863  1.00  0.00     0.210 HD
ENDBRANCH   4  31
TORSDOF 8
ENDMDL
