MODEL 20
REMARK VINA RESULT: -7.046581219      3.043      4.729
REMARK  8 active torsions:
REMARK  status: ('A' for Active; 'I' for Inactive)
REMARK    1  A    between atoms: N5_13  and  C6_14 
REMARK    2  A    between atoms: C7_16  and  C8_17 
REMARK    3  A    between atoms: C8_17  and  O2_18 
REMARK    4  A    between atoms: O2_18  and  P1_19 
REMARK    5  A    between atoms: P1_19  and  O5_22 
REMARK    6  A    between atoms: O5_22  and  P2_23 
REMARK    7  A    between atoms: C9_27  and  O9_28 
REMARK    8  A    between atoms: C10_30  and  O10_31 
ROOT
HETATM    1  C6  UNL     1     110.604  53.392  14.875  1.00  0.00     0.262 C 
HETATM    2  O1  UNL     1     110.222  52.686  16.016  1.00  0.00    -0.353 OA
HETATM    3  C7  UNL     1     109.904  51.448  15.461  1.00  0.00     0.180 C 
HETATM    4  C9  UNL     1     111.022  51.113  14.512  1.00  0.00     0.182 C 
HETATM    5  C10 UNL     1     111.673  52.487  14.307  1.00  0.00     0.198 C 
ENDROOT
BRANCH   1   6
HETATM    6  N5  UNL     1     111.082  54.714  15.169  1.00  0.00    -0.297 N 
HETATM    7  C3  UNL     1     111.854  55.003  16.237  1.00  0.00     0.142 A 
HETATM    8  N3  UNL     1     112.346  54.220  17.228  1.00  0.00    -0.336 N 
HETATM    9  C4  UNL     1     112.146  56.350  16.240  1.00  0.00     0.119 A 
HETATM   10  C2  UNL     1     113.112  54.708  18.223  1.00  0.00     0.183 A 
ATOM     11  H3  UNL     1     112.128  53.224  17.221  1.00  0.00     0.168 HD
HETATM   12  N2  UNL     1     113.390  56.007  18.224  1.00  0.00    -0.339 N 
HETATM   13  C1  UNL     1     112.927  56.836  17.258  1.00  0.00     0.148 A 
ATOM     14  H2  UNL     1     113.969  56.391  18.972  1.00  0.00     0.167 HD
HETATM   15  N1  UNL     1     113.247  58.196  17.300  1.00  0.00    -0.080 NA
HETATM   16  N4  UNL     1     111.531  56.850  15.154  1.00  0.00    -0.346 N 
HETATM   17  C5  UNL     1     110.892  55.853  14.515  1.00  0.00     0.188 A 
ATOM     18  H4  UNL     1     111.547  57.828  14.861  1.00  0.00     0.167 HD
ENDBRANCH   1   6
BRANCH   5  19
HETATM   19  O10 UNL     1     111.942  52.723  12.979  1.00  0.00    -0.388 OA
ATOM     20  H10 UNL     1     112.182  51.941  12.496  1.00  0.00     0.210 HD
ENDBRANCH   5  19
BRANCH   3  21
HETATM   21  C8  UNL     1     109.705  50.387  16.519  1.00  0.00     0.216 C 
BRANCH  21  22
HETATM   22  O2  UNL     1     110.924  50.060  17.024  1.00  0.00    -0.287 OA
BRANCH  22  23
HETATM   23  P1  UNL     1     110.999  48.927  18.202  1.00  0.00     0.418 P 
HETATM   24  O3  UNL     1     109.647  48.312  17.848  1.00  0.00    -0.624 OA
HETATM   25  O4  UNL     1     111.723  47.423  17.793  1.00  0.00    -0.624 OA
BRANCH  23  26
HETATM   26  O5  UNL     1     110.618  49.243  19.733  1.00  0.00    -0.173 OA
BRANCH  26  27
HETATM   27  P2  UNL     1     111.763  49.862  20.738  1.00  0.00     0.431 P 
HETATM   28  O6  UNL     1     112.421  51.310  20.447  1.00  0.00    -0.616 OA
HETATM   29  O7  UNL     1     112.407  48.860  21.939  1.00  0.00    -0.616 OA
HETATM   30  O8  UNL     1     110.693  50.308  21.736  1.00  0.00    -0.616 OA
ENDBRANCH  26  27
ENDBRANCH  23  26
ENDBRANCH  22  23
ENDBRANCH  21  22
ENDBRANCH   3  21
BRANCH   4  31
HETATM   31  O9  UNL     1     110.514  50.746  13.257  1.00  0.00    -0.390 OA
ATOM     32  H9  UNL     1     110.046  51.471  12.859  1.00  0.00     0.210 HD
ENDBRANCH   4  31
TORSDOF 8
ENDMDL
