MODEL 2
REMARK VINA RESULT: -8.009954021      0.575      1.027
REMARK  8 active torsions:
REMARK  status: ('A' for Active; 'I' for Inactive)
REMARK    1  A    between atoms: N5_13  and  C6_14 
REMARK    2  A    between atoms: C7_16  and  C8_17 
REMARK    3  A    between atoms: C8_17  and  O2_18 
REMARK    4  A    between atoms: O2_18  and  P1_19 
REMARK    5  A    between atoms: P1_19  and  O5_22 
REMARK    6  A    between atoms: O5_22  and  P2_23 
REMARK    7  A    between atoms: C9_27  and  O9_28 
REMARK    8  A    between atoms: C10_30  and  O10_31 
ROOT
HETATM    1  C6  UNL     1     109.432  53.636  13.523  1.00  0.00     0.262 C 
HETATM    2  O1  UNL     1     109.173  53.028  14.751  1.00  0.00    -0.353 OA
HETATM    3  C7  UNL     1     109.750  51.775  14.547  1.00  0.00     0.180 C 
HETATM    4  C9  UNL     1     111.092  52.026  13.917  1.00  0.00     0.182 C 
HETATM    5  C10 UNL     1     110.930  53.467  13.414  1.00  0.00     0.198 C 
ENDROOT
BRANCH   1   6
HETATM    6  N5  UNL     1     109.014  55.009  13.479  1.00  0.00    -0.297 N 
HETATM    7  C3  UNL     1     108.063  55.468  12.639  1.00  0.00     0.142 A 
HETATM    8  N3  UNL     1     107.314  54.840  11.701  1.00  0.00    -0.336 N 
HETATM    9  C4  UNL     1     107.890  56.821  12.840  1.00  0.00     0.119 A 
HETATM   10  C2  UNL     1     106.401  55.487  10.952  1.00  0.00     0.183 A 
ATOM     11  H3  UNL     1     107.446  53.839  11.557  1.00  0.00     0.168 HD
HETATM   12  N2  UNL     1     106.236  56.791  11.146  1.00  0.00    -0.339 N 
HETATM   13  C1  UNL     1     106.957  57.469  12.071  1.00  0.00     0.148 A 
ATOM     14  H2  UNL     1     105.549  57.294  10.585  1.00  0.00     0.167 HD
HETATM   15  N1  UNL     1     106.747  58.841  12.241  1.00  0.00    -0.080 NA
HETATM   16  N4  UNL     1     108.755  57.150  13.815  1.00  0.00    -0.346 N 
HETATM   17  C5  UNL     1     109.429  56.048  14.192  1.00  0.00     0.188 A 
ATOM     18  H4  UNL     1     108.881  58.085  14.204  1.00  0.00     0.167 HD
ENDBRANCH   1   6
BRANCH   5  19
HETATM   19  O10 UNL     1     111.406  53.608  12.131  1.00  0.00    -0.388 OA
ATOM     20  H10 UNL     1     111.018  54.336  11.660  1.00  0.00     0.210 HD
ENDBRANCH   5  19
BRANCH   3  21
HETATM   21  C8  UNL     1     109.851  50.982  15.829  1.00  0.00     0.216 C 
BRANCH  21  22
HETATM   22  O2  UNL     1     110.792  51.569  16.616  1.00  0.00    -0.287 OA
BRANCH  22  23
HETATM   23  P1  UNL     1     111.587  50.639  17.703  1.00  0.00     0.418 P 
HETATM   24  O3  UNL     1     112.925  50.737  16.973  1.00  0.00    -0.624 OA
HETATM   25  O4  UNL     1     112.321  51.446  19.031  1.00  0.00    -0.624 OA
BRANCH  23  26
HETATM   26  O5  UNL     1     111.526  49.032  17.676  1.00  0.00    -0.173 OA
BRANCH  26  27
HETATM   27  P2  UNL     1     110.349  48.255  18.524  1.00  0.00     0.431 P 
HETATM   28  O6  UNL     1     109.045  47.664  17.773  1.00  0.00    -0.616 OA
HETATM   29  O7  UNL     1     110.414  48.296  20.213  1.00  0.00    -0.616 OA
HETATM   30  O8  UNL     1     111.178  46.970  18.560  1.00  0.00    -0.616 OA
ENDBRANCH  26  27
ENDBRANCH  23  26
ENDBRANCH  22  23
ENDBRANCH  21  22
ENDBRANCH   3  21
BRANCH   4  31
HETATM   31  O9  UNL     1     111.256  51.242  12.766  1.00  0.00    -0.390 OA
ATOM     32  H9  UNL     1     111.837  51.669  12.149  1.00  0.00     0.210 HD
ENDBRANCH   4  31
TORSDOF 8
ENDMDL
