MODEL 1
REMARK VINA RESULT: -8.035418082      0.000      0.000
REMARK  8 active torsions:
REMARK  status: ('A' for Active; 'I' for Inactive)
REMARK    1  A    between atoms: N5_13  and  C6_14 
REMARK    2  A    between atoms: C7_16  and  C8_17 
REMARK    3  A    between atoms: C8_17  and  O2_18 
REMARK    4  A    between atoms: O2_18  and  P1_19 
REMARK    5  A    between atoms: P1_19  and  O5_22 
REMARK    6  A    between atoms: O5_22  and  P2_23 
REMARK    7  A    between atoms: C9_27  and  O9_28 
REMARK    8  A    between atoms: C10_30  and  O10_31 
ROOT
HETATM    1  C6  UNL     1     109.605  53.939  13.288  1.00  0.00     0.262 C 
HETATM    2  O1  UNL     1     109.293  53.184  14.419  1.00  0.00    -0.353 OA
HETATM    3  C7  UNL     1     109.982  52.004  14.142  1.00  0.00     0.180 C 
HETATM    4  C9  UNL     1     111.349  52.417  13.668  1.00  0.00     0.182 C 
HETATM    5  C10 UNL     1     111.115  53.889  13.302  1.00  0.00     0.198 C 
ENDROOT
BRANCH   1   6
HETATM    6  N5  UNL     1     109.084  55.275  13.346  1.00  0.00    -0.297 N 
HETATM    7  C3  UNL     1     108.077  55.713  12.562  1.00  0.00     0.142 A 
HETATM    8  N3  UNL     1     107.350  55.091  11.602  1.00  0.00    -0.336 N 
HETATM    9  C4  UNL     1     107.807  57.032  12.856  1.00  0.00     0.119 A 
HETATM   10  C2  UNL     1     106.369  55.712  10.920  1.00  0.00     0.183 A 
ATOM     11  H3  UNL     1     107.553  54.114  11.389  1.00  0.00     0.168 HD
HETATM   12  N2  UNL     1     106.112  56.984  11.205  1.00  0.00    -0.339 N 
HETATM   13  C1  UNL     1     106.806  57.655  12.155  1.00  0.00     0.148 A 
ATOM     14  H2  UNL     1     105.372  57.468  10.696  1.00  0.00     0.167 HD
HETATM   15  N1  UNL     1     106.499  58.993  12.421  1.00  0.00    -0.080 NA
HETATM   16  N4  UNL     1     108.674  57.364  13.829  1.00  0.00    -0.346 N 
HETATM   17  C5  UNL     1     109.439  56.295  14.116  1.00  0.00     0.188 A 
ATOM     18  H4  UNL     1     108.740  58.279  14.277  1.00  0.00     0.167 HD
ENDBRANCH   1   6
BRANCH   5  19
HETATM   19  O10 UNL     1     111.686  54.202  12.090  1.00  0.00    -0.388 OA
ATOM     20  H10 UNL     1     111.800  53.451  11.520  1.00  0.00     0.210 HD
ENDBRANCH   5  19
BRANCH   3  21
HETATM   21  C8  UNL     1     110.038  51.086  15.341  1.00  0.00     0.216 C 
BRANCH  21  22
HETATM   22  O2  UNL     1     110.651  51.752  16.355  1.00  0.00    -0.287 OA
BRANCH  22  23
HETATM   23  P1  UNL     1     111.540  50.891  17.425  1.00  0.00     0.418 P 
HETATM   24  O3  UNL     1     112.808  50.937  16.575  1.00  0.00    -0.624 OA
HETATM   25  O4  UNL     1     112.387  51.778  18.629  1.00  0.00    -0.624 OA
BRANCH  23  26
HETATM   26  O5  UNL     1     111.480  49.286  17.507  1.00  0.00    -0.173 OA
BRANCH  26  27
HETATM   27  P2  UNL     1     110.569  48.571  18.676  1.00  0.00     0.431 P 
HETATM   28  O6  UNL     1     110.531  49.174  20.175  1.00  0.00    -0.616 OA
HETATM   29  O7  UNL     1     109.867  47.069  18.344  1.00  0.00    -0.616 OA
HETATM   30  O8  UNL     1     109.301  49.240  18.143  1.00  0.00    -0.616 OA
ENDBRANCH  26  27
ENDBRANCH  23  26
ENDBRANCH  22  23
ENDBRANCH  21  22
ENDBRANCH   3  21
BRANCH   4  31
HETATM   31  O9  UNL     1     111.672  51.776  12.464  1.00  0.00    -0.390 OA
ATOM     32  H9  UNL     1     111.549  52.363  11.727  1.00  0.00     0.210 HD
ENDBRANCH   4  31
TORSDOF 8
ENDMDL
