MODEL 13
REMARK VINA RESULT: -7.152887476      1.656      2.505
REMARK  8 active torsions:
REMARK  status: ('A' for Active; 'I' for Inactive)
REMARK    1  A    between atoms: N5_13  and  C6_14 
REMARK    2  A    between atoms: C7_16  and  C8_17 
REMARK    3  A    between atoms: C8_17  and  O2_18 
REMARK    4  A    between atoms: O2_18  and  P1_19 
REMARK    5  A    between atoms: P1_19  and  O5_22 
REMARK    6  A    between atoms: O5_22  and  P2_23 
REMARK    7  A    between atoms: C9_27  and  O9_28 
REMARK    8  A    between atoms: C10_30  and  O10_31 
ROOT
HETATM    1  C6  UNL     1     109.552  53.324  13.926  1.00  0.00     0.262 C 
HETATM    2  O1  UNL     1     109.330  52.748  15.177  1.00  0.00    -0.353 OA
HETATM    3  C7  UNL     1     109.705  51.429  14.926  1.00  0.00     0.180 C 
HETATM    4  C9  UNL     1     111.003  51.497  14.168  1.00  0.00     0.182 C 
HETATM    5  C10 UNL     1     110.994  52.951  13.674  1.00  0.00     0.198 C 
ENDROOT
BRANCH   1   6
HETATM    6  N5  UNL     1     109.326  54.741  13.915  1.00  0.00    -0.297 N 
HETATM    7  C3  UNL     1     108.466  55.349  13.070  1.00  0.00     0.142 A 
HETATM    8  N3  UNL     1     107.660  54.854  12.099  1.00  0.00    -0.336 N 
HETATM    9  C4  UNL     1     108.473  56.706  13.307  1.00  0.00     0.119 A 
HETATM   10  C2  UNL     1     106.862  55.639  11.352  1.00  0.00     0.183 A 
ATOM     11  H3  UNL     1     107.659  53.848  11.928  1.00  0.00     0.168 HD
HETATM   12  N2  UNL     1     106.871  56.948  11.582  1.00  0.00    -0.339 N 
HETATM   13  C1  UNL     1     107.655  57.497  12.540  1.00  0.00     0.148 A 
ATOM     14  H2  UNL     1     106.272  57.555  11.022  1.00  0.00     0.167 HD
HETATM   15  N1  UNL     1     107.631  58.879  12.747  1.00  0.00    -0.080 NA
HETATM   16  N4  UNL     1     109.352  56.889  14.308  1.00  0.00    -0.346 N 
HETATM   17  C5  UNL     1     109.860  55.695  14.666  1.00  0.00     0.188 A 
ATOM     18  H4  UNL     1     109.595  57.787  14.728  1.00  0.00     0.167 HD
ENDBRANCH   1   6
BRANCH   5  19
HETATM   19  O10 UNL     1     111.360  53.034  12.351  1.00  0.00    -0.388 OA
ATOM     20  H10 UNL     1     112.292  53.164  12.223  1.00  0.00     0.210 HD
ENDBRANCH   5  19
BRANCH   3  21
HETATM   21  C8  UNL     1     109.818  50.620  16.197  1.00  0.00     0.216 C 
BRANCH  21  22
HETATM   22  O2  UNL     1     111.105  50.694  16.632  1.00  0.00    -0.287 OA
BRANCH  22  23
HETATM   23  P1  UNL     1     111.744  49.395  17.395  1.00  0.00     0.418 P 
HETATM   24  O3  UNL     1     111.513  49.966  18.793  1.00  0.00    -0.624 OA
HETATM   25  O4  UNL     1     110.665  48.121  17.803  1.00  0.00    -0.624 OA
BRANCH  23  26
HETATM   26  O5  UNL     1     113.329  49.194  17.581  1.00  0.00    -0.173 OA
BRANCH  26  27
HETATM   27  P2  UNL     1     114.151  48.242  16.521  1.00  0.00     0.431 P 
HETATM   28  O6  UNL     1     113.405  47.036  15.746  1.00  0.00    -0.616 OA
HETATM   29  O7  UNL     1     115.832  48.396  16.438  1.00  0.00    -0.616 OA
HETATM   30  O8  UNL     1     114.036  49.304  15.427  1.00  0.00    -0.616 OA
ENDBRANCH  26  27
ENDBRANCH  23  26
ENDBRANCH  22  23
ENDBRANCH  21  22
ENDBRANCH   3  21
BRANCH   4  31
HETATM   31  O9  UNL     1     110.945  50.707  13.012  1.00  0.00    -0.390 OA
ATOM     32  H9  UNL     1     111.445  51.103  12.308  1.00  0.00     0.210 HD
ENDBRANCH   4  31
TORSDOF 8
ENDMDL
