MODEL 15
REMARK VINA RESULT: -7.119931139      5.367      8.758
REMARK  8 active torsions:
REMARK  status: ('A' for Active; 'I' for Inactive)
REMARK    1  A    between atoms: N5_13  and  C6_14 
REMARK    2  A    between atoms: C7_16  and  C8_17 
REMARK    3  A    between atoms: C8_17  and  O2_18 
REMARK    4  A    between atoms: O2_18  and  P1_19 
REMARK    5  A    between atoms: P1_19  and  O5_22 
REMARK    6  A    between atoms: O5_22  and  P2_23 
REMARK    7  A    between atoms: C9_27  and  O9_28 
REMARK    8  A    between atoms: C10_30  and  O10_31 
ROOT
HETATM    1  C6  UNL     1     110.857  51.825  15.456  1.00  0.00     0.262 C 
HETATM    2  O1  UNL     1     110.713  53.061  16.087  1.00  0.00    -0.353 OA
HETATM    3  C7  UNL     1     110.870  53.925  15.004  1.00  0.00     0.180 C 
HETATM    4  C9  UNL     1     110.027  53.364  13.892  1.00  0.00     0.182 C 
HETATM    5  C10 UNL     1     109.813  51.920  14.368  1.00  0.00     0.198 C 
ENDROOT
BRANCH   1   6
HETATM    6  N5  UNL     1     110.648  50.717  16.344  1.00  0.00    -0.297 N 
HETATM    7  C3  UNL     1     111.651  49.955  16.828  1.00  0.00     0.142 A 
HETATM    8  N3  UNL     1     112.992  50.008  16.638  1.00  0.00    -0.336 N 
HETATM    9  C4  UNL     1     111.129  48.978  17.648  1.00  0.00     0.119 A 
HETATM   10  C2  UNL     1     113.840  49.140  17.221  1.00  0.00     0.183 A 
ATOM     11  H3  UNL     1     113.373  50.733  16.030  1.00  0.00     0.168 HD
HETATM   12  N2  UNL     1     113.335  48.199  18.011  1.00  0.00    -0.339 N 
HETATM   13  C1  UNL     1     112.003  48.099  18.237  1.00  0.00     0.148 A 
ATOM     14  H2  UNL     1     113.966  47.534  18.458  1.00  0.00     0.167 HD
HETATM   15  N1  UNL     1     111.517  47.093  19.077  1.00  0.00    -0.080 NA
HETATM   16  N4  UNL     1     109.800  49.178  17.640  1.00  0.00    -0.346 N 
HETATM   17  C5  UNL     1     109.521  50.231  16.849  1.00  0.00     0.188 A 
ATOM     18  H4  UNL     1     109.113  48.622  18.150  1.00  0.00     0.167 HD
ENDBRANCH   1   6
BRANCH   5  19
HETATM   19  O10 UNL     1     110.002  51.021  13.346  1.00  0.00    -0.388 OA
ATOM     20  H10 UNL     1     110.915  50.806  13.194  1.00  0.00     0.210 HD
ENDBRANCH   5  19
BRANCH   3  21
HETATM   21  C8  UNL     1     110.495  55.347  15.355  1.00  0.00     0.216 C 
BRANCH  21  22
HETATM   22  O2  UNL     1     110.196  56.001  14.201  1.00  0.00    -0.287 OA
BRANCH  22  23
HETATM   23  P1  UNL     1     109.332  57.387  14.296  1.00  0.00     0.418 P 
HETATM   24  O3  UNL     1     109.373  57.437  15.822  1.00  0.00    -0.624 OA
HETATM   25  O4  UNL     1     110.216  58.861  14.283  1.00  0.00    -0.624 OA
BRANCH  23  26
HETATM   26  O5  UNL     1     107.727  57.415  14.194  1.00  0.00    -0.173 OA
BRANCH  26  27
HETATM   27  P2  UNL     1     107.007  58.343  13.042  1.00  0.00     0.431 P 
HETATM   28  O6  UNL     1     106.299  57.662  11.759  1.00  0.00    -0.616 OA
HETATM   29  O7  UNL     1     107.229  60.018  13.103  1.00  0.00    -0.616 OA
HETATM   30  O8  UNL     1     105.760  58.513  13.911  1.00  0.00    -0.616 OA
ENDBRANCH  26  27
ENDBRANCH  23  26
ENDBRANCH  22  23
ENDBRANCH  21  22
ENDBRANCH   3  21
BRANCH   4  31
HETATM   31  O9  UNL     1     110.770  53.263  12.708  1.00  0.00    -0.390 OA
ATOM     32  H9  UNL     1     110.226  53.450  11.953  1.00  0.00     0.210 HD
ENDBRANCH   4  31
TORSDOF 8
ENDMDL
