MODEL 4
REMARK VINA RESULT: -7.587395915      1.057      1.784
REMARK  8 active torsions:
REMARK  status: ('A' for Active; 'I' for Inactive)
REMARK    1  A    between atoms: N5_13  and  C6_14 
REMARK    2  A    between atoms: C7_16  and  C8_17 
REMARK    3  A    between atoms: C8_17  and  O2_18 
REMARK    4  A    between atoms: O2_18  and  P1_19 
REMARK    5  A    between atoms: P1_19  and  O5_22 
REMARK    6  A    between atoms: O5_22  and  P2_23 
REMARK    7  A    between atoms: C9_27  and  O9_28 
REMARK    8  A    between atoms: C10_30  and  O10_31 
ROOT
HETATM    1  C6  UNL     1     109.442  53.700  13.490  1.00  0.00     0.262 C 
HETATM    2  O1  UNL     1     109.139  53.070  14.698  1.00  0.00    -0.353 OA
HETATM    3  C7  UNL     1     109.743  51.828  14.501  1.00  0.00     0.180 C 
HETATM    4  C9  UNL     1     111.108  52.109  13.935  1.00  0.00     0.182 C 
HETATM    5  C10 UNL     1     110.946  53.555  13.445  1.00  0.00     0.198 C 
ENDROOT
BRANCH   1   6
HETATM    6  N5  UNL     1     109.006  55.066  13.448  1.00  0.00    -0.297 N 
HETATM    7  C3  UNL     1     108.039  55.511  12.618  1.00  0.00     0.142 A 
HETATM    8  N3  UNL     1     107.287  54.870  11.691  1.00  0.00    -0.336 N 
HETATM    9  C4  UNL     1     107.849  56.861  12.817  1.00  0.00     0.119 A 
HETATM   10  C2  UNL     1     106.356  55.502  10.950  1.00  0.00     0.183 A 
ATOM     11  H3  UNL     1     107.431  53.870  11.548  1.00  0.00     0.168 HD
HETATM   12  N2  UNL     1     106.176  56.804  11.143  1.00  0.00    -0.339 N 
HETATM   13  C1  UNL     1     106.899  57.495  12.057  1.00  0.00     0.148 A 
ATOM     14  H2  UNL     1     105.476  57.297  10.589  1.00  0.00     0.167 HD
HETATM   15  N1  UNL     1     106.673  58.865  12.226  1.00  0.00    -0.080 NA
HETATM   16  N4  UNL     1     108.722  57.206  13.780  1.00  0.00    -0.346 N 
HETATM   17  C5  UNL     1     109.415  56.114  14.153  1.00  0.00     0.188 A 
ATOM     18  H4  UNL     1     108.840  58.143  14.165  1.00  0.00     0.167 HD
ENDBRANCH   1   6
BRANCH   5  19
HETATM   19  O10 UNL     1     111.475  53.721  12.187  1.00  0.00    -0.388 OA
ATOM     20  H10 UNL     1     111.915  52.948  11.855  1.00  0.00     0.210 HD
ENDBRANCH   5  19
BRANCH   3  21
HETATM   21  C8  UNL     1     109.800  51.018  15.776  1.00  0.00     0.216 C 
BRANCH  21  22
HETATM   22  O2  UNL     1     111.063  50.532  15.911  1.00  0.00    -0.287 OA
BRANCH  22  23
HETATM   23  P1  UNL     1     111.485  49.852  17.338  1.00  0.00     0.418 P 
HETATM   24  O3  UNL     1     110.042  49.606  17.773  1.00  0.00    -0.624 OA
HETATM   25  O4  UNL     1     111.716  48.149  17.353  1.00  0.00    -0.624 OA
BRANCH  23  26
HETATM   26  O5  UNL     1     111.878  50.725  18.631  1.00  0.00    -0.173 OA
BRANCH  26  27
HETATM   27  P2  UNL     1     112.113  49.970  20.073  1.00  0.00     0.431 P 
HETATM   28  O6  UNL     1     113.536  49.288  20.424  1.00  0.00    -0.616 OA
HETATM   29  O7  UNL     1     110.776  49.715  21.076  1.00  0.00    -0.616 OA
HETATM   30  O8  UNL     1     112.338  51.310  20.775  1.00  0.00    -0.616 OA
ENDBRANCH  26  27
ENDBRANCH  23  26
ENDBRANCH  22  23
ENDBRANCH  21  22
ENDBRANCH   3  21
BRANCH   4  31
HETATM   31  O9  UNL     1     111.334  51.344  12.781  1.00  0.00    -0.390 OA
ATOM     32  H9  UNL     1     112.206  50.969  12.793  1.00  0.00     0.210 HD
ENDBRANCH   4  31
TORSDOF 8
ENDMDL
