MODEL 14
REMARK VINA RESULT: -7.126423813      2.850      4.734
REMARK  8 active torsions:
REMARK  status: ('A' for Active; 'I' for Inactive)
REMARK    1  A    between atoms: N5_13  and  C6_14 
REMARK    2  A    between atoms: C7_16  and  C8_17 
REMARK    3  A    between atoms: C8_17  and  O2_18 
REMARK    4  A    between atoms: O2_18  and  P1_19 
REMARK    5  A    between atoms: P1_19  and  O5_22 
REMARK    6  A    between atoms: O5_22  and  P2_23 
REMARK    7  A    between atoms: C9_27  and  O9_28 
REMARK    8  A    between atoms: C10_30  and  O10_31 
ROOT
HETATM    1  C6  UNL     1     109.965  53.823  13.135  1.00  0.00     0.262 C 
HETATM    2  O1  UNL     1     109.913  53.556  14.504  1.00  0.00    -0.353 OA
HETATM    3  C7  UNL     1     111.011  52.708  14.645  1.00  0.00     0.180 C 
HETATM    4  C9  UNL     1     112.138  53.348  13.881  1.00  0.00     0.182 C 
HETATM    5  C10 UNL     1     111.379  54.335  12.983  1.00  0.00     0.198 C 
ENDROOT
BRANCH   1   6
HETATM    6  N5  UNL     1     108.973  54.771  12.712  1.00  0.00    -0.297 N 
HETATM    7  C3  UNL     1     108.869  56.014  13.227  1.00  0.00     0.142 A 
HETATM    8  N3  UNL     1     109.586  56.654  14.182  1.00  0.00    -0.336 N 
HETATM    9  C4  UNL     1     107.825  56.676  12.617  1.00  0.00     0.119 A 
HETATM   10  C2  UNL     1     109.319  57.918  14.562  1.00  0.00     0.183 A 
ATOM     11  H3  UNL     1     110.357  56.160  14.631  1.00  0.00     0.168 HD
HETATM   12  N2  UNL     1     108.312  58.554  13.973  1.00  0.00    -0.339 N 
HETATM   13  C1  UNL     1     107.563  57.963  13.011  1.00  0.00     0.148 A 
ATOM     14  H2  UNL     1     108.097  59.512  14.251  1.00  0.00     0.167 HD
HETATM   15  N1  UNL     1     106.513  58.672  12.418  1.00  0.00    -0.080 NA
HETATM   16  N4  UNL     1     107.317  55.800  11.732  1.00  0.00    -0.346 N 
HETATM   17  C5  UNL     1     108.018  54.654  11.799  1.00  0.00     0.188 A 
ATOM     18  H4  UNL     1     106.527  55.977  11.110  1.00  0.00     0.167 HD
ENDBRANCH   1   6
BRANCH   5  19
HETATM   19  O10 UNL     1     111.840  54.293  11.688  1.00  0.00    -0.388 OA
ATOM     20  H10 UNL     1     111.688  55.096  11.205  1.00  0.00     0.210 HD
ENDBRANCH   5  19
BRANCH   3  21
HETATM   21  C8  UNL     1     111.358  52.467  16.095  1.00  0.00     0.216 C 
BRANCH  21  22
HETATM   22  O2  UNL     1     110.837  53.487  16.829  1.00  0.00    -0.287 OA
BRANCH  22  23
HETATM   23  P1  UNL     1     111.785  54.784  17.140  1.00  0.00     0.418 P 
HETATM   24  O3  UNL     1     110.797  55.408  18.124  1.00  0.00    -0.624 OA
HETATM   25  O4  UNL     1     112.899  54.643  18.440  1.00  0.00    -0.624 OA
BRANCH  23  26
HETATM   26  O5  UNL     1     111.846  56.063  16.167  1.00  0.00    -0.173 OA
BRANCH  26  27
HETATM   27  P2  UNL     1     113.136  57.081  16.252  1.00  0.00     0.431 P 
HETATM   28  O6  UNL     1     114.433  56.847  15.315  1.00  0.00    -0.616 OA
HETATM   29  O7  UNL     1     113.179  58.225  17.495  1.00  0.00    -0.616 OA
HETATM   30  O8  UNL     1     112.422  58.112  15.377  1.00  0.00    -0.616 OA
ENDBRANCH  26  27
ENDBRANCH  23  26
ENDBRANCH  22  23
ENDBRANCH  21  22
ENDBRANCH   3  21
BRANCH   4  31
HETATM   31  O9  UNL     1     112.733  52.426  13.008  1.00  0.00    -0.390 OA
ATOM     32  H9  UNL     1     112.870  51.593  13.443  1.00  0.00     0.210 HD
ENDBRANCH   4  31
TORSDOF 8
ENDMDL
