MODEL 12
REMARK VINA RESULT: -5.015006525      4.074      4.444
REMARK  2 active torsions:
REMARK  status: ('A' for Active; 'I' for Inactive)
REMARK    1  A    between atoms: C2_7  and  S1_8 
REMARK    2  A    between atoms: S1_8  and  N4_9 
ROOT
HETATM    1  N1  UNL     1      -5.247   3.662  14.993  1.00  0.00    -0.073 NA
HETATM    2  C1  UNL     1      -4.832   2.616  14.106  1.00  0.00     0.175 A 
HETATM    3  N2  UNL     1      -4.441   1.388  14.440  1.00  0.00    -0.281 N 
ATOM      4  H2  UNL     1      -4.412   1.100  15.418  1.00  0.00     0.188 HD
HETATM    5  N3  UNL     1      -4.101   0.575  13.511  1.00  0.00    -0.281 N 
ATOM      6  H3  UNL     1      -3.800  -0.371  13.745  1.00  0.00     0.188 HD
HETATM    7  C2  UNL     1      -4.142   0.961  12.247  1.00  0.00     0.208 A 
HETATM    8  S2  UNL     1      -4.698   2.578  12.398  1.00  0.00    -0.023 SA
ENDROOT
BRANCH   7   9
HETATM    9  S1  UNL     1      -3.742   0.083  10.778  1.00  0.00     0.280 S 
HETATM   10  O1  UNL     1      -2.526   0.718  10.161  1.00  0.00    -0.199 OA
HETATM   11  O2  UNL     1      -4.847   0.119   9.787  1.00  0.00    -0.199 OA
BRANCH   9  12
HETATM   12  N4  UNL     1      -3.289  -1.536  11.209  1.00  0.00    -0.323 N 
ATOM     13  H42 UNL     1      -3.943  -2.283  11.441  1.00  0.00     0.169 HD
ATOM     14  H41 UNL     1      -2.272  -1.605  11.190  1.00  0.00     0.169 HD
ENDBRANCH   9  12
ENDBRANCH   7   9
TORSDOF 2
ENDMDL
