MODEL 5
REMARK VINA RESULT: -5.325143657      1.796      1.903
REMARK  2 active torsions:
REMARK  status: ('A' for Active; 'I' for Inactive)
REMARK    1  A    between atoms: C2_7  and  S1_8 
REMARK    2  A    between atoms: S1_8  and  N4_9 
ROOT
HETATM    1  N1  UNL     1      -5.492   5.729  12.549  1.00  0.00    -0.073 NA
HETATM    2  C1  UNL     1      -5.126   4.471  13.131  1.00  0.00     0.175 A 
HETATM    3  N2  UNL     1      -4.132   3.670  12.754  1.00  0.00    -0.281 N 
ATOM      4  H2  UNL     1      -3.529   3.923  11.971  1.00  0.00     0.188 HD
HETATM    5  N3  UNL     1      -3.947   2.575  13.392  1.00  0.00    -0.281 N 
ATOM      6  H3  UNL     1      -3.190   1.948  13.119  1.00  0.00     0.188 HD
HETATM    7  C2  UNL     1      -4.736   2.258  14.404  1.00  0.00     0.208 A 
HETATM    8  S2  UNL     1      -5.802   3.603  14.445  1.00  0.00    -0.023 SA
ENDROOT
BRANCH   7   9
HETATM    9  S1  UNL     1      -4.727   0.846  15.451  1.00  0.00     0.280 S 
HETATM   10  O1  UNL     1      -3.491   0.898  16.308  1.00  0.00    -0.199 OA
HETATM   11  O2  UNL     1      -4.711  -0.421  14.678  1.00  0.00    -0.199 OA
BRANCH   9  12
HETATM   12  N4  UNL     1      -6.082   0.950  16.530  1.00  0.00    -0.323 N 
ATOM     13  H42 UNL     1      -6.629   1.794  16.701  1.00  0.00     0.169 HD
ATOM     14  H41 UNL     1      -6.229   0.035  16.955  1.00  0.00     0.169 HD
ENDBRANCH   9  12
ENDBRANCH   7   9
TORSDOF 2
ENDMDL
