MODEL 7
REMARK VINA RESULT: -5.202335119      2.177      2.220
REMARK  2 active torsions:
REMARK  status: ('A' for Active; 'I' for Inactive)
REMARK    1  A    between atoms: C2_7  and  S1_8 
REMARK    2  A    between atoms: S1_8  and  N4_9 
ROOT
HETATM    1  N1  UNL     1      -4.215   5.316  13.544  1.00  0.00    -0.073 NA
HETATM    2  C1  UNL     1      -4.424   4.196  14.414  1.00  0.00     0.175 A 
HETATM    3  N2  UNL     1      -3.491   3.439  14.988  1.00  0.00    -0.281 N 
ATOM      4  H2  UNL     1      -2.501   3.626  14.830  1.00  0.00     0.188 HD
HETATM    5  N3  UNL     1      -3.860   2.472  15.742  1.00  0.00    -0.281 N 
ATOM      6  H3  UNL     1      -3.161   1.881  16.192  1.00  0.00     0.188 HD
HETATM    7  C2  UNL     1      -5.147   2.239  15.937  1.00  0.00     0.208 A 
HETATM    8  S2  UNL     1      -5.869   3.475  14.989  1.00  0.00    -0.023 SA
ENDROOT
BRANCH   7   9
HETATM    9  S1  UNL     1      -5.943   1.005  16.903  1.00  0.00     0.280 S 
HETATM   10  O1  UNL     1      -5.596   1.235  18.348  1.00  0.00    -0.199 OA
HETATM   11  O2  UNL     1      -5.510  -0.364  16.526  1.00  0.00    -0.199 OA
BRANCH   9  12
HETATM   12  N4  UNL     1      -7.660   1.220  16.767  1.00  0.00    -0.323 N 
ATOM     13  H42 UNL     1      -8.303   0.538  16.366  1.00  0.00     0.169 HD
ATOM     14  H41 UNL     1      -7.904   2.133  17.151  1.00  0.00     0.169 HD
ENDBRANCH   9  12
ENDBRANCH   7   9
TORSDOF 2
ENDMDL
