MODEL 11
REMARK VINA RESULT: -5.017580241      2.460      2.522
REMARK  2 active torsions:
REMARK  status: ('A' for Active; 'I' for Inactive)
REMARK    1  A    between atoms: C2_7  and  S1_8 
REMARK    2  A    between atoms: S1_8  and  N4_9 
ROOT
HETATM    1  N1  UNL     1      -4.303   4.278  12.670  1.00  0.00    -0.073 NA
HETATM    2  C1  UNL     1      -4.625   3.358  13.721  1.00  0.00     0.175 A 
HETATM    3  N2  UNL     1      -3.998   2.219  14.011  1.00  0.00    -0.281 N 
ATOM      4  H2  UNL     1      -3.195   1.914  13.462  1.00  0.00     0.188 HD
HETATM    5  N3  UNL     1      -4.423   1.514  14.992  1.00  0.00    -0.281 N 
ATOM      6  H3  UNL     1      -3.957   0.640  15.232  1.00  0.00     0.188 HD
HETATM    7  C2  UNL     1      -5.467   1.921  15.695  1.00  0.00     0.208 A 
HETATM    8  S2  UNL     1      -5.860   3.395  14.908  1.00  0.00    -0.023 SA
ENDROOT
BRANCH   7   9
HETATM    9  S1  UNL     1      -6.265   1.179  17.074  1.00  0.00     0.280 S 
HETATM   10  O1  UNL     1      -5.482  -0.041  17.477  1.00  0.00    -0.199 OA
HETATM   11  O2  UNL     1      -7.655   0.763  16.756  1.00  0.00    -0.199 OA
BRANCH   9  12
HETATM   12  N4  UNL     1      -6.191   2.279  18.414  1.00  0.00    -0.323 N 
ATOM     13  H42 UNL     1      -5.341   2.726  18.755  1.00  0.00     0.169 HD
ATOM     14  H41 UNL     1      -7.132   2.394  18.791  1.00  0.00     0.169 HD
ENDBRANCH   9  12
ENDBRANCH   7   9
TORSDOF 2
ENDMDL
