MODEL 15
REMARK VINA RESULT: -4.922835203      2.699      4.373
REMARK  2 active torsions:
REMARK  status: ('A' for Active; 'I' for Inactive)
REMARK    1  A    between atoms: C2_7  and  S1_8 
REMARK    2  A    between atoms: S1_8  and  N4_9 
ROOT
HETATM    1  N1  UNL     1      -5.734  -0.187  17.284  1.00  0.00    -0.073 NA
HETATM    2  C1  UNL     1      -5.826   1.053  16.569  1.00  0.00     0.175 A 
HETATM    3  N2  UNL     1      -6.684   2.046  16.791  1.00  0.00    -0.281 N 
ATOM      4  H2  UNL     1      -7.377   1.978  17.536  1.00  0.00     0.188 HD
HETATM    5  N3  UNL     1      -6.623   3.089  16.051  1.00  0.00    -0.281 N 
ATOM      6  H3  UNL     1      -7.271   3.862  16.204  1.00  0.00     0.188 HD
HETATM    7  C2  UNL     1      -5.721   3.165  15.087  1.00  0.00     0.208 A 
HETATM    8  S2  UNL     1      -4.915   1.658  15.250  1.00  0.00    -0.023 SA
ENDROOT
BRANCH   7   9
HETATM    9  S1  UNL     1      -5.403   4.447  13.928  1.00  0.00     0.280 S 
HETATM   10  O1  UNL     1      -6.661   5.254  13.754  1.00  0.00    -0.199 OA
HETATM   11  O2  UNL     1      -4.998   3.915  12.603  1.00  0.00    -0.199 OA
BRANCH   9  12
HETATM   12  N4  UNL     1      -4.218   5.520  14.603  1.00  0.00    -0.323 N 
ATOM     13  H42 UNL     1      -3.603   6.126  14.061  1.00  0.00     0.169 HD
ATOM     14  H41 UNL     1      -4.246   5.437  15.619  1.00  0.00     0.169 HD
ENDBRANCH   9  12
ENDBRANCH   7   9
TORSDOF 2
ENDMDL
