MODEL 8
REMARK VINA RESULT: -5.089702179      3.209      4.687
REMARK  2 active torsions:
REMARK  status: ('A' for Active; 'I' for Inactive)
REMARK    1  A    between atoms: C2_7  and  S1_8 
REMARK    2  A    between atoms: S1_8  and  N4_9 
ROOT
HETATM    1  N1  UNL     1      -5.106   0.791  17.363  1.00  0.00    -0.073 NA
HETATM    2  C1  UNL     1      -4.848   0.940  15.961  1.00  0.00     0.175 A 
HETATM    3  N2  UNL     1      -4.330   0.031  15.138  1.00  0.00    -0.281 N 
ATOM      4  H2  UNL     1      -4.067  -0.893  15.483  1.00  0.00     0.188 HD
HETATM    5  N3  UNL     1      -4.167   0.336  13.905  1.00  0.00    -0.281 N 
ATOM      6  H3  UNL     1      -3.773  -0.346  13.258  1.00  0.00     0.188 HD
HETATM    7  C2  UNL     1      -4.510   1.537  13.471  1.00  0.00     0.208 A 
HETATM    8  S2  UNL     1      -5.099   2.269  14.908  1.00  0.00    -0.023 SA
ENDROOT
BRANCH   7   9
HETATM    9  S1  UNL     1      -4.406   2.234  11.861  1.00  0.00     0.280 S 
HETATM   10  O1  UNL     1      -5.677   1.916  11.122  1.00  0.00    -0.199 OA
HETATM   11  O2  UNL     1      -3.263   1.687  11.089  1.00  0.00    -0.199 OA
BRANCH   9  12
HETATM   12  N4  UNL     1      -4.340   3.962  12.010  1.00  0.00    -0.323 N 
ATOM     13  H42 UNL     1      -4.468   4.478  12.880  1.00  0.00     0.169 HD
ATOM     14  H41 UNL     1      -4.154   4.360  11.090  1.00  0.00     0.169 HD
ENDBRANCH   9  12
ENDBRANCH   7   9
TORSDOF 2
ENDMDL
