MODEL 13
REMARK VINA RESULT: -5.003628688      1.697      1.709
REMARK  2 active torsions:
REMARK  status: ('A' for Active; 'I' for Inactive)
REMARK    1  A    between atoms: C2_7  and  S1_8 
REMARK    2  A    between atoms: S1_8  and  N4_9 
ROOT
HETATM    1  N1  UNL     1      -4.748   4.666  12.343  1.00  0.00    -0.073 NA
HETATM    2  C1  UNL     1      -5.193   3.987  13.525  1.00  0.00     0.175 A 
HETATM    3  N2  UNL     1      -6.095   4.415  14.406  1.00  0.00    -0.281 N 
ATOM      4  H2  UNL     1      -6.555   5.317  14.281  1.00  0.00     0.188 HD
HETATM    5  N3  UNL     1      -6.375   3.674  15.411  1.00  0.00    -0.281 N 
ATOM      6  H3  UNL     1      -7.064   3.983  16.097  1.00  0.00     0.188 HD
HETATM    7  C2  UNL     1      -5.771   2.507  15.562  1.00  0.00     0.208 A 
HETATM    8  S2  UNL     1      -4.746   2.470  14.185  1.00  0.00    -0.023 SA
ENDROOT
BRANCH   7   9
HETATM    9  S1  UNL     1      -5.944   1.293  16.820  1.00  0.00     0.280 S 
HETATM   10  O1  UNL     1      -4.656   0.522  16.917  1.00  0.00    -0.199 OA
HETATM   11  O2  UNL     1      -7.043   0.339  16.528  1.00  0.00    -0.199 OA
BRANCH   9  12
HETATM   12  N4  UNL     1      -6.153   2.101  18.342  1.00  0.00    -0.323 N 
ATOM     13  H42 UNL     1      -5.454   2.695  18.787  1.00  0.00     0.169 HD
ATOM     14  H41 UNL     1      -7.080   1.877  18.703  1.00  0.00     0.169 HD
ENDBRANCH   9  12
ENDBRANCH   7   9
TORSDOF 2
ENDMDL
