MODEL 2
REMARK VINA RESULT: -7.653559415      4.533      7.819
REMARK  5 active torsions:
REMARK  status: ('A' for Active; 'I' for Inactive)
REMARK    1  A    between atoms: C4_6  and  S1_7 
REMARK    2  A    between atoms: S1_7  and  N2_10 
REMARK    3  A    between atoms: N2_10  and  C5_12 
REMARK    4  A    between atoms: C6_17  and  S2_18 
REMARK    5  A    between atoms: S2_18  and  N5_19 
ROOT
HETATM    1  N2  UNL     1      -3.633   3.678  11.718  1.00  0.00    -0.259 N 
ATOM      2  H2  UNL     1      -4.223   3.325  10.964  1.00  0.00     0.181 HD
ENDROOT
BRANCH   1   3
HETATM    3  S1  UNL     1      -4.325   4.255  13.174  1.00  0.00     0.264 S 
HETATM    4  O1  UNL     1      -5.579   5.016  12.880  1.00  0.00    -0.200 OA
HETATM    5  O2  UNL     1      -3.347   5.186  13.880  1.00  0.00    -0.200 OA
BRANCH   3   6
HETATM    6  C4  UNL     1      -4.705   2.968  14.301  1.00  0.00     0.084 A 
HETATM    7  C3  UNL     1      -4.287   1.683  14.028  1.00  0.00     0.069 A 
HETATM    8  C2  UNL     1      -4.552   0.637  14.864  1.00  0.00     0.143 A 
HETATM    9  C1  UNL     1      -5.263   0.879  16.020  1.00  0.00     0.106 A 
HETATM   10  F1  UNL     1      -4.116  -0.596  14.541  1.00  0.00    -0.204 F 
HETATM   11  N1  UNL     1      -5.527  -0.217  16.871  1.00  0.00    -0.097 NA
HETATM   12  C8  UNL     1      -5.693   2.150  16.318  1.00  0.00     0.062 A 
HETATM   13  C7  UNL     1      -5.408   3.182  15.454  1.00  0.00     0.051 A 
HETATM   14 CL1  UNL     1      -6.592   2.410  17.799  1.00  0.00    -0.082 Cl
ENDBRANCH   3   6
ENDBRANCH   1   3
BRANCH   1  15
HETATM   15  C5  UNL     1      -2.203   3.700  11.582  1.00  0.00     0.175 A 
HETATM   16  N3  UNL     1      -1.274   3.179  12.373  1.00  0.00    -0.278 N 
HETATM   17  N4  UNL     1      -0.054   3.304  12.083  1.00  0.00    -0.281 N 
ATOM     18  H3  UNL     1      -1.548   2.675  13.216  1.00  0.00     0.189 HD
HETATM   19  C6  UNL     1       0.301   3.960  10.982  1.00  0.00     0.208 A 
ATOM     20  H4  UNL     1       0.660   2.903  12.692  1.00  0.00     0.188 HD
HETATM   21  S3  UNL     1      -1.228   4.406  10.356  1.00  0.00    -0.019 SA
BRANCH  19  22
HETATM   22  S2  UNL     1       1.929   4.262  10.374  1.00  0.00     0.280 S 
HETATM   23  O3  UNL     1       2.839   4.235  11.565  1.00  0.00    -0.199 OA
HETATM   24  O4  UNL     1       2.355   3.150   9.449  1.00  0.00    -0.199 OA
BRANCH  22  25
HETATM   25  N5  UNL     1       1.952   5.780   9.592  1.00  0.00    -0.323 N 
ATOM     26  H52 UNL     1       1.136   6.377   9.457  1.00  0.00     0.169 HD
ATOM     27  H51 UNL     1       2.905   5.980   9.291  1.00  0.00     0.169 HD
ENDBRANCH  22  25
ENDBRANCH  19  22
ENDBRANCH   1  15
TORSDOF 5
ENDMDL
