MODEL 1
REMARK VINA RESULT: -7.756243497      0.000      0.000
REMARK  5 active torsions:
REMARK  status: ('A' for Active; 'I' for Inactive)
REMARK    1  A    between atoms: C4_6  and  S1_7 
REMARK    2  A    between atoms: S1_7  and  N2_10 
REMARK    3  A    between atoms: N2_10  and  C5_12 
REMARK    4  A    between atoms: C6_17  and  S2_18 
REMARK    5  A    between atoms: S2_18  and  N5_19 
ROOT
HETATM    1  N2  UNL     1      -3.740   2.787  10.029  1.00  0.00    -0.259 N 
ATOM      2  H2  UNL     1      -4.156   2.140   9.361  1.00  0.00     0.181 HD
ENDROOT
BRANCH   1   3
HETATM    3  S1  UNL     1      -2.944   4.207   9.495  1.00  0.00     0.264 S 
HETATM    4  O1  UNL     1      -3.183   5.324  10.460  1.00  0.00    -0.200 OA
HETATM    5  O2  UNL     1      -3.484   4.621   8.131  1.00  0.00    -0.200 OA
BRANCH   3   6
HETATM    6  C4  UNL     1      -1.216   3.987   9.312  1.00  0.00     0.084 A 
HETATM    7  C3  UNL     1      -0.422   3.888  10.435  1.00  0.00     0.069 A 
HETATM    8  C2  UNL     1       0.931   3.718  10.359  1.00  0.00     0.143 A 
HETATM    9  C1  UNL     1       1.518   3.642   9.115  1.00  0.00     0.106 A 
HETATM   10  F1  UNL     1       1.650   3.628  11.494  1.00  0.00    -0.204 F 
HETATM   11  N1  UNL     1       2.918   3.466   9.058  1.00  0.00    -0.097 NA
HETATM   12  C8  UNL     1       0.752   3.737   7.977  1.00  0.00     0.062 A 
HETATM   13  C7  UNL     1      -0.608   3.909   8.089  1.00  0.00     0.051 A 
HETATM   14 CL1  UNL     1       1.543   3.636   6.418  1.00  0.00    -0.082 Cl
ENDBRANCH   3   6
ENDBRANCH   1   3
BRANCH   1  15
HETATM   15  C5  UNL     1      -3.807   2.529  11.441  1.00  0.00     0.175 A 
HETATM   16  N3  UNL     1      -3.334   3.247  12.451  1.00  0.00    -0.278 N 
HETATM   17  N4  UNL     1      -3.494   2.852  13.637  1.00  0.00    -0.281 N 
ATOM     18  H3  UNL     1      -2.840   4.121  12.268  1.00  0.00     0.189 HD
HETATM   19  C6  UNL     1      -4.138   1.713  13.875  1.00  0.00     0.208 A 
ATOM     20  H4  UNL     1      -3.129   3.405  14.414  1.00  0.00     0.188 HD
HETATM   21  S3  UNL     1      -4.520   1.213  12.284  1.00  0.00    -0.019 SA
BRANCH  19  22
HETATM   22  S2  UNL     1      -4.483   0.963  15.433  1.00  0.00     0.280 S 
HETATM   23  O3  UNL     1      -4.756  -0.484  15.157  1.00  0.00    -0.199 OA
HETATM   24  O4  UNL     1      -3.270   1.036  16.327  1.00  0.00    -0.199 OA
BRANCH  22  25
HETATM   25  N5  UNL     1      -5.832   1.742  16.132  1.00  0.00    -0.323 N 
ATOM     26  H52 UNL     1      -6.515   2.298  15.617  1.00  0.00     0.169 HD
ATOM     27  H51 UNL     1      -5.836   1.556  17.135  1.00  0.00     0.169 HD
ENDBRANCH  22  25
ENDBRANCH  19  22
ENDBRANCH   1  15
TORSDOF 5
ENDMDL
