MODEL 19
REMARK VINA RESULT: -7.214910557      4.383      5.148
REMARK  5 active torsions:
REMARK  status: ('A' for Active; 'I' for Inactive)
REMARK    1  A    between atoms: C4_6  and  S1_7 
REMARK    2  A    between atoms: S1_7  and  N2_10 
REMARK    3  A    between atoms: N2_10  and  C5_12 
REMARK    4  A    between atoms: C6_17  and  S2_18 
REMARK    5  A    between atoms: S2_18  and  N5_19 
ROOT
HETATM    1  N2  UNL     1      -4.040   3.752  12.387  1.00  0.00    -0.259 N 
ATOM      2  H2  UNL     1      -4.733   3.989  11.678  1.00  0.00     0.181 HD
ENDROOT
BRANCH   1   3
HETATM    3  S1  UNL     1      -2.435   4.340  12.276  1.00  0.00     0.264 S 
HETATM    4  O1  UNL     1      -2.084   4.606  10.846  1.00  0.00    -0.200 OA
HETATM    5  O2  UNL     1      -1.464   3.304  12.829  1.00  0.00    -0.200 OA
BRANCH   3   6
HETATM    6  C4  UNL     1      -2.187   5.810  13.195  1.00  0.00     0.084 A 
HETATM    7  C3  UNL     1      -3.063   6.132  14.210  1.00  0.00     0.069 A 
HETATM    8  C2  UNL     1      -2.925   7.263  14.961  1.00  0.00     0.143 A 
HETATM    9  C1  UNL     1      -1.873   8.111  14.691  1.00  0.00     0.106 A 
HETATM   10  F1  UNL     1      -3.815   7.520  15.940  1.00  0.00    -0.204 F 
HETATM   11  N1  UNL     1      -1.749   9.276  15.480  1.00  0.00    -0.097 NA
HETATM   12  C8  UNL     1      -0.984   7.817  13.685  1.00  0.00     0.062 A 
HETATM   13  C7  UNL     1      -1.151   6.668  12.947  1.00  0.00     0.051 A 
HETATM   14 CL1  UNL     1       0.339   8.925  13.379  1.00  0.00    -0.082 Cl
ENDBRANCH   3   6
ENDBRANCH   1   3
BRANCH   1  15
HETATM   15  C5  UNL     1      -4.388   2.917  13.503  1.00  0.00     0.175 A 
HETATM   16  N3  UNL     1      -3.779   1.833  13.967  1.00  0.00    -0.278 N 
HETATM   17  N4  UNL     1      -4.241   1.229  14.971  1.00  0.00    -0.281 N 
ATOM     18  H3  UNL     1      -2.935   1.489  13.510  1.00  0.00     0.189 HD
HETATM   19  C6  UNL     1      -5.342   1.679  15.566  1.00  0.00     0.208 A 
ATOM     20  H4  UNL     1      -3.773   0.395  15.326  1.00  0.00     0.188 HD
HETATM   21  S3  UNL     1      -5.702   3.047  14.603  1.00  0.00    -0.019 SA
BRANCH  19  22
HETATM   22  S2  UNL     1      -6.169   1.009  16.973  1.00  0.00     0.280 S 
HETATM   23  O3  UNL     1      -7.602   0.825  16.575  1.00  0.00    -0.199 OA
HETATM   24  O4  UNL     1      -5.610  -0.351  17.309  1.00  0.00    -0.199 OA
BRANCH  22  25
HETATM   25  N5  UNL     1      -6.008   2.099  18.277  1.00  0.00    -0.323 N 
ATOM     26  H52 UNL     1      -5.258   2.073  18.968  1.00  0.00     0.169 HD
ATOM     27  H51 UNL     1      -6.777   2.768  18.244  1.00  0.00     0.169 HD
ENDBRANCH  22  25
ENDBRANCH  19  22
ENDBRANCH   1  15
TORSDOF 5
ENDMDL
