MODEL 3
REMARK VINA RESULT: -7.556575506      4.218      6.730
REMARK  5 active torsions:
REMARK  status: ('A' for Active; 'I' for Inactive)
REMARK    1  A    between atoms: C4_6  and  S1_7 
REMARK    2  A    between atoms: S1_7  and  N2_10 
REMARK    3  A    between atoms: N2_10  and  C5_12 
REMARK    4  A    between atoms: C6_17  and  S2_18 
REMARK    5  A    between atoms: S2_18  and  N5_19 
ROOT
HETATM    1  N2  UNL     1      -4.436   3.019  15.507  1.00  0.00    -0.259 N 
ATOM      2  H2  UNL     1      -5.144   3.523  16.039  1.00  0.00     0.181 HD
ENDROOT
BRANCH   1   3
HETATM    3  S1  UNL     1      -4.523   1.318  15.323  1.00  0.00     0.264 S 
HETATM    4  O1  UNL     1      -5.827   0.811  15.852  1.00  0.00    -0.200 OA
HETATM    5  O2  UNL     1      -3.394   0.653  16.099  1.00  0.00    -0.200 OA
BRANCH   3   6
HETATM    6  C4  UNL     1      -4.362   0.808  13.654  1.00  0.00     0.084 A 
HETATM    7  C3  UNL     1      -4.705   1.680  12.642  1.00  0.00     0.069 A 
HETATM    8  C2  UNL     1      -4.604   1.342  11.324  1.00  0.00     0.143 A 
HETATM    9  C1  UNL     1      -4.141   0.085  10.998  1.00  0.00     0.106 A 
HETATM   10  F1  UNL     1      -4.955   2.239  10.382  1.00  0.00    -0.204 F 
HETATM   11  N1  UNL     1      -4.044  -0.244   9.627  1.00  0.00    -0.097 NA
HETATM   12  C8  UNL     1      -3.791  -0.805  11.984  1.00  0.00     0.062 A 
HETATM   13  C7  UNL     1      -3.905  -0.433  13.304  1.00  0.00     0.051 A 
HETATM   14 CL1  UNL     1      -3.208  -2.391  11.521  1.00  0.00    -0.082 Cl
ENDBRANCH   3   6
ENDBRANCH   1   3
BRANCH   1  15
HETATM   15  C5  UNL     1      -3.341   3.719  14.894  1.00  0.00     0.175 A 
HETATM   16  N3  UNL     1      -2.036   3.573  15.084  1.00  0.00    -0.278 N 
HETATM   17  N4  UNL     1      -1.220   4.289  14.445  1.00  0.00    -0.281 N 
ATOM     18  H3  UNL     1      -1.693   2.880  15.749  1.00  0.00     0.189 HD
HETATM   19  C6  UNL     1      -1.670   5.192  13.578  1.00  0.00     0.208 A 
ATOM     20  H4  UNL     1      -0.217   4.177  14.592  1.00  0.00     0.188 HD
HETATM   21  S3  UNL     1      -3.360   4.970  13.717  1.00  0.00    -0.019 SA
BRANCH  19  22
HETATM   22  S2  UNL     1      -0.731   6.299  12.576  1.00  0.00     0.280 S 
HETATM   23  O3  UNL     1      -1.575   6.605  11.375  1.00  0.00    -0.199 OA
HETATM   24  O4  UNL     1      -0.494   7.595  13.309  1.00  0.00    -0.199 OA
BRANCH  22  25
HETATM   25  N5  UNL     1       0.736   5.540  12.143  1.00  0.00    -0.323 N 
ATOM     26  H52 UNL     1       1.235   4.864  12.723  1.00  0.00     0.169 HD
ATOM     27  H51 UNL     1       1.019   5.872  11.222  1.00  0.00     0.169 HD
ENDBRANCH  22  25
ENDBRANCH  19  22
ENDBRANCH   1  15
TORSDOF 5
ENDMDL
