MODEL 3
REMARK VINA RESULT: -9.352026496      0.842      1.593
REMARK  13 active torsions:
REMARK  status: ('A' for Active; 'I' for Inactive)
REMARK    1  A    between atoms: C2_2  and  C4_4 
REMARK    2  A    between atoms: C4_4  and  N1_5 
REMARK    3  A    between atoms: N1_5  and  C5_6 
REMARK    4  A    between atoms: N1_5  and  S1_31 
REMARK    5  A    between atoms: C5_6  and  C6_7 
REMARK    6  A    between atoms: C6_7  and  O1_8 
REMARK    7  A    between atoms: C6_7  and  C7_10 
REMARK    8  A    between atoms: C7_10  and  C8_11 
REMARK    9  A    between atoms: C7_10  and  N2_18 
REMARK   10  A    between atoms: C8_11  and  C9_12 
REMARK       I    between atoms: N2_18  and  C15_20 
REMARK   11  A    between atoms: C15_20  and  O3_22 
REMARK   12  A    between atoms: O3_22  and  C16_23 
REMARK   13  A    between atoms: S1_31  and  C22_34 
ROOT
HETATM    1  C7  UNL     1       1.684   7.529  37.475  1.00  0.00     0.029 C 
ENDROOT
BRANCH   1   2
HETATM    2  C6  UNL     1       0.455   6.849  36.927  1.00  0.00     0.203 C 
BRANCH   2   3
HETATM    3  C5  UNL     1       0.179   7.096  35.500  1.00  0.00     0.119 C 
BRANCH   3   4
HETATM    4  N1  UNL     1      -0.659   8.170  35.173  1.00  0.00    -0.262 N 
BRANCH   4   5
HETATM    5  C4  UNL     1      -1.485   8.779  36.119  1.00  0.00     0.085 C 
BRANCH   5   6
HETATM    6  C2  UNL     1      -2.869   8.163  36.279  1.00  0.00     0.017 C 
HETATM    7  C1  UNL     1      -3.042   7.407  37.566  1.00  0.00     0.015 C 
HETATM    8  C3  UNL     1      -3.962   9.197  36.137  1.00  0.00     0.015 C 
ENDBRANCH   5   6
ENDBRANCH   4   5
BRANCH   4   9
HETATM    9  S1  UNL     1      -0.195   9.052  33.809  1.00  0.00     0.267 S 
HETATM   10  O6  UNL     1      -0.061  10.511  34.218  1.00  0.00    -0.200 OA
HETATM   11  O7  UNL     1       1.140   8.585  33.246  1.00  0.00    -0.200 OA
BRANCH   9  12
HETATM   12  C22 UNL     1      -1.362   8.987  32.493  1.00  0.00     0.080 A 
HETATM   13  C23 UNL     1      -2.724   9.086  32.686  1.00  0.00     0.027 A 
HETATM   14  C24 UNL     1      -3.622   9.027  31.637  1.00  0.00     0.028 A 
HETATM   15  C25 UNL     1      -3.182   8.866  30.340  1.00  0.00     0.046 A 
HETATM   16  N3  UNL     1      -4.115   8.804  29.245  1.00  0.00    -0.102 NA
HETATM   17  C26 UNL     1      -1.825   8.765  30.130  1.00  0.00     0.028 A 
HETATM   18  C27 UNL     1      -0.936   8.824  31.179  1.00  0.00     0.027 A 
ENDBRANCH   9  12
ENDBRANCH   4   9
ENDBRANCH   3   4
ENDBRANCH   2   3
BRANCH   2  19
HETATM   19  O1  UNL     1       0.683   5.461  37.095  1.00  0.00    -0.385 OA
ATOM     20  H1  UNL     1       1.594   5.287  36.886  1.00  0.00     0.211 HD
ENDBRANCH   2  19
ENDBRANCH   1   2
BRANCH   1  21
HETATM   21  C8  UNL     1       2.720   7.811  36.422  1.00  0.00     0.094 C 
BRANCH  21  22
HETATM   22  C9  UNL     1       4.017   8.270  36.918  1.00  0.00    -0.053 A 
HETATM   23  C10 UNL     1       5.037   7.333  37.091  1.00  0.00     0.007 A 
HETATM   24  C11 UNL     1       6.280   7.639  37.577  1.00  0.00     0.001 A 
HETATM   25  C12 UNL     1       6.551   8.951  37.919  1.00  0.00     0.000 A 
HETATM   26  C13 UNL     1       5.579   9.909  37.767  1.00  0.00     0.001 A 
HETATM   27  C14 UNL     1       4.317   9.551  37.265  1.00  0.00     0.007 A 
ENDBRANCH  21  22
ENDBRANCH   1  21
BRANCH   1  28
HETATM   28  N2  UNL     1       2.116   7.080  38.739  1.00  0.00    -0.307 N 
HETATM   29  C15 UNL     1       1.958   7.792  39.954  1.00  0.00     0.365 C 
HETATM   30  O2  UNL     1       1.410   8.900  39.953  1.00  0.00    -0.238 OA
ATOM     31  H2  UNL     1       2.579   6.172  38.783  1.00  0.00     0.170 HD
BRANCH  29  32
HETATM   32  O3  UNL     1       2.414   7.260  41.164  1.00  0.00    -0.296 OA
BRANCH  32  33
HETATM   33  C16 UNL     1       3.053   8.075  42.133  1.00  0.00     0.166 C 
HETATM   34  C17 UNL     1       3.299   7.343  43.411  1.00  0.00     0.204 C 
HETATM   35  O4  UNL     1       4.564   7.623  43.856  1.00  0.00    -0.358 OA
HETATM   36  C18 UNL     1       5.181   8.492  42.970  1.00  0.00     0.266 C 
HETATM   37  O5  UNL     1       6.491   8.131  42.682  1.00  0.00    -0.361 OA
HETATM   38  C21 UNL     1       4.465   8.329  41.645  1.00  0.00     0.075 C 
HETATM   39  C19 UNL     1       6.476   7.075  41.803  1.00  0.00     0.171 C 
HETATM   40  C20 UNL     1       5.129   7.119  41.074  1.00  0.00     0.038 C 
ENDBRANCH  32  33
ENDBRANCH  29  32
ENDBRANCH   1  28
TORSDOF 13
ENDMDL
