MODEL 7
REMARK VINA RESULT: -9.231473870      3.155      5.406
REMARK  13 active torsions:
REMARK  status: ('A' for Active; 'I' for Inactive)
REMARK    1  A    between atoms: C2_2  and  C4_4 
REMARK    2  A    between atoms: C4_4  and  N1_5 
REMARK    3  A    between atoms: N1_5  and  C5_6 
REMARK    4  A    between atoms: N1_5  and  S1_31 
REMARK    5  A    between atoms: C5_6  and  C6_7 
REMARK    6  A    between atoms: C6_7  and  O1_8 
REMARK    7  A    between atoms: C6_7  and  C7_10 
REMARK    8  A    between atoms: C7_10  and  C8_11 
REMARK    9  A    between atoms: C7_10  and  N2_18 
REMARK   10  A    between atoms: C8_11  and  C9_12 
REMARK       I    between atoms: N2_18  and  C15_20 
REMARK   11  A    between atoms: C15_20  and  O3_22 
REMARK   12  A    between atoms: O3_22  and  C16_23 
REMARK   13  A    between atoms: S1_31  and  C22_34 
ROOT
HETATM    1  C7  UNL     1       4.092   8.199  40.659  1.00  0.00     0.029 C 
ENDROOT
BRANCH   1   2
HETATM    2  C6  UNL     1       2.648   8.535  40.382  1.00  0.00     0.203 C 
BRANCH   2   3
HETATM    3  C5  UNL     1       2.147   8.129  39.057  1.00  0.00     0.119 C 
BRANCH   3   4
HETATM    4  N1  UNL     1       1.166   8.929  38.456  1.00  0.00    -0.262 N 
BRANCH   4   5
HETATM    5  C4  UNL     1      -0.024   9.257  39.108  1.00  0.00     0.085 C 
BRANCH   5   6
HETATM    6  C2  UNL     1      -1.054   8.139  39.200  1.00  0.00     0.017 C 
HETATM    7  C1  UNL     1      -2.290   8.527  39.961  1.00  0.00     0.015 C 
HETATM    8  C3  UNL     1      -1.432   7.613  37.835  1.00  0.00     0.015 C 
ENDBRANCH   5   6
ENDBRANCH   4   5
BRANCH   4   9
HETATM    9  S1  UNL     1       1.723   9.938  37.220  1.00  0.00     0.267 S 
HETATM   10  O6  UNL     1       1.199  11.341  37.491  1.00  0.00    -0.200 OA
HETATM   11  O7  UNL     1       3.243   9.995  37.161  1.00  0.00    -0.200 OA
BRANCH   9  12
HETATM   12  C22 UNL     1       1.159   9.474  35.619  1.00  0.00     0.080 A 
HETATM   13  C23 UNL     1       1.630   8.368  34.944  1.00  0.00     0.027 A 
HETATM   14  C24 UNL     1       1.176   8.025  33.684  1.00  0.00     0.028 A 
HETATM   15  C25 UNL     1       0.221   8.788  33.048  1.00  0.00     0.046 A 
HETATM   16  N3  UNL     1      -0.254   8.435  31.736  1.00  0.00    -0.102 NA
HETATM   17  C26 UNL     1      -0.260   9.897  33.708  1.00  0.00     0.028 A 
HETATM   18  C27 UNL     1       0.196  10.233  34.962  1.00  0.00     0.027 A 
ENDBRANCH   9  12
ENDBRANCH   4   9
ENDBRANCH   3   4
ENDBRANCH   2   3
BRANCH   2  19
HETATM   19  O1  UNL     1       1.902   7.839  41.364  1.00  0.00    -0.385 OA
ATOM     20  H1  UNL     1       2.510   7.516  42.019  1.00  0.00     0.211 HD
ENDBRANCH   2  19
ENDBRANCH   1   2
BRANCH   1  21
HETATM   21  C8  UNL     1       4.257   7.120  41.693  1.00  0.00     0.094 C 
BRANCH  21  22
HETATM   22  C9  UNL     1       4.779   7.559  42.987  1.00  0.00    -0.053 A 
HETATM   23  C10 UNL     1       6.157   7.730  43.130  1.00  0.00     0.007 A 
HETATM   24  C11 UNL     1       6.762   8.106  44.298  1.00  0.00     0.001 A 
HETATM   25  C12 UNL     1       5.971   8.334  45.409  1.00  0.00     0.000 A 
HETATM   26  C13 UNL     1       4.610   8.178  45.318  1.00  0.00     0.001 A 
HETATM   27  C14 UNL     1       4.030   7.790  44.099  1.00  0.00     0.007 A 
ENDBRANCH  21  22
ENDBRANCH   1  21
BRANCH   1  28
HETATM   28  N2  UNL     1       4.979   9.294  40.683  1.00  0.00    -0.307 N 
HETATM   29  C15 UNL     1       5.931   9.592  39.677  1.00  0.00     0.365 C 
HETATM   30  O2  UNL     1       6.032   8.859  38.686  1.00  0.00    -0.238 OA
ATOM     31  H2  UNL     1       4.931   9.920  41.486  1.00  0.00     0.170 HD
BRANCH  29  32
HETATM   32  O3  UNL     1       6.765  10.709  39.785  1.00  0.00    -0.296 OA
BRANCH  32  33
HETATM   33  C16 UNL     1       8.026  10.628  40.430  1.00  0.00     0.166 C 
HETATM   34  C17 UNL     1       9.098  10.140  39.513  1.00  0.00     0.204 C 
HETATM   35  O4  UNL     1      10.223  10.902  39.687  1.00  0.00    -0.358 OA
HETATM   36  C18 UNL     1       9.981  11.864  40.655  1.00  0.00     0.266 C 
HETATM   37  O5  UNL     1      10.454  13.121  40.300  1.00  0.00    -0.361 OA
HETATM   38  C21 UNL     1       8.478  12.047  40.709  1.00  0.00     0.075 C 
HETATM   39  C19 UNL     1       9.592  13.674  39.384  1.00  0.00     0.171 C 
HETATM   40  C20 UNL     1       8.235  12.988  39.575  1.00  0.00     0.038 C 
ENDBRANCH  32  33
ENDBRANCH  29  32
ENDBRANCH   1  28
TORSDOF 13
ENDMDL
