MODEL 10
REMARK VINA RESULT: -9.124337048      2.998     10.050
REMARK  13 active torsions:
REMARK  status: ('A' for Active; 'I' for Inactive)
REMARK    1  A    between atoms: C2_2  and  C4_4 
REMARK    2  A    between atoms: C4_4  and  N1_5 
REMARK    3  A    between atoms: N1_5  and  C5_6 
REMARK    4  A    between atoms: N1_5  and  S1_31 
REMARK    5  A    between atoms: C5_6  and  C6_7 
REMARK    6  A    between atoms: C6_7  and  O1_8 
REMARK    7  A    between atoms: C6_7  and  C7_10 
REMARK    8  A    between atoms: C7_10  and  C8_11 
REMARK    9  A    between atoms: C7_10  and  N2_18 
REMARK   10  A    between atoms: C8_11  and  C9_12 
REMARK       I    between atoms: N2_18  and  C15_20 
REMARK   11  A    between atoms: C15_20  and  O3_22 
REMARK   12  A    between atoms: O3_22  and  C16_23 
REMARK   13  A    between atoms: S1_31  and  C22_34 
ROOT
HETATM    1  C7  UNL     1       1.383   8.492  39.290  1.00  0.00     0.029 C 
ENDROOT
BRANCH   1   2
HETATM    2  C6  UNL     1       2.628   7.831  39.824  1.00  0.00     0.203 C 
BRANCH   2   3
HETATM    3  C5  UNL     1       3.661   8.749  40.337  1.00  0.00     0.119 C 
BRANCH   3   4
HETATM    4  N1  UNL     1       4.983   8.546  39.918  1.00  0.00    -0.262 N 
BRANCH   4   5
HETATM    5  C4  UNL     1       5.578   9.337  38.934  1.00  0.00     0.085 C 
BRANCH   5   6
HETATM    6  C2  UNL     1       5.193   9.005  37.498  1.00  0.00     0.017 C 
HETATM    7  C1  UNL     1       5.845   9.899  36.482  1.00  0.00     0.015 C 
HETATM    8  C3  UNL     1       5.471   7.557  37.166  1.00  0.00     0.015 C 
ENDBRANCH   5   6
ENDBRANCH   4   5
BRANCH   4   9
HETATM    9  S1  UNL     1       5.973   7.747  41.030  1.00  0.00     0.267 S 
HETATM   10  O6  UNL     1       5.108   6.764  41.804  1.00  0.00    -0.200 OA
HETATM   11  O7  UNL     1       7.095   6.973  40.353  1.00  0.00    -0.200 OA
BRANCH   9  12
HETATM   12  C22 UNL     1       6.721   8.819  42.208  1.00  0.00     0.080 A 
HETATM   13  C23 UNL     1       7.723   9.711  41.889  1.00  0.00     0.027 A 
HETATM   14  C24 UNL     1       8.299  10.540  42.833  1.00  0.00     0.028 A 
HETATM   15  C25 UNL     1       7.887  10.505  44.148  1.00  0.00     0.046 A 
HETATM   16  N3  UNL     1       8.486  11.366  45.134  1.00  0.00    -0.102 NA
HETATM   17  C26 UNL     1       6.888   9.619  44.484  1.00  0.00     0.028 A 
HETATM   18  C27 UNL     1       6.318   8.796  43.540  1.00  0.00     0.027 A 
ENDBRANCH   9  12
ENDBRANCH   4   9
ENDBRANCH   3   4
ENDBRANCH   2   3
BRANCH   2  19
HETATM   19  O1  UNL     1       2.195   7.017  40.898  1.00  0.00    -0.385 OA
ATOM     20  H1  UNL     1       2.942   6.853  41.461  1.00  0.00     0.211 HD
ENDBRANCH   2  19
ENDBRANCH   1   2
BRANCH   1  21
HETATM   21  C8  UNL     1       0.126   8.009  39.961  1.00  0.00     0.094 C 
BRANCH  21  22
HETATM   22  C9  UNL     1      -1.102   8.148  39.178  1.00  0.00    -0.053 A 
HETATM   23  C10 UNL     1      -1.822   9.340  39.270  1.00  0.00     0.007 A 
HETATM   24  C11 UNL     1      -2.999   9.573  38.610  1.00  0.00     0.001 A 
HETATM   25  C12 UNL     1      -3.512   8.575  37.802  1.00  0.00     0.000 A 
HETATM   26  C13 UNL     1      -2.838   7.385  37.680  1.00  0.00     0.001 A 
HETATM   27  C14 UNL     1      -1.634   7.188  38.375  1.00  0.00     0.007 A 
ENDBRANCH  21  22
ENDBRANCH   1  21
BRANCH   1  28
HETATM   28  N2  UNL     1       1.359   8.714  37.899  1.00  0.00    -0.307 N 
HETATM   29  C15 UNL     1       1.306   9.986  37.278  1.00  0.00     0.365 C 
HETATM   30  O2  UNL     1       1.269  11.010  37.970  1.00  0.00    -0.238 OA
ATOM     31  H2  UNL     1       1.382   7.895  37.292  1.00  0.00     0.170 HD
BRANCH  29  32
HETATM   32  O3  UNL     1       1.294  10.107  35.885  1.00  0.00    -0.296 OA
BRANCH  32  33
HETATM   33  C16 UNL     1       0.098   9.939  35.140  1.00  0.00     0.166 C 
HETATM   34  C17 UNL     1      -0.003  10.908  34.009  1.00  0.00     0.204 C 
HETATM   35  O4  UNL     1      -0.441  10.251  32.890  1.00  0.00    -0.358 OA
HETATM   36  C18 UNL     1      -0.644   8.914  33.191  1.00  0.00     0.266 C 
HETATM   37  O5  UNL     1      -0.140   8.058  32.220  1.00  0.00    -0.361 OA
HETATM   38  C21 UNL     1       0.208   8.617  34.408  1.00  0.00     0.075 C 
HETATM   39  C19 UNL     1       1.225   7.991  32.356  1.00  0.00     0.171 C 
HETATM   40  C20 UNL     1       1.552   8.378  33.802  1.00  0.00     0.038 C 
ENDBRANCH  32  33
ENDBRANCH  29  32
ENDBRANCH   1  28
TORSDOF 13
ENDMDL
