MODEL 5
REMARK VINA RESULT: -9.319228414      3.121      8.638
REMARK  13 active torsions:
REMARK  status: ('A' for Active; 'I' for Inactive)
REMARK    1  A    between atoms: C2_2  and  C4_4 
REMARK    2  A    between atoms: C4_4  and  N1_5 
REMARK    3  A    between atoms: N1_5  and  C5_6 
REMARK    4  A    between atoms: N1_5  and  S1_31 
REMARK    5  A    between atoms: C5_6  and  C6_7 
REMARK    6  A    between atoms: C6_7  and  O1_8 
REMARK    7  A    between atoms: C6_7  and  C7_10 
REMARK    8  A    between atoms: C7_10  and  C8_11 
REMARK    9  A    between atoms: C7_10  and  N2_18 
REMARK   10  A    between atoms: C8_11  and  C9_12 
REMARK       I    between atoms: N2_18  and  C15_20 
REMARK   11  A    between atoms: C15_20  and  O3_22 
REMARK   12  A    between atoms: O3_22  and  C16_23 
REMARK   13  A    between atoms: S1_31  and  C22_34 
ROOT
HETATM    1  C7  UNL     1       1.047   8.031  35.384  1.00  0.00     0.029 C 
ENDROOT
BRANCH   1   2
HETATM    2  C6  UNL     1       0.435   7.114  36.412  1.00  0.00     0.203 C 
BRANCH   2   3
HETATM    3  C5  UNL     1      -1.001   7.325  36.673  1.00  0.00     0.119 C 
BRANCH   3   4
HETATM    4  N1  UNL     1      -1.392   8.553  37.222  1.00  0.00    -0.262 N 
BRANCH   4   5
HETATM    5  C4  UNL     1      -2.309   9.391  36.584  1.00  0.00     0.085 C 
BRANCH   5   6
HETATM    6  C2  UNL     1      -3.670   8.774  36.288  1.00  0.00     0.017 C 
HETATM    7  C1  UNL     1      -4.803   9.453  37.003  1.00  0.00     0.015 C 
HETATM    8  C3  UNL     1      -3.951   8.727  34.804  1.00  0.00     0.015 C 
ENDBRANCH   5   6
ENDBRANCH   4   5
BRANCH   4   9
HETATM    9  S1  UNL     1      -1.193   8.687  38.894  1.00  0.00     0.267 S 
HETATM   10  O6  UNL     1      -1.752  10.035  39.326  1.00  0.00    -0.200 OA
HETATM   11  O7  UNL     1      -1.933   7.594  39.654  1.00  0.00    -0.200 OA
BRANCH   9  12
HETATM   12  C22 UNL     1       0.487   8.632  39.414  1.00  0.00     0.080 A 
HETATM   13  C23 UNL     1       1.098   7.486  39.877  1.00  0.00     0.027 A 
HETATM   14  C24 UNL     1       2.419   7.468  40.284  1.00  0.00     0.028 A 
HETATM   15  C25 UNL     1       3.185   8.612  40.241  1.00  0.00     0.046 A 
HETATM   16  N3  UNL     1       4.561   8.598  40.665  1.00  0.00    -0.102 NA
HETATM   17  C26 UNL     1       2.591   9.766  39.782  1.00  0.00     0.028 A 
HETATM   18  C27 UNL     1       1.276   9.778  39.377  1.00  0.00     0.027 A 
ENDBRANCH   9  12
ENDBRANCH   4   9
ENDBRANCH   3   4
ENDBRANCH   2   3
BRANCH   2  19
HETATM   19  O1  UNL     1       0.597   5.805  35.897  1.00  0.00    -0.385 OA
ATOM     20  H1  UNL     1       0.639   5.866  34.950  1.00  0.00     0.211 HD
ENDBRANCH   2  19
ENDBRANCH   1   2
BRANCH   1  21
HETATM   21  C8  UNL     1       1.868   9.134  35.993  1.00  0.00     0.094 C 
BRANCH  21  22
HETATM   22  C9  UNL     1       3.223   8.763  36.400  1.00  0.00    -0.053 A 
HETATM   23  C10 UNL     1       3.495   7.422  36.677  1.00  0.00     0.007 A 
HETATM   24  C11 UNL     1       4.714   6.961  37.095  1.00  0.00     0.001 A 
HETATM   25  C12 UNL     1       5.744   7.870  37.255  1.00  0.00     0.000 A 
HETATM   26  C13 UNL     1       5.525   9.200  36.995  1.00  0.00     0.001 A 
HETATM   27  C14 UNL     1       4.258   9.630  36.568  1.00  0.00     0.007 A 
ENDBRANCH  21  22
ENDBRANCH   1  21
BRANCH   1  28
HETATM   28  N2  UNL     1       0.231   8.334  34.275  1.00  0.00    -0.307 N 
HETATM   29  C15 UNL     1       0.656   8.322  32.924  1.00  0.00     0.365 C 
HETATM   30  O2  UNL     1       1.827   8.035  32.648  1.00  0.00    -0.238 OA
ATOM     31  H2  UNL     1      -0.740   8.582  34.460  1.00  0.00     0.170 HD
BRANCH  29  32
HETATM   32  O3  UNL     1      -0.230   8.631  31.888  1.00  0.00    -0.296 OA
BRANCH  32  33
HETATM   33  C16 UNL     1      -1.620   8.784  32.127  1.00  0.00     0.166 C 
HETATM   34  C17 UNL     1      -2.046  10.214  32.077  1.00  0.00     0.204 C 
HETATM   35  O4  UNL     1      -3.214  10.312  31.368  1.00  0.00    -0.358 OA
HETATM   36  C18 UNL     1      -3.601   9.052  30.942  1.00  0.00     0.266 C 
HETATM   37  O5  UNL     1      -4.021   9.033  29.618  1.00  0.00    -0.361 OA
HETATM   38  C21 UNL     1      -2.347   8.201  30.933  1.00  0.00     0.075 C 
HETATM   39  C19 UNL     1      -2.917   9.086  28.803  1.00  0.00     0.171 C 
HETATM   40  C20 UNL     1      -1.731   8.563  29.621  1.00  0.00     0.038 C 
ENDBRANCH  32  33
ENDBRANCH  29  32
ENDBRANCH   1  28
TORSDOF 13
ENDMDL
