MODEL 4
REMARK VINA RESULT: -9.331678645      0.839      1.572
REMARK  13 active torsions:
REMARK  status: ('A' for Active; 'I' for Inactive)
REMARK    1  A    between atoms: C2_2  and  C4_4 
REMARK    2  A    between atoms: C4_4  and  N1_5 
REMARK    3  A    between atoms: N1_5  and  C5_6 
REMARK    4  A    between atoms: N1_5  and  S1_31 
REMARK    5  A    between atoms: C5_6  and  C6_7 
REMARK    6  A    between atoms: C6_7  and  O1_8 
REMARK    7  A    between atoms: C6_7  and  C7_10 
REMARK    8  A    between atoms: C7_10  and  C8_11 
REMARK    9  A    between atoms: C7_10  and  N2_18 
REMARK   10  A    between atoms: C8_11  and  C9_12 
REMARK       I    between atoms: N2_18  and  C15_20 
REMARK   11  A    between atoms: C15_20  and  O3_22 
REMARK   12  A    between atoms: O3_22  and  C16_23 
REMARK   13  A    between atoms: S1_31  and  C22_34 
ROOT
HETATM    1  C7  UNL     1       1.666   7.499  37.503  1.00  0.00     0.029 C 
ENDROOT
BRANCH   1   2
HETATM    2  C6  UNL     1       0.447   6.813  36.942  1.00  0.00     0.203 C 
BRANCH   2   3
HETATM    3  C5  UNL     1       0.175   7.073  35.516  1.00  0.00     0.119 C 
BRANCH   3   4
HETATM    4  N1  UNL     1      -0.644   8.164  35.196  1.00  0.00    -0.262 N 
BRANCH   4   5
HETATM    5  C4  UNL     1      -1.471   8.772  36.142  1.00  0.00     0.085 C 
BRANCH   5   6
HETATM    6  C2  UNL     1      -2.860   8.162  36.292  1.00  0.00     0.017 C 
HETATM    7  C1  UNL     1      -3.040   7.395  37.571  1.00  0.00     0.015 C 
HETATM    8  C3  UNL     1      -3.945   9.204  36.158  1.00  0.00     0.015 C 
ENDBRANCH   5   6
ENDBRANCH   4   5
BRANCH   4   9
HETATM    9  S1  UNL     1      -0.153   9.058  33.849  1.00  0.00     0.267 S 
HETATM   10  O6  UNL     1      -0.060  10.518  34.266  1.00  0.00    -0.200 OA
HETATM   11  O7  UNL     1       1.208   8.618  33.329  1.00  0.00    -0.200 OA
BRANCH   9  12
HETATM   12  C22 UNL     1      -1.276   8.975  32.497  1.00  0.00     0.080 A 
HETATM   13  C23 UNL     1      -0.878   8.744  31.197  1.00  0.00     0.027 A 
HETATM   14  C24 UNL     1      -1.778   8.688  30.150  1.00  0.00     0.028 A 
HETATM   15  C25 UNL     1      -3.127   8.863  30.370  1.00  0.00     0.046 A 
HETATM   16  N3  UNL     1      -4.068   8.806  29.282  1.00  0.00    -0.102 NA
HETATM   17  C26 UNL     1      -3.542   9.095  31.662  1.00  0.00     0.028 A 
HETATM   18  C27 UNL     1      -2.641   9.150  32.701  1.00  0.00     0.027 A 
ENDBRANCH   9  12
ENDBRANCH   4   9
ENDBRANCH   3   4
ENDBRANCH   2   3
BRANCH   2  19
HETATM   19  O1  UNL     1       0.688   5.425  37.094  1.00  0.00    -0.385 OA
ATOM     20  H1  UNL     1       1.526   5.321  37.529  1.00  0.00     0.211 HD
ENDBRANCH   2  19
ENDBRANCH   1   2
BRANCH   1  21
HETATM   21  C8  UNL     1       2.713   7.784  36.462  1.00  0.00     0.094 C 
BRANCH  21  22
HETATM   22  C9  UNL     1       4.041   8.120  36.976  1.00  0.00    -0.053 A 
HETATM   23  C10 UNL     1       4.314   9.449  37.302  1.00  0.00     0.007 A 
HETATM   24  C11 UNL     1       5.527   9.888  37.762  1.00  0.00     0.001 A 
HETATM   25  C12 UNL     1       6.548   8.968  37.916  1.00  0.00     0.000 A 
HETATM   26  C13 UNL     1       6.326   7.648  37.608  1.00  0.00     0.001 A 
HETATM   27  C14 UNL     1       5.066   7.242  37.139  1.00  0.00     0.007 A 
ENDBRANCH  21  22
ENDBRANCH   1  21
BRANCH   1  28
HETATM   28  N2  UNL     1       2.085   7.054  38.773  1.00  0.00    -0.307 N 
HETATM   29  C15 UNL     1       1.924   7.775  39.982  1.00  0.00     0.365 C 
HETATM   30  O2  UNL     1       1.387   8.888  39.970  1.00  0.00    -0.238 OA
ATOM     31  H2  UNL     1       2.538   6.142  38.826  1.00  0.00     0.170 HD
BRANCH  29  32
HETATM   32  O3  UNL     1       2.367   7.247  41.199  1.00  0.00    -0.296 OA
BRANCH  32  33
HETATM   33  C16 UNL     1       3.011   8.061  42.166  1.00  0.00     0.166 C 
HETATM   34  C17 UNL     1       3.261   7.328  43.442  1.00  0.00     0.204 C 
HETATM   35  O4  UNL     1       4.528   7.607  43.882  1.00  0.00    -0.358 OA
HETATM   36  C18 UNL     1       5.142   8.475  42.993  1.00  0.00     0.266 C 
HETATM   37  O5  UNL     1       6.451   8.113  42.700  1.00  0.00    -0.361 OA
HETATM   38  C21 UNL     1       4.420   8.313  41.671  1.00  0.00     0.075 C 
HETATM   39  C19 UNL     1       6.431   7.058  41.820  1.00  0.00     0.171 C 
HETATM   40  C20 UNL     1       5.081   7.103  41.098  1.00  0.00     0.038 C 
ENDBRANCH  32  33
ENDBRANCH  29  32
ENDBRANCH   1  28
TORSDOF 13
ENDMDL
