MODEL 11
REMARK VINA RESULT: -9.115155227      1.688      2.519
REMARK  13 active torsions:
REMARK  status: ('A' for Active; 'I' for Inactive)
REMARK    1  A    between atoms: C2_2  and  C4_4 
REMARK    2  A    between atoms: C4_4  and  N1_5 
REMARK    3  A    between atoms: N1_5  and  C5_6 
REMARK    4  A    between atoms: N1_5  and  S1_31 
REMARK    5  A    between atoms: C5_6  and  C6_7 
REMARK    6  A    between atoms: C6_7  and  O1_8 
REMARK    7  A    between atoms: C6_7  and  C7_10 
REMARK    8  A    between atoms: C7_10  and  C8_11 
REMARK    9  A    between atoms: C7_10  and  N2_18 
REMARK   10  A    between atoms: C8_11  and  C9_12 
REMARK       I    between atoms: N2_18  and  C15_20 
REMARK   11  A    between atoms: C15_20  and  O3_22 
REMARK   12  A    between atoms: O3_22  and  C16_23 
REMARK   13  A    between atoms: S1_31  and  C22_34 
ROOT
HETATM    1  C7  UNL     1       3.215   7.542  39.112  1.00  0.00     0.029 C 
ENDROOT
BRANCH   1   2
HETATM    2  C6  UNL     1       1.931   6.853  38.725  1.00  0.00     0.203 C 
BRANCH   2   3
HETATM    3  C5  UNL     1       1.461   7.115  37.352  1.00  0.00     0.119 C 
BRANCH   3   4
HETATM    4  N1  UNL     1       0.641   8.231  37.144  1.00  0.00    -0.262 N 
BRANCH   4   5
HETATM    5  C4  UNL     1      -0.110   8.800  38.174  1.00  0.00     0.085 C 
BRANCH   5   6
HETATM    6  C2  UNL     1      -1.622   8.690  38.024  1.00  0.00     0.017 C 
HETATM    7  C1  UNL     1      -2.129   7.278  38.099  1.00  0.00     0.015 C 
HETATM    8  C3  UNL     1      -2.348   9.552  39.031  1.00  0.00     0.015 C 
ENDBRANCH   5   6
ENDBRANCH   4   5
BRANCH   4   9
HETATM    9  S1  UNL     1       1.056   9.188  35.814  1.00  0.00     0.267 S 
HETATM   10  O6  UNL     1       0.710  10.631  36.150  1.00  0.00    -0.200 OA
HETATM   11  O7  UNL     1       2.541   9.112  35.489  1.00  0.00    -0.200 OA
BRANCH   9  12
HETATM   12  C22 UNL     1       0.182   8.774  34.345  1.00  0.00     0.080 A 
HETATM   13  C23 UNL     1       0.774   8.727  33.101  1.00  0.00     0.027 A 
HETATM   14  C24 UNL     1       0.065   8.404  31.959  1.00  0.00     0.028 A 
HETATM   15  C25 UNL     1      -1.280   8.112  32.023  1.00  0.00     0.046 A 
HETATM   16  N3  UNL     1      -2.022   7.775  30.836  1.00  0.00    -0.102 NA
HETATM   17  C26 UNL     1      -1.888   8.155  33.258  1.00  0.00     0.028 A 
HETATM   18  C27 UNL     1      -1.177   8.477  34.391  1.00  0.00     0.027 A 
ENDBRANCH   9  12
ENDBRANCH   4   9
ENDBRANCH   3   4
ENDBRANCH   2   3
BRANCH   2  19
HETATM   19  O1  UNL     1       2.196   5.466  38.839  1.00  0.00    -0.385 OA
ATOM     20  H1  UNL     1       2.645   5.321  39.663  1.00  0.00     0.211 HD
ENDBRANCH   2  19
ENDBRANCH   1   2
BRANCH   1  21
HETATM   21  C8  UNL     1       4.142   7.756  37.948  1.00  0.00     0.094 C 
BRANCH  21  22
HETATM   22  C9  UNL     1       5.467   8.280  38.283  1.00  0.00    -0.053 A 
HETATM   23  C10 UNL     1       6.563   7.420  38.215  1.00  0.00     0.007 A 
HETATM   24  C11 UNL     1       7.842   7.787  38.534  1.00  0.00     0.001 A 
HETATM   25  C12 UNL     1       8.073   9.086  38.949  1.00  0.00     0.000 A 
HETATM   26  C13 UNL     1       7.025   9.970  39.032  1.00  0.00     0.001 A 
HETATM   27  C14 UNL     1       5.728   9.550  38.695  1.00  0.00     0.007 A 
ENDBRANCH  21  22
ENDBRANCH   1  21
BRANCH   1  28
HETATM   28  N2  UNL     1       3.767   7.151  40.348  1.00  0.00    -0.307 N 
HETATM   29  C15 UNL     1       3.406   7.690  41.608  1.00  0.00     0.365 C 
HETATM   30  O2  UNL     1       2.549   8.578  41.677  1.00  0.00    -0.238 OA
ATOM     31  H2  UNL     1       4.482   6.425  40.335  1.00  0.00     0.170 HD
BRANCH  29  32
HETATM   32  O3  UNL     1       4.006   7.231  42.785  1.00  0.00    -0.296 OA
BRANCH  32  33
HETATM   33  C16 UNL     1       4.353   8.124  43.832  1.00  0.00     0.166 C 
HETATM   34  C17 UNL     1       5.029   7.427  44.965  1.00  0.00     0.204 C 
HETATM   35  O4  UNL     1       6.103   8.171  45.377  1.00  0.00    -0.358 OA
HETATM   36  C18 UNL     1       6.192   9.317  44.603  1.00  0.00     0.266 C 
HETATM   37  O5  UNL     1       7.490   9.592  44.191  1.00  0.00    -0.361 OA
HETATM   38  C21 UNL     1       5.461   9.016  43.311  1.00  0.00     0.075 C 
HETATM   39  C19 UNL     1       7.816   8.743  43.161  1.00  0.00     0.171 C 
HETATM   40  C20 UNL     1       6.499   8.286  42.524  1.00  0.00     0.038 C 
ENDBRANCH  32  33
ENDBRANCH  29  32
ENDBRANCH   1  28
TORSDOF 13
ENDMDL
