MODEL 1
REMARK VINA RESULT: -9.525617185      0.000      0.000
REMARK  13 active torsions:
REMARK  status: ('A' for Active; 'I' for Inactive)
REMARK    1  A    between atoms: C2_2  and  C4_4 
REMARK    2  A    between atoms: C4_4  and  N1_5 
REMARK    3  A    between atoms: N1_5  and  C5_6 
REMARK    4  A    between atoms: N1_5  and  S1_31 
REMARK    5  A    between atoms: C5_6  and  C6_7 
REMARK    6  A    between atoms: C6_7  and  O1_8 
REMARK    7  A    between atoms: C6_7  and  C7_10 
REMARK    8  A    between atoms: C7_10  and  C8_11 
REMARK    9  A    between atoms: C7_10  and  N2_18 
REMARK   10  A    between atoms: C8_11  and  C9_12 
REMARK       I    between atoms: N2_18  and  C15_20 
REMARK   11  A    between atoms: C15_20  and  O3_22 
REMARK   12  A    between atoms: O3_22  and  C16_23 
REMARK   13  A    between atoms: S1_31  and  C22_34 
ROOT
HETATM    1  C7  UNL     1       2.009   7.775  37.696  1.00  0.00     0.029 C 
ENDROOT
BRANCH   1   2
HETATM    2  C6  UNL     1       0.899   6.808  37.372  1.00  0.00     0.203 C 
BRANCH   2   3
HETATM    3  C5  UNL     1       0.351   6.908  36.007  1.00  0.00     0.119 C 
BRANCH   3   4
HETATM    4  N1  UNL     1      -0.456   8.014  35.706  1.00  0.00    -0.262 N 
BRANCH   4   5
HETATM    5  C4  UNL     1      -1.245   8.639  36.673  1.00  0.00     0.085 C 
BRANCH   5   6
HETATM    6  C2  UNL     1      -2.627   8.035  36.886  1.00  0.00     0.017 C 
HETATM    7  C1  UNL     1      -2.724   7.186  38.122  1.00  0.00     0.015 C 
HETATM    8  C3  UNL     1      -3.704   9.095  36.903  1.00  0.00     0.015 C 
ENDBRANCH   5   6
ENDBRANCH   4   5
BRANCH   4   9
HETATM    9  S1  UNL     1       0.017   8.896  34.345  1.00  0.00     0.267 S 
HETATM   10  O6  UNL     1       0.178  10.350  34.763  1.00  0.00    -0.200 OA
HETATM   11  O7  UNL     1       1.341   8.410  33.772  1.00  0.00    -0.200 OA
BRANCH   9  12
HETATM   12  C22 UNL     1      -1.158   8.860  33.036  1.00  0.00     0.080 A 
HETATM   13  C23 UNL     1      -2.481   8.513  33.216  1.00  0.00     0.027 A 
HETATM   14  C24 UNL     1      -3.384   8.487  32.171  1.00  0.00     0.028 A 
HETATM   15  C25 UNL     1      -2.991   8.812  30.890  1.00  0.00     0.046 A 
HETATM   16  N3  UNL     1      -3.930   8.785  29.799  1.00  0.00    -0.102 NA
HETATM   17  C26 UNL     1      -1.674   9.160  30.692  1.00  0.00     0.028 A 
HETATM   18  C27 UNL     1      -0.779   9.185  31.737  1.00  0.00     0.027 A 
ENDBRANCH   9  12
ENDBRANCH   4   9
ENDBRANCH   3   4
ENDBRANCH   2   3
BRANCH   2  19
HETATM   19  O1  UNL     1       1.464   5.518  37.522  1.00  0.00    -0.385 OA
ATOM     20  H1  UNL     1       0.753   4.891  37.573  1.00  0.00     0.211 HD
ENDBRANCH   2  19
ENDBRANCH   1   2
BRANCH   1  21
HETATM   21  C8  UNL     1       3.029   7.890  36.597  1.00  0.00     0.094 C 
BRANCH  21  22
HETATM   22  C9  UNL     1       4.378   8.262  37.023  1.00  0.00    -0.053 A 
HETATM   23  C10 UNL     1       4.731   9.611  37.025  1.00  0.00     0.007 A 
HETATM   24  C11 UNL     1       5.971  10.075  37.373  1.00  0.00     0.001 A 
HETATM   25  C12 UNL     1       6.938   9.160  37.747  1.00  0.00     0.000 A 
HETATM   26  C13 UNL     1       6.638   7.820  37.760  1.00  0.00     0.001 A 
HETATM   27  C14 UNL     1       5.352   7.388  37.395  1.00  0.00     0.007 A 
ENDBRANCH  21  22
ENDBRANCH   1  21
BRANCH   1  28
HETATM   28  N2  UNL     1       2.459   7.761  39.031  1.00  0.00    -0.307 N 
HETATM   29  C15 UNL     1       2.357   8.846  39.936  1.00  0.00     0.365 C 
HETATM   30  O2  UNL     1       1.846   9.910  39.569  1.00  0.00    -0.238 OA
ATOM     31  H2  UNL     1       2.892   6.903  39.373  1.00  0.00     0.170 HD
BRANCH  29  32
HETATM   32  O3  UNL     1       2.826   8.735  41.249  1.00  0.00    -0.296 OA
BRANCH  32  33
HETATM   33  C16 UNL     1       3.821   7.786  41.598  1.00  0.00     0.166 C 
HETATM   34  C17 UNL     1       5.144   8.427  41.861  1.00  0.00     0.204 C 
HETATM   35  O4  UNL     1       5.698   7.876  42.985  1.00  0.00    -0.358 OA
HETATM   36  C18 UNL     1       4.843   6.910  43.492  1.00  0.00     0.266 C 
HETATM   37  O5  UNL     1       4.698   6.986  44.872  1.00  0.00    -0.361 OA
HETATM   38  C21 UNL     1       3.463   7.244  42.967  1.00  0.00     0.075 C 
HETATM   39  C19 UNL     1       3.862   8.035  45.170  1.00  0.00     0.171 C 
HETATM   40  C20 UNL     1       3.005   8.293  43.926  1.00  0.00     0.038 C 
ENDBRANCH  32  33
ENDBRANCH  29  32
ENDBRANCH   1  28
TORSDOF 13
ENDMDL
