MODEL 9
REMARK VINA RESULT: -9.150214930      1.075      1.539
REMARK  13 active torsions:
REMARK  status: ('A' for Active; 'I' for Inactive)
REMARK    1  A    between atoms: C2_2  and  C4_4 
REMARK    2  A    between atoms: C4_4  and  N1_5 
REMARK    3  A    between atoms: N1_5  and  C5_6 
REMARK    4  A    between atoms: N1_5  and  S1_31 
REMARK    5  A    between atoms: C5_6  and  C6_7 
REMARK    6  A    between atoms: C6_7  and  O1_8 
REMARK    7  A    between atoms: C6_7  and  C7_10 
REMARK    8  A    between atoms: C7_10  and  C8_11 
REMARK    9  A    between atoms: C7_10  and  N2_18 
REMARK   10  A    between atoms: C8_11  and  C9_12 
REMARK       I    between atoms: N2_18  and  C15_20 
REMARK   11  A    between atoms: C15_20  and  O3_22 
REMARK   12  A    between atoms: O3_22  and  C16_23 
REMARK   13  A    between atoms: S1_31  and  C22_34 
ROOT
HETATM    1  C7  UNL     1       1.905   7.756  37.873  1.00  0.00     0.029 C 
ENDROOT
BRANCH   1   2
HETATM    2  C6  UNL     1       0.848   6.707  37.638  1.00  0.00     0.203 C 
BRANCH   2   3
HETATM    3  C5  UNL     1      -0.002   6.920  36.452  1.00  0.00     0.119 C 
BRANCH   3   4
HETATM    4  N1  UNL     1      -1.238   7.552  36.640  1.00  0.00    -0.262 N 
BRANCH   4   5
HETATM    5  C4  UNL     1      -2.005   7.352  37.789  1.00  0.00     0.085 C 
BRANCH   5   6
HETATM    6  C2  UNL     1      -1.926   8.457  38.835  1.00  0.00     0.017 C 
HETATM    7  C1  UNL     1      -3.271   8.965  39.271  1.00  0.00     0.015 C 
HETATM    8  C3  UNL     1      -1.120   8.030  40.039  1.00  0.00     0.015 C 
ENDBRANCH   5   6
ENDBRANCH   4   5
BRANCH   4   9
HETATM    9  S1  UNL     1      -1.461   8.971  35.749  1.00  0.00     0.267 S 
HETATM   10  O6  UNL     1      -2.780   9.593  36.184  1.00  0.00    -0.200 OA
HETATM   11  O7  UNL     1      -0.349   9.983  35.987  1.00  0.00    -0.200 OA
BRANCH   9  12
HETATM   12  C22 UNL     1      -1.559   8.707  34.013  1.00  0.00     0.080 A 
HETATM   13  C23 UNL     1      -0.451   8.621  33.197  1.00  0.00     0.027 A 
HETATM   14  C24 UNL     1      -0.553   8.418  31.834  1.00  0.00     0.028 A 
HETATM   15  C25 UNL     1      -1.786   8.293  31.230  1.00  0.00     0.046 A 
HETATM   16  N3  UNL     1      -1.897   8.083  29.810  1.00  0.00    -0.102 NA
HETATM   17  C26 UNL     1      -2.904   8.378  32.029  1.00  0.00     0.028 A 
HETATM   18  C27 UNL     1      -2.796   8.579  33.387  1.00  0.00     0.027 A 
ENDBRANCH   9  12
ENDBRANCH   4   9
ENDBRANCH   3   4
ENDBRANCH   2   3
BRANCH   2  19
HETATM   19  O1  UNL     1       1.554   5.492  37.457  1.00  0.00    -0.385 OA
ATOM     20  H1  UNL     1       2.026   5.305  38.260  1.00  0.00     0.211 HD
ENDBRANCH   2  19
ENDBRANCH   1   2
BRANCH   1  21
HETATM   21  C8  UNL     1       2.829   7.934  36.700  1.00  0.00     0.094 C 
BRANCH  21  22
HETATM   22  C9  UNL     1       4.195   8.342  37.028  1.00  0.00    -0.053 A 
HETATM   23  C10 UNL     1       4.528   9.694  36.945  1.00  0.00     0.007 A 
HETATM   24  C11 UNL     1       5.780  10.189  37.197  1.00  0.00     0.001 A 
HETATM   25  C12 UNL     1       6.780   9.304  37.556  1.00  0.00     0.000 A 
HETATM   26  C13 UNL     1       6.500   7.964  37.651  1.00  0.00     0.001 A 
HETATM   27  C14 UNL     1       5.202   7.499  37.383  1.00  0.00     0.007 A 
ENDBRANCH  21  22
ENDBRANCH   1  21
BRANCH   1  28
HETATM   28  N2  UNL     1       2.453   7.789  39.171  1.00  0.00    -0.307 N 
HETATM   29  C15 UNL     1       2.443   8.915  40.030  1.00  0.00     0.365 C 
HETATM   30  O2  UNL     1       1.931   9.976  39.653  1.00  0.00    -0.238 OA
ATOM     31  H2  UNL     1       2.890   6.936  39.518  1.00  0.00     0.170 HD
BRANCH  29  32
HETATM   32  O3  UNL     1       3.006   8.850  41.308  1.00  0.00    -0.296 OA
BRANCH  32  33
HETATM   33  C16 UNL     1       4.003   7.892  41.627  1.00  0.00     0.166 C 
HETATM   34  C17 UNL     1       5.318   8.529  41.936  1.00  0.00     0.204 C 
HETATM   35  O4  UNL     1       5.861   7.929  43.041  1.00  0.00    -0.358 OA
HETATM   36  C18 UNL     1       5.007   6.936  43.492  1.00  0.00     0.266 C 
HETATM   37  O5  UNL     1       4.843   6.948  44.872  1.00  0.00    -0.361 OA
HETATM   38  C21 UNL     1       3.631   7.285  42.964  1.00  0.00     0.075 C 
HETATM   39  C19 UNL     1       3.996   7.977  45.207  1.00  0.00     0.171 C 
HETATM   40  C20 UNL     1       3.154   8.286  43.965  1.00  0.00     0.038 C 
ENDBRANCH  32  33
ENDBRANCH  29  32
ENDBRANCH   1  28
TORSDOF 13
ENDMDL
