MODEL 3
REMARK VINA RESULT: -10.965263302      1.137      1.393
REMARK  5 active torsions:
REMARK  status: ('A' for Active; 'I' for Inactive)
REMARK       I    between atoms: C1_2  and  N1_3 
REMARK    1  A    between atoms: C1_2  and  C15_18 
REMARK    2  A    between atoms: N1_3  and  C2_5 
REMARK    3  A    between atoms: C2_5  and  C3_6 
REMARK    4  A    between atoms: C6_9  and  C7_10 
REMARK       I    between atoms: N2_22  and  C18_23 
REMARK       I    between atoms: C18_23  and  N3_25 
REMARK    5  A    between atoms: N3_25  and  O4_27 
ROOT
HETATM    1  O1  UNL     1       8.938  -7.824  11.533  1.00  0.00    -0.271 OA
HETATM    2  C1  UNL     1       8.850  -8.263  10.361  1.00  0.00     0.249 C 
HETATM    3  N1  UNL     1       7.715  -7.900   9.594  1.00  0.00    -0.355 N 
ATOM      4  H1  UNL     1       7.658  -8.263   8.642  1.00  0.00     0.162 HD
ENDROOT
BRANCH   2   5
HETATM    5  C15 UNL     1       9.927  -9.138   9.824  1.00  0.00     0.247 C 
HETATM    6  O2  UNL     1      10.948  -9.322  10.754  1.00  0.00    -0.342 OA
HETATM    7  C16 UNL     1      12.044  -9.561   9.926  1.00  0.00     0.279 C 
HETATM    8  C17 UNL     1      11.890 -10.794   9.084  1.00  0.00     0.188 C 
HETATM    9  O5  UNL     1      12.005  -8.439   9.085  1.00  0.00    -0.350 OA
HETATM   10  N2  UNL     1      11.457 -10.458   7.721  1.00  0.00    -0.325 N 
HETATM   11  C18 UNL     1      11.905 -11.220   6.619  1.00  0.00     0.342 C 
HETATM   12  C19 UNL     1      10.567  -9.342   7.475  1.00  0.00     0.163 C 
HETATM   13  O3  UNL     1      12.682 -12.203   6.762  1.00  0.00    -0.245 OA
HETATM   14  N3  UNL     1      11.483 -10.890   5.315  1.00  0.00    -0.219 N 
ATOM     15  H3  UNL     1      10.854 -10.102   5.160  1.00  0.00     0.199 HD
HETATM   16  C20 UNL     1      10.663  -8.441   8.700  1.00  0.00     0.181 C 
BRANCH  14  17
HETATM   17  O4  UNL     1      11.923 -11.633   4.270  1.00  0.00    -0.286 OA
ATOM     18  H4  UNL     1      11.526 -11.511   3.415  1.00  0.00     0.244 HD
ENDBRANCH  14  17
ENDBRANCH   2   5
BRANCH   3  19
HETATM   19  C2  UNL     1       6.640  -7.064  10.043  1.00  0.00     0.161 C 
BRANCH  19  20
HETATM   20  C3  UNL     1       5.580  -6.874   9.017  1.00  0.00    -0.040 A 
HETATM   21  C4  UNL     1       5.879  -6.666   7.683  1.00  0.00     0.009 A 
HETATM   22  C5  UNL     1       4.899  -6.492   6.728  1.00  0.00     0.013 A 
HETATM   23  C6  UNL     1       3.559  -6.517   7.058  1.00  0.00    -0.026 A 
HETATM   24  C13 UNL     1       3.253  -6.725   8.386  1.00  0.00     0.013 A 
HETATM   25  C14 UNL     1       4.239  -6.897   9.341  1.00  0.00     0.009 A 
BRANCH  23  26
HETATM   26  C7  UNL     1       2.515  -6.330   6.045  1.00  0.00    -0.026 A 
HETATM   27  C8  UNL     1       1.821  -5.147   5.904  1.00  0.00     0.012 A 
HETATM   28  C9  UNL     1       0.847  -4.999   4.943  1.00  0.00     0.001 A 
HETATM   29  C10 UNL     1       0.537  -6.030   4.093  1.00  0.00     0.000 A 
HETATM   30  C11 UNL     1       1.215  -7.220   4.214  1.00  0.00     0.001 A 
HETATM   31  C12 UNL     1       2.194  -7.357   5.185  1.00  0.00     0.012 A 
ENDBRANCH  23  26
ENDBRANCH  19  20
ENDBRANCH   3  19
TORSDOF 5
ENDMDL
