MODEL 10
REMARK VINA RESULT: -10.540924615      6.872     10.433
REMARK  5 active torsions:
REMARK  status: ('A' for Active; 'I' for Inactive)
REMARK       I    between atoms: C1_2  and  N1_3 
REMARK    1  A    between atoms: C1_2  and  C15_18 
REMARK    2  A    between atoms: N1_3  and  C2_5 
REMARK    3  A    between atoms: C2_5  and  C3_6 
REMARK    4  A    between atoms: C6_9  and  C7_10 
REMARK       I    between atoms: N2_22  and  C18_23 
REMARK       I    between atoms: C18_23  and  N3_25 
REMARK    5  A    between atoms: N3_25  and  O4_27 
ROOT
HETATM    1  O1  UNL     1       0.698  -5.642   5.636  1.00  0.00    -0.271 OA
HETATM    2  C1  UNL     1       1.561  -6.450   5.214  1.00  0.00     0.249 C 
HETATM    3  N1  UNL     1       2.760  -6.597   5.957  1.00  0.00    -0.355 N 
ATOM      4  H1  UNL     1       3.451  -7.257   5.603  1.00  0.00     0.162 HD
ENDROOT
BRANCH   2   5
HETATM    5  C15 UNL     1       1.299  -7.215   3.966  1.00  0.00     0.247 C 
HETATM    6  O2  UNL     1       2.279  -8.179   3.741  1.00  0.00    -0.342 OA
HETATM    7  C16 UNL     1       2.243  -8.298   2.352  1.00  0.00     0.279 C 
HETATM    8  C17 UNL     1       0.920  -8.782   1.835  1.00  0.00     0.188 C 
HETATM    9  O5  UNL     1       2.415  -6.964   1.955  1.00  0.00    -0.350 OA
HETATM   10  N2  UNL     1       0.098  -7.667   1.347  1.00  0.00    -0.325 N 
HETATM   11  C18 UNL     1      -0.765  -7.843   0.243  1.00  0.00     0.342 C 
HETATM   12  C19 UNL     1       0.153  -6.367   1.982  1.00  0.00     0.163 C 
HETATM   13  O3  UNL     1      -0.860  -8.949  -0.358  1.00  0.00    -0.245 OA
HETATM   14  N3  UNL     1      -1.551  -6.767  -0.217  1.00  0.00    -0.219 N 
ATOM     15  H3  UNL     1      -1.502  -5.858   0.243  1.00  0.00     0.199 HD
HETATM   16  C20 UNL     1       1.466  -6.323   2.755  1.00  0.00     0.181 C 
BRANCH  14  17
HETATM   17  O4  UNL     1      -2.374  -6.955  -1.278  1.00  0.00    -0.286 OA
ATOM     18  H4  UNL     1      -2.073  -6.713  -2.146  1.00  0.00     0.244 HD
ENDBRANCH  14  17
ENDBRANCH   2   5
BRANCH   3  19
HETATM   19  C2  UNL     1       3.081  -5.895   7.165  1.00  0.00     0.161 C 
BRANCH  19  20
HETATM   20  C3  UNL     1       4.373  -6.325   7.765  1.00  0.00    -0.040 A 
HETATM   21  C4  UNL     1       4.498  -6.608   9.112  1.00  0.00     0.009 A 
HETATM   22  C5  UNL     1       5.693  -7.010   9.671  1.00  0.00     0.013 A 
HETATM   23  C6  UNL     1       6.834  -7.153   8.908  1.00  0.00    -0.026 A 
HETATM   24  C13 UNL     1       6.716  -6.873   7.563  1.00  0.00     0.013 A 
HETATM   25  C14 UNL     1       5.517  -6.469   7.006  1.00  0.00     0.009 A 
BRANCH  23  26
HETATM   26  C7  UNL     1       8.107  -7.577   9.500  1.00  0.00    -0.026 A 
HETATM   27  C8  UNL     1       8.261  -7.790  10.854  1.00  0.00     0.012 A 
HETATM   28  C9  UNL     1       9.468  -8.189  11.382  1.00  0.00     0.001 A 
HETATM   29  C10 UNL     1      10.557  -8.388  10.572  1.00  0.00     0.000 A 
HETATM   30  C11 UNL     1      10.428  -8.182   9.219  1.00  0.00     0.001 A 
HETATM   31  C12 UNL     1       9.208  -7.780   8.698  1.00  0.00     0.012 A 
ENDBRANCH  23  26
ENDBRANCH  19  20
ENDBRANCH   3  19
TORSDOF 5
ENDMDL
