MODEL 2
REMARK VINA RESULT: -11.000753128      6.884     10.843
REMARK  5 active torsions:
REMARK  status: ('A' for Active; 'I' for Inactive)
REMARK       I    between atoms: C1_2  and  N1_3 
REMARK    1  A    between atoms: C1_2  and  C15_18 
REMARK    2  A    between atoms: N1_3  and  C2_5 
REMARK    3  A    between atoms: C2_5  and  C3_6 
REMARK    4  A    between atoms: C6_9  and  C7_10 
REMARK       I    between atoms: N2_22  and  C18_23 
REMARK       I    between atoms: C18_23  and  N3_25 
REMARK    5  A    between atoms: N3_25  and  O4_27 
ROOT
HETATM    1  O1  UNL     1       0.963  -5.208   7.422  1.00  0.00    -0.271 OA
HETATM    2  C1  UNL     1       1.961  -5.211   6.662  1.00  0.00     0.249 C 
HETATM    3  N1  UNL     1       3.179  -5.740   7.158  1.00  0.00    -0.355 N 
ATOM      4  H1  UNL     1       3.981  -5.737   6.528  1.00  0.00     0.162 HD
ENDROOT
BRANCH   2   5
HETATM    5  C15 UNL     1       1.832  -4.668   5.283  1.00  0.00     0.247 C 
HETATM    6  O2  UNL     1       2.512  -5.455   4.357  1.00  0.00    -0.342 OA
HETATM    7  C16 UNL     1       2.816  -4.523   3.365  1.00  0.00     0.279 C 
HETATM    8  C17 UNL     1       1.598  -3.920   2.728  1.00  0.00     0.188 C 
HETATM    9  O5  UNL     1       3.468  -3.530   4.109  1.00  0.00    -0.350 OA
HETATM   10  N2  UNL     1       1.298  -2.599   3.297  1.00  0.00    -0.325 N 
HETATM   11  C18 UNL     1       0.750  -1.579   2.489  1.00  0.00     0.342 C 
HETATM   12  C19 UNL     1       1.557  -2.313   4.693  1.00  0.00     0.163 C 
HETATM   13  O3  UNL     1       0.501  -1.761   1.265  1.00  0.00    -0.245 OA
HETATM   14  N3  UNL     1       0.464  -0.315   3.045  1.00  0.00    -0.219 N 
ATOM     15  H3  UNL     1       0.650  -0.131   4.031  1.00  0.00     0.199 HD
HETATM   16  C20 UNL     1       2.568  -3.352   5.162  1.00  0.00     0.181 C 
BRANCH  14  17
HETATM   17  O4  UNL     1      -0.062   0.652   2.254  1.00  0.00    -0.286 OA
ATOM     18  H4  UNL     1       0.086   1.564   2.476  1.00  0.00     0.244 HD
ENDBRANCH  14  17
ENDBRANCH   2   5
BRANCH   3  19
HETATM   19  C2  UNL     1       3.378  -6.279   8.471  1.00  0.00     0.161 C 
BRANCH  19  20
HETATM   20  C3  UNL     1       4.787  -6.676   8.732  1.00  0.00    -0.040 A 
HETATM   21  C4  UNL     1       5.225  -7.041   9.991  1.00  0.00     0.009 A 
HETATM   22  C5  UNL     1       6.530  -7.413  10.237  1.00  0.00     0.013 A 
HETATM   23  C6  UNL     1       7.474  -7.442   9.230  1.00  0.00    -0.026 A 
HETATM   24  C13 UNL     1       7.044  -7.080   7.971  1.00  0.00     0.013 A 
HETATM   25  C14 UNL     1       5.735  -6.706   7.728  1.00  0.00     0.009 A 
BRANCH  23  26
HETATM   26  C7  UNL     1       8.863  -7.834   9.489  1.00  0.00    -0.026 A 
HETATM   27  C8  UNL     1       9.812  -7.908   8.492  1.00  0.00     0.012 A 
HETATM   28  C9  UNL     1      11.109  -8.279   8.765  1.00  0.00     0.001 A 
HETATM   29  C10 UNL     1      11.497  -8.586  10.044  1.00  0.00     0.000 A 
HETATM   30  C11 UNL     1      10.569  -8.519  11.056  1.00  0.00     0.001 A 
HETATM   31  C12 UNL     1       9.266  -8.145  10.769  1.00  0.00     0.012 A 
ENDBRANCH  23  26
ENDBRANCH  19  20
ENDBRANCH   3  19
TORSDOF 5
ENDMDL
