MODEL 14
REMARK VINA RESULT: -10.469838573      6.424     10.052
REMARK  5 active torsions:
REMARK  status: ('A' for Active; 'I' for Inactive)
REMARK       I    between atoms: C1_2  and  N1_3 
REMARK    1  A    between atoms: C1_2  and  C15_18 
REMARK    2  A    between atoms: N1_3  and  C2_5 
REMARK    3  A    between atoms: C2_5  and  C3_6 
REMARK    4  A    between atoms: C6_9  and  C7_10 
REMARK       I    between atoms: N2_22  and  C18_23 
REMARK       I    between atoms: C18_23  and  N3_25 
REMARK    5  A    between atoms: N3_25  and  O4_27 
ROOT
HETATM    1  O1  UNL     1       2.780  -3.833   5.810  1.00  0.00    -0.271 OA
HETATM    2  C1  UNL     1       2.657  -5.028   5.446  1.00  0.00     0.249 C 
HETATM    3  N1  UNL     1       2.788  -6.043   6.427  1.00  0.00    -0.355 N 
ATOM      4  H1  UNL     1       2.685  -7.009   6.116  1.00  0.00     0.162 HD
ENDROOT
BRANCH   2   5
HETATM    5  C15 UNL     1       2.381  -5.332   4.016  1.00  0.00     0.247 C 
HETATM    6  O2  UNL     1       2.505  -4.197   3.218  1.00  0.00    -0.342 OA
HETATM    7  C16 UNL     1       1.640  -4.497   2.166  1.00  0.00     0.279 C 
HETATM    8  C17 UNL     1       2.053  -5.715   1.392  1.00  0.00     0.188 C 
HETATM    9  O5  UNL     1       0.455  -4.789   2.857  1.00  0.00    -0.350 OA
HETATM   10  N2  UNL     1       1.289  -6.898   1.811  1.00  0.00    -0.325 N 
HETATM   11  C18 UNL     1       0.943  -7.896   0.874  1.00  0.00     0.342 C 
HETATM   12  C19 UNL     1       0.874  -7.067   3.188  1.00  0.00     0.163 C 
HETATM   13  O3  UNL     1       1.271  -7.810  -0.342  1.00  0.00    -0.245 OA
HETATM   14  N3  UNL     1       0.211  -9.028   1.286  1.00  0.00    -0.219 N 
ATOM     15  H3  UNL     1      -0.072  -9.132   2.260  1.00  0.00     0.199 HD
HETATM   16  C20 UNL     1       0.922  -5.682   3.823  1.00  0.00     0.181 C 
BRANCH  14  17
HETATM   17  O4  UNL     1      -0.113  -9.975   0.372  1.00  0.00    -0.286 OA
ATOM     18  H4  UNL     1      -0.398 -10.830   0.672  1.00  0.00     0.244 HD
ENDBRANCH  14  17
ENDBRANCH   2   5
BRANCH   3  19
HETATM   19  C2  UNL     1       3.054  -5.826   7.818  1.00  0.00     0.161 C 
BRANCH  19  20
HETATM   20  C3  UNL     1       4.401  -6.296   8.237  1.00  0.00    -0.040 A 
HETATM   21  C4  UNL     1       4.697  -6.596   9.553  1.00  0.00     0.009 A 
HETATM   22  C5  UNL     1       5.945  -7.036   9.944  1.00  0.00     0.013 A 
HETATM   23  C6  UNL     1       6.969  -7.200   9.034  1.00  0.00    -0.026 A 
HETATM   24  C13 UNL     1       6.681  -6.904   7.719  1.00  0.00     0.013 A 
HETATM   25  C14 UNL     1       5.429  -6.462   7.331  1.00  0.00     0.009 A 
BRANCH  23  26
HETATM   26  C7  UNL     1       8.298  -7.665   9.449  1.00  0.00    -0.026 A 
HETATM   27  C8  UNL     1       9.358  -7.758   8.572  1.00  0.00     0.012 A 
HETATM   28  C9  UNL     1      10.595  -8.197   8.990  1.00  0.00     0.001 A 
HETATM   29  C10 UNL     1      10.808  -8.554  10.297  1.00  0.00     0.000 A 
HETATM   30  C11 UNL     1       9.766  -8.469  11.190  1.00  0.00     0.001 A 
HETATM   31  C12 UNL     1       8.526  -8.027  10.758  1.00  0.00     0.012 A 
ENDBRANCH  23  26
ENDBRANCH  19  20
ENDBRANCH   3  19
TORSDOF 5
ENDMDL
