MODEL 1
REMARK VINA RESULT: -11.040602369      0.000      0.000
REMARK  5 active torsions:
REMARK  status: ('A' for Active; 'I' for Inactive)
REMARK       I    between atoms: C1_2  and  N1_3 
REMARK    1  A    between atoms: C1_2  and  C15_18 
REMARK    2  A    between atoms: N1_3  and  C2_5 
REMARK    3  A    between atoms: C2_5  and  C3_6 
REMARK    4  A    between atoms: C6_9  and  C7_10 
REMARK       I    between atoms: N2_22  and  C18_23 
REMARK       I    between atoms: C18_23  and  N3_25 
REMARK    5  A    between atoms: N3_25  and  O4_27 
ROOT
HETATM    1  O1  UNL     1      10.439  -8.464  11.387  1.00  0.00    -0.271 OA
HETATM    2  C1  UNL     1      10.217  -8.762  10.188  1.00  0.00     0.249 C 
HETATM    3  N1  UNL     1       9.083  -8.193   9.556  1.00  0.00    -0.355 N 
ATOM      4  H1  UNL     1       8.916  -8.443   8.581  1.00  0.00     0.162 HD
ENDROOT
BRANCH   2   5
HETATM    5  C15 UNL     1      11.142  -9.688   9.481  1.00  0.00     0.247 C 
HETATM    6  O2  UNL     1      12.425  -9.640  10.020  1.00  0.00    -0.342 OA
HETATM    7  C16 UNL     1      13.206 -10.004   8.924  1.00  0.00     0.279 C 
HETATM    8  C17 UNL     1      12.912 -11.389   8.423  1.00  0.00     0.188 C 
HETATM    9  O5  UNL     1      12.775  -9.081   7.959  1.00  0.00    -0.350 OA
HETATM   10  N2  UNL     1      12.021 -11.355   7.255  1.00  0.00    -0.325 N 
HETATM   11  C18 UNL     1      12.157 -12.310   6.224  1.00  0.00     0.342 C 
HETATM   12  C19 UNL     1      10.989 -10.347   7.133  1.00  0.00     0.163 C 
HETATM   13  O3  UNL     1      13.037 -13.215   6.266  1.00  0.00    -0.245 OA
HETATM   14  N3  UNL     1      11.297 -12.271   5.108  1.00  0.00    -0.219 N 
ATOM     15  H3  UNL     1      10.574 -11.555   5.039  1.00  0.00     0.199 HD
HETATM   16  C20 UNL     1      11.389  -9.210   8.066  1.00  0.00     0.181 C 
BRANCH  14  17
HETATM   17  O4  UNL     1      11.443 -13.196   4.127  1.00  0.00    -0.286 OA
ATOM     18  H4  UNL     1      10.998 -13.066   3.298  1.00  0.00     0.244 HD
ENDBRANCH  14  17
ENDBRANCH   2   5
BRANCH   3  19
HETATM   19  C2  UNL     1       8.150  -7.296  10.172  1.00  0.00     0.161 C 
BRANCH  19  20
HETATM   20  C3  UNL     1       6.928  -7.071   9.354  1.00  0.00    -0.040 A 
HETATM   21  C4  UNL     1       6.980  -6.949   7.978  1.00  0.00     0.009 A 
HETATM   22  C5  UNL     1       5.848  -6.743   7.215  1.00  0.00     0.013 A 
HETATM   23  C6  UNL     1       4.598  -6.649   7.791  1.00  0.00    -0.026 A 
HETATM   24  C13 UNL     1       4.539  -6.770   9.163  1.00  0.00     0.013 A 
HETATM   25  C14 UNL     1       5.675  -6.975   9.925  1.00  0.00     0.009 A 
BRANCH  23  26
HETATM   26  C7  UNL     1       3.394  -6.427   6.983  1.00  0.00    -0.026 A 
HETATM   27  C8  UNL     1       2.552  -5.354   7.184  1.00  0.00     0.012 A 
HETATM   28  C9  UNL     1       1.429  -5.171   6.409  1.00  0.00     0.001 A 
HETATM   29  C10 UNL     1       1.115  -6.055   5.408  1.00  0.00     0.000 A 
HETATM   30  C11 UNL     1       1.940  -7.132   5.188  1.00  0.00     0.001 A 
HETATM   31  C12 UNL     1       3.067  -7.307   5.975  1.00  0.00     0.012 A 
ENDBRANCH  23  26
ENDBRANCH  19  20
ENDBRANCH   3  19
TORSDOF 5
ENDMDL
