MODEL 16
REMARK VINA RESULT: -10.429585584      6.487     10.035
REMARK  5 active torsions:
REMARK  status: ('A' for Active; 'I' for Inactive)
REMARK       I    between atoms: C1_2  and  N1_3 
REMARK    1  A    between atoms: C1_2  and  C15_18 
REMARK    2  A    between atoms: N1_3  and  C2_5 
REMARK    3  A    between atoms: C2_5  and  C3_6 
REMARK    4  A    between atoms: C6_9  and  C7_10 
REMARK       I    between atoms: N2_22  and  C18_23 
REMARK       I    between atoms: C18_23  and  N3_25 
REMARK    5  A    between atoms: N3_25  and  O4_27 
ROOT
HETATM    1  O1  UNL     1       2.750  -3.833   5.737  1.00  0.00    -0.271 OA
HETATM    2  C1  UNL     1       2.642  -5.027   5.365  1.00  0.00     0.249 C 
HETATM    3  N1  UNL     1       2.764  -6.045   6.344  1.00  0.00    -0.355 N 
ATOM      4  H1  UNL     1       2.673  -7.010   6.028  1.00  0.00     0.162 HD
ENDROOT
BRANCH   2   5
HETATM    5  C15 UNL     1       2.390  -5.327   3.930  1.00  0.00     0.247 C 
HETATM    6  O2  UNL     1       2.619  -4.213   3.127  1.00  0.00    -0.342 OA
HETATM    7  C16 UNL     1       1.769  -4.463   2.050  1.00  0.00     0.279 C 
HETATM    8  C17 UNL     1       2.119  -5.716   1.300  1.00  0.00     0.188 C 
HETATM    9  O5  UNL     1       0.545  -4.663   2.704  1.00  0.00    -0.350 OA
HETATM   10  N2  UNL     1       1.261  -6.837   1.705  1.00  0.00    -0.325 N 
HETATM   11  C18 UNL     1       0.874  -7.818   0.766  1.00  0.00     0.342 C 
HETATM   12  C19 UNL     1       0.790  -6.961   3.069  1.00  0.00     0.163 C 
HETATM   13  O3  UNL     1       1.247  -7.770  -0.439  1.00  0.00    -0.245 OA
HETATM   14  N3  UNL     1       0.052  -8.891   1.164  1.00  0.00    -0.219 N 
ATOM     15  H3  UNL     1      -0.269  -8.965   2.130  1.00  0.00     0.199 HD
HETATM   16  C20 UNL     1       0.917  -5.576   3.693  1.00  0.00     0.181 C 
BRANCH  14  17
HETATM   17  O4  UNL     1      -0.309  -9.824   0.249  1.00  0.00    -0.286 OA
ATOM     18  H4  UNL     1      -0.607 -10.675   0.547  1.00  0.00     0.244 HD
ENDBRANCH  14  17
ENDBRANCH   2   5
BRANCH   3  19
HETATM   19  C2  UNL     1       3.006  -5.832   7.741  1.00  0.00     0.161 C 
BRANCH  19  20
HETATM   20  C3  UNL     1       4.349  -6.299   8.179  1.00  0.00    -0.040 A 
HETATM   21  C4  UNL     1       5.396  -6.458   7.291  1.00  0.00     0.009 A 
HETATM   22  C5  UNL     1       6.643  -6.887   7.694  1.00  0.00     0.013 A 
HETATM   23  C6  UNL     1       6.912  -7.180   9.015  1.00  0.00    -0.026 A 
HETATM   24  C13 UNL     1       5.873  -7.023   9.907  1.00  0.00     0.013 A 
HETATM   25  C14 UNL     1       4.623  -6.594   9.499  1.00  0.00     0.009 A 
BRANCH  23  26
HETATM   26  C7  UNL     1       8.237  -7.640   9.446  1.00  0.00    -0.026 A 
HETATM   27  C8  UNL     1       8.506  -8.019  10.744  1.00  0.00     0.012 A 
HETATM   28  C9  UNL     1       9.759  -8.447  11.120  1.00  0.00     0.001 A 
HETATM   29  C10 UNL     1      10.782  -8.509  10.208  1.00  0.00     0.000 A 
HETATM   30  C11 UNL     1      10.539  -8.136   8.907  1.00  0.00     0.001 A 
HETATM   31  C12 UNL     1       9.273  -7.707   8.540  1.00  0.00     0.012 A 
ENDBRANCH  23  26
ENDBRANCH  19  20
ENDBRANCH   3  19
TORSDOF 5
ENDMDL
