MODEL 3
REMARK VINA RESULT: -7.511114398      1.251      1.747
REMARK  8 active torsions:
REMARK  status: ('A' for Active; 'I' for Inactive)
REMARK    1  A    between atoms: C1_2  and  C2_4 
REMARK    2  A    between atoms: C5_7  and  C6_8 
REMARK    3  A    between atoms: N1_9  and  O3_11 
REMARK    4  A    between atoms: O3_11  and  C7_12 
REMARK    5  A    between atoms: C7_12  and  C8_13 
REMARK    6  A    between atoms: C8_13  and  O4_14 
REMARK    7  A    between atoms: O4_14  and  N2_15 
REMARK    8  A    between atoms: C9_17  and  C10_18 
ROOT
HETATM    1  C8  UNL     1       6.515  -3.124   0.568  1.00  0.00     0.230 C 
ENDROOT
BRANCH   1   2
HETATM    2  C7  UNL     1       7.756  -3.058   1.420  1.00  0.00     0.230 C 
BRANCH   2   3
HETATM    3  O3  UNL     1       8.571  -2.038   0.929  1.00  0.00    -0.279 OA
BRANCH   3   4
HETATM    4  N1  UNL     1       8.656  -0.773   1.402  1.00  0.00    -0.277 N 
HETATM    5  C6  UNL     1       8.955   0.267   0.701  1.00  0.00     0.125 C 
ATOM      6  H1  UNL     1       8.468  -0.631   2.395  1.00  0.00     0.193 HD
BRANCH   5   7
HETATM    7  C5  UNL     1       9.024   1.604   1.304  1.00  0.00    -0.019 A 
HETATM    8  C4  UNL     1       9.545   2.662   0.588  1.00  0.00     0.014 A 
HETATM    9  C3  UNL     1       9.589   3.901   1.197  1.00  0.00     0.019 A 
HETATM   10  C2  UNL     1       9.134   4.111   2.482  1.00  0.00     0.040 A 
HETATM   11  C15 UNL     1       8.619   3.043   3.179  1.00  0.00     0.019 A 
HETATM   12  C14 UNL     1       8.561   1.779   2.590  1.00  0.00     0.014 A 
BRANCH  10  13
HETATM   13  C1  UNL     1       9.211   5.442   3.061  1.00  0.00     0.209 C 
HETATM   14  O1  UNL     1       9.521   5.546   4.269  1.00  0.00    -0.644 OA
HETATM   15  O2  UNL     1       8.961   6.597   2.348  1.00  0.00    -0.644 OA
ENDBRANCH  10  13
ENDBRANCH   5   7
ENDBRANCH   3   4
ENDBRANCH   2   3
ENDBRANCH   1   2
BRANCH   1  16
HETATM   16  O4  UNL     1       5.748  -1.917   0.667  1.00  0.00    -0.279 OA
BRANCH  16  17
HETATM   17  N2  UNL     1       5.812  -1.090  -0.441  1.00  0.00    -0.276 N 
HETATM   18  C9  UNL     1       6.180  -1.547  -1.590  1.00  0.00     0.143 C 
ATOM     19  H2  UNL     1       5.565  -0.105  -0.348  1.00  0.00     0.193 HD
BRANCH  18  20
HETATM   20  C10 UNL     1       6.254  -0.691  -2.766  1.00  0.00     0.059 A 
HETATM   21  C11 UNL     1       5.877  -1.183  -3.995  1.00  0.00     0.105 A 
HETATM   22  C12 UNL     1       5.963  -0.331  -5.102  1.00  0.00     0.251 A 
HETATM   23  O5  UNL     1       5.621  -0.775  -6.218  1.00  0.00    -0.268 OA
HETATM   24  N3  UNL     1       6.398   0.926  -4.974  1.00  0.00    -0.275 N 
HETATM   25  C13 UNL     1       6.760   1.384  -3.762  1.00  0.00     0.327 A 
ATOM     26  H3  UNL     1       6.455   1.535  -5.791  1.00  0.00     0.173 HD
HETATM   27  O6  UNL     1       7.173   2.573  -3.629  1.00  0.00    -0.247 OA
HETATM   28  N4  UNL     1       6.684   0.572  -2.672  1.00  0.00    -0.307 N 
ATOM     29  H4  UNL     1       6.963   0.937  -1.761  1.00  0.00     0.170 HD
ENDBRANCH  18  20
ENDBRANCH  16  17
ENDBRANCH   1  16
TORSDOF 8
ENDMDL
