MODEL 10
REMARK VINA RESULT: -7.211544948      2.302      8.774
REMARK  8 active torsions:
REMARK  status: ('A' for Active; 'I' for Inactive)
REMARK    1  A    between atoms: C1_2  and  C2_4 
REMARK    2  A    between atoms: C5_7  and  C6_8 
REMARK    3  A    between atoms: N1_9  and  O3_11 
REMARK    4  A    between atoms: O3_11  and  C7_12 
REMARK    5  A    between atoms: C7_12  and  C8_13 
REMARK    6  A    between atoms: C8_13  and  O4_14 
REMARK    7  A    between atoms: O4_14  and  N2_15 
REMARK    8  A    between atoms: C9_17  and  C10_18 
ROOT
HETATM    1  C8  UNL     1       9.253   0.360   2.827  1.00  0.00     0.230 C 
ENDROOT
BRANCH   1   2
HETATM    2  C7  UNL     1       8.424  -0.545   3.701  1.00  0.00     0.230 C 
BRANCH   2   3
HETATM    3  O3  UNL     1       7.803  -1.492   2.886  1.00  0.00    -0.279 OA
BRANCH   3   4
HETATM    4  N1  UNL     1       7.451  -1.336   1.589  1.00  0.00    -0.277 N 
HETATM    5  C6  UNL     1       7.330  -2.289   0.729  1.00  0.00     0.125 C 
ATOM      6  H1  UNL     1       7.267  -0.387   1.265  1.00  0.00     0.193 HD
BRANCH   5   7
HETATM    7  C5  UNL     1       6.943  -2.023  -0.661  1.00  0.00    -0.019 A 
HETATM    8  C4  UNL     1       5.797  -1.305  -0.938  1.00  0.00     0.014 A 
HETATM    9  C3  UNL     1       5.474  -1.079  -2.261  1.00  0.00     0.019 A 
HETATM   10  C2  UNL     1       6.250  -1.542  -3.302  1.00  0.00     0.040 A 
HETATM   11  C15 UNL     1       7.388  -2.256  -3.007  1.00  0.00     0.019 A 
HETATM   12  C14 UNL     1       7.741  -2.500  -1.678  1.00  0.00     0.014 A 
BRANCH  10  13
HETATM   13  C1  UNL     1       5.850  -1.268  -4.672  1.00  0.00     0.209 C 
HETATM   14  O1  UNL     1       6.008  -2.167  -5.528  1.00  0.00    -0.644 OA
HETATM   15  O2  UNL     1       5.303  -0.066  -5.079  1.00  0.00    -0.644 OA
ENDBRANCH  10  13
ENDBRANCH   5   7
ENDBRANCH   3   4
ENDBRANCH   2   3
ENDBRANCH   1   2
BRANCH   1  16
HETATM   16  O4  UNL     1       8.442   1.356   2.188  1.00  0.00    -0.279 OA
BRANCH  16  17
HETATM   17  N2  UNL     1       8.504   2.614   2.760  1.00  0.00    -0.276 N 
HETATM   18  C9  UNL     1       9.118   3.583   2.171  1.00  0.00     0.143 C 
ATOM     19  H2  UNL     1       8.057   2.778   3.662  1.00  0.00     0.193 HD
BRANCH  18  20
HETATM   20  C10 UNL     1       9.193   4.913   2.758  1.00  0.00     0.059 A 
HETATM   21  C11 UNL     1       8.893   5.091   4.090  1.00  0.00     0.105 A 
HETATM   22  C12 UNL     1       8.976   6.384   4.618  1.00  0.00     0.251 A 
HETATM   23  O5  UNL     1       8.704   6.549   5.826  1.00  0.00    -0.268 OA
HETATM   24  N3  UNL     1       9.336   7.421   3.855  1.00  0.00    -0.275 N 
HETATM   25  C13 UNL     1       9.626   7.221   2.556  1.00  0.00     0.327 A 
ATOM     26  H3  UNL     1       9.392   8.358   4.255  1.00  0.00     0.173 HD
HETATM   27  O6  UNL     1       9.969   8.195   1.824  1.00  0.00    -0.247 OA
HETATM   28  N4  UNL     1       9.552   5.972   2.022  1.00  0.00    -0.307 N 
ATOM     29  H4  UNL     1       9.775   5.839   1.036  1.00  0.00     0.170 HD
ENDBRANCH  18  20
ENDBRANCH  16  17
ENDBRANCH   1  16
TORSDOF 8
ENDMDL
