MODEL 7
REMARK VINA RESULT: -7.370314914      3.749      4.535
REMARK  8 active torsions:
REMARK  status: ('A' for Active; 'I' for Inactive)
REMARK    1  A    between atoms: C1_2  and  C2_4 
REMARK    2  A    between atoms: C5_7  and  C6_8 
REMARK    3  A    between atoms: N1_9  and  O3_11 
REMARK    4  A    between atoms: O3_11  and  C7_12 
REMARK    5  A    between atoms: C7_12  and  C8_13 
REMARK    6  A    between atoms: C8_13  and  O4_14 
REMARK    7  A    between atoms: O4_14  and  N2_15 
REMARK    8  A    between atoms: C9_17  and  C10_18 
ROOT
HETATM    1  C8  UNL     1       5.681  -3.315   0.460  1.00  0.00     0.230 C 
ENDROOT
BRANCH   1   2
HETATM    2  C7  UNL     1       6.857  -4.124   0.944  1.00  0.00     0.230 C 
BRANCH   2   3
HETATM    3  O3  UNL     1       7.964  -3.799   0.160  1.00  0.00    -0.279 OA
BRANCH   3   4
HETATM    4  N1  UNL     1       8.827  -2.778   0.365  1.00  0.00    -0.277 N 
HETATM    5  C6  UNL     1       9.510  -2.182  -0.553  1.00  0.00     0.125 C 
ATOM      6  H1  UNL     1       8.948  -2.452   1.324  1.00  0.00     0.193 HD
BRANCH   5   7
HETATM    7  C5  UNL     1      10.426  -1.080  -0.235  1.00  0.00    -0.019 A 
HETATM    8  C4  UNL     1      11.316  -1.198   0.813  1.00  0.00     0.014 A 
HETATM    9  C3  UNL     1      12.157  -0.134   1.075  1.00  0.00     0.019 A 
HETATM   10  C2  UNL     1      12.136   1.027   0.332  1.00  0.00     0.040 A 
HETATM   11  C15 UNL     1      11.242   1.125  -0.709  1.00  0.00     0.019 A 
HETATM   12  C14 UNL     1      10.378   0.067  -0.998  1.00  0.00     0.014 A 
BRANCH  10  13
HETATM   13  C1  UNL     1      13.050   2.107   0.663  1.00  0.00     0.209 C 
HETATM   14  O1  UNL     1      12.664   2.985   1.467  1.00  0.00    -0.644 OA
HETATM   15  O2  UNL     1      14.323   2.215   0.138  1.00  0.00    -0.644 OA
ENDBRANCH  10  13
ENDBRANCH   5   7
ENDBRANCH   3   4
ENDBRANCH   2   3
ENDBRANCH   1   2
BRANCH   1  16
HETATM   16  O4  UNL     1       5.822  -1.930   0.805  1.00  0.00    -0.279 OA
BRANCH  16  17
HETATM   17  N2  UNL     1       6.018  -1.078  -0.268  1.00  0.00    -0.276 N 
HETATM   18  C9  UNL     1       5.958  -1.512  -1.481  1.00  0.00     0.143 C 
ATOM     19  H2  UNL     1       6.213  -0.092  -0.096  1.00  0.00     0.193 HD
BRANCH  18  20
HETATM   20  C10 UNL     1       6.162  -0.630  -2.621  1.00  0.00     0.059 A 
HETATM   21  C11 UNL     1       6.749   0.602  -2.438  1.00  0.00     0.105 A 
HETATM   22  C12 UNL     1       6.927   1.421  -3.557  1.00  0.00     0.251 A 
HETATM   23  O5  UNL     1       7.460   2.539  -3.394  1.00  0.00    -0.268 OA
HETATM   24  N3  UNL     1       6.541   1.024  -4.774  1.00  0.00    -0.275 N 
HETATM   25  C13 UNL     1       5.970  -0.185  -4.927  1.00  0.00     0.327 A 
ATOM     26  H3  UNL     1       6.677   1.633  -5.580  1.00  0.00     0.173 HD
HETATM   27  O6  UNL     1       5.600  -0.572  -6.075  1.00  0.00    -0.247 OA
HETATM   28  N4  UNL     1       5.787  -0.998  -3.852  1.00  0.00    -0.307 N 
ATOM     29  H4  UNL     1       5.353  -1.911  -3.988  1.00  0.00     0.170 HD
ENDBRANCH  18  20
ENDBRANCH  16  17
ENDBRANCH   1  16
TORSDOF 8
ENDMDL
