MODEL 1
REMARK VINA RESULT: -8.189057899      0.000      0.000
REMARK  8 active torsions:
REMARK  status: ('A' for Active; 'I' for Inactive)
REMARK    1  A    between atoms: C1_2  and  C2_4 
REMARK    2  A    between atoms: C5_7  and  C6_8 
REMARK    3  A    between atoms: N1_9  and  O3_11 
REMARK    4  A    between atoms: O3_11  and  C7_12 
REMARK    5  A    between atoms: C7_12  and  C8_13 
REMARK    6  A    between atoms: C8_13  and  O4_14 
REMARK    7  A    between atoms: O4_14  and  N2_15 
REMARK    8  A    between atoms: C9_17  and  C10_18 
ROOT
HETATM    1  C8  UNL     1       7.046  -2.029   1.561  1.00  0.00     0.230 C 
ENDROOT
BRANCH   1   2
HETATM    2  C7  UNL     1       7.423  -0.755   2.271  1.00  0.00     0.230 C 
BRANCH   2   3
HETATM    3  O3  UNL     1       8.295  -0.038   1.451  1.00  0.00    -0.279 OA
BRANCH   3   4
HETATM    4  N1  UNL     1       8.543   1.291   1.501  1.00  0.00    -0.277 N 
HETATM    5  C6  UNL     1       8.662   1.988   2.580  1.00  0.00     0.125 C 
ATOM      6  H1  UNL     1       8.643   1.782   0.613  1.00  0.00     0.193 HD
BRANCH   5   7
HETATM    7  C5  UNL     1       8.932   3.430   2.535  1.00  0.00    -0.019 A 
HETATM    8  C4  UNL     1       9.468   4.001   1.400  1.00  0.00     0.014 A 
HETATM    9  C3  UNL     1       9.704   5.362   1.405  1.00  0.00     0.019 A 
HETATM   10  C2  UNL     1       9.423   6.158   2.495  1.00  0.00     0.040 A 
HETATM   11  C15 UNL     1       8.889   5.570   3.618  1.00  0.00     0.019 A 
HETATM   12  C14 UNL     1       8.639   4.196   3.643  1.00  0.00     0.014 A 
BRANCH  10  13
HETATM   13  C1  UNL     1       9.697   7.584   2.431  1.00  0.00     0.209 C 
HETATM   14  O1  UNL     1      10.340   8.021   1.451  1.00  0.00    -0.644 OA
HETATM   15  O2  UNL     1       9.285   8.482   3.396  1.00  0.00    -0.644 OA
ENDBRANCH  10  13
ENDBRANCH   5   7
ENDBRANCH   3   4
ENDBRANCH   2   3
ENDBRANCH   1   2
BRANCH   1  16
HETATM   16  O4  UNL     1       5.824  -1.875   0.824  1.00  0.00    -0.279 OA
BRANCH  16  17
HETATM   17  N2  UNL     1       5.907  -1.041  -0.276  1.00  0.00    -0.276 N 
HETATM   18  C9  UNL     1       6.190  -1.507  -1.445  1.00  0.00     0.143 C 
ATOM     19  H2  UNL     1       5.741  -0.041  -0.161  1.00  0.00     0.193 HD
BRANCH  18  20
HETATM   20  C10 UNL     1       6.281  -0.644  -2.614  1.00  0.00     0.059 A 
HETATM   21  C11 UNL     1       5.897  -1.118  -3.847  1.00  0.00     0.105 A 
HETATM   22  C12 UNL     1       5.999  -0.258  -4.946  1.00  0.00     0.251 A 
HETATM   23  O5  UNL     1       5.651  -0.687  -6.067  1.00  0.00    -0.268 OA
HETATM   24  N3  UNL     1       6.456   0.990  -4.807  1.00  0.00    -0.275 N 
HETATM   25  C13 UNL     1       6.825   1.431  -3.590  1.00  0.00     0.327 A 
ATOM     26  H3  UNL     1       6.525   1.605  -5.618  1.00  0.00     0.173 HD
HETATM   27  O6  UNL     1       7.259   2.611  -3.447  1.00  0.00    -0.247 OA
HETATM   28  N4  UNL     1       6.734   0.611  -2.508  1.00  0.00    -0.307 N 
ATOM     29  H4  UNL     1       7.017   0.963  -1.594  1.00  0.00     0.170 HD
ENDBRANCH  18  20
ENDBRANCH  16  17
ENDBRANCH   1  16
TORSDOF 8
ENDMDL
