MODEL 2
REMARK VINA RESULT: -8.061655186      0.533      1.581
REMARK  8 active torsions:
REMARK  status: ('A' for Active; 'I' for Inactive)
REMARK    1  A    between atoms: C1_2  and  C2_4 
REMARK    2  A    between atoms: C5_7  and  C6_8 
REMARK    3  A    between atoms: N1_9  and  O3_11 
REMARK    4  A    between atoms: O3_11  and  C7_12 
REMARK    5  A    between atoms: C7_12  and  C8_13 
REMARK    6  A    between atoms: C8_13  and  O4_14 
REMARK    7  A    between atoms: O4_14  and  N2_15 
REMARK    8  A    between atoms: C9_17  and  C10_18 
ROOT
HETATM    1  C8  UNL     1       7.054  -1.998   1.535  1.00  0.00     0.230 C 
ENDROOT
BRANCH   1   2
HETATM    2  C7  UNL     1       7.396  -0.716   2.249  1.00  0.00     0.230 C 
BRANCH   2   3
HETATM    3  O3  UNL     1       8.289   0.002   1.454  1.00  0.00    -0.279 OA
BRANCH   3   4
HETATM    4  N1  UNL     1       8.531   1.332   1.510  1.00  0.00    -0.277 N 
HETATM    5  C6  UNL     1       8.688   2.017   2.591  1.00  0.00     0.125 C 
ATOM      6  H1  UNL     1       8.595   1.834   0.624  1.00  0.00     0.193 HD
BRANCH   5   7
HETATM    7  C5  UNL     1       8.947   3.461   2.553  1.00  0.00    -0.019 A 
HETATM    8  C4  UNL     1       9.485   4.041   1.422  1.00  0.00     0.014 A 
HETATM    9  C3  UNL     1       9.711   5.403   1.433  1.00  0.00     0.019 A 
HETATM   10  C2  UNL     1       9.420   6.193   2.526  1.00  0.00     0.040 A 
HETATM   11  C15 UNL     1       8.885   5.597   3.644  1.00  0.00     0.019 A 
HETATM   12  C14 UNL     1       8.645   4.221   3.663  1.00  0.00     0.014 A 
BRANCH  10  13
HETATM   13  C1  UNL     1       9.684   7.621   2.468  1.00  0.00     0.209 C 
HETATM   14  O1  UNL     1      10.221   8.083   1.437  1.00  0.00    -0.644 OA
HETATM   15  O2  UNL     1       9.374   8.494   3.492  1.00  0.00    -0.644 OA
ENDBRANCH  10  13
ENDBRANCH   5   7
ENDBRANCH   3   4
ENDBRANCH   2   3
ENDBRANCH   1   2
BRANCH   1  16
HETATM   16  O4  UNL     1       5.839  -1.871   0.783  1.00  0.00    -0.279 OA
BRANCH  16  17
HETATM   17  N2  UNL     1       5.916  -1.027  -0.312  1.00  0.00    -0.276 N 
HETATM   18  C9  UNL     1       6.234  -1.477  -1.477  1.00  0.00     0.143 C 
ATOM     19  H2  UNL     1       5.718  -0.033  -0.194  1.00  0.00     0.193 HD
BRANCH  18  20
HETATM   20  C10 UNL     1       6.320  -0.603  -2.639  1.00  0.00     0.059 A 
HETATM   21  C11 UNL     1       6.793   0.682  -2.496  1.00  0.00     0.105 A 
HETATM   22  C12 UNL     1       6.859   1.491  -3.635  1.00  0.00     0.251 A 
HETATM   23  O5  UNL     1       7.288   2.657  -3.508  1.00  0.00    -0.268 OA
HETATM   24  N3  UNL     1       6.477   1.034  -4.832  1.00  0.00    -0.275 N 
HETATM   25  C13 UNL     1       6.019  -0.227  -4.946  1.00  0.00     0.327 A 
ATOM     26  H3  UNL     1       6.531   1.636  -5.653  1.00  0.00     0.173 HD
HETATM   27  O6  UNL     1       5.653  -0.671  -6.074  1.00  0.00    -0.247 OA
HETATM   28  N4  UNL     1       5.945  -1.031  -3.851  1.00  0.00    -0.307 N 
ATOM     29  H4  UNL     1       5.596  -1.983  -3.956  1.00  0.00     0.170 HD
ENDBRANCH  18  20
ENDBRANCH  16  17
ENDBRANCH   1  16
TORSDOF 8
ENDMDL
