MODEL 4
REMARK VINA RESULT: -7.465305085      2.722      4.811
REMARK  8 active torsions:
REMARK  status: ('A' for Active; 'I' for Inactive)
REMARK    1  A    between atoms: C1_2  and  C2_4 
REMARK    2  A    between atoms: C5_7  and  C6_8 
REMARK    3  A    between atoms: N1_9  and  O3_11 
REMARK    4  A    between atoms: O3_11  and  C7_12 
REMARK    5  A    between atoms: C7_12  and  C8_13 
REMARK    6  A    between atoms: C8_13  and  O4_14 
REMARK    7  A    between atoms: O4_14  and  N2_15 
REMARK    8  A    between atoms: C9_17  and  C10_18 
ROOT
HETATM    1  C8  UNL     1       7.230   5.701  -2.967  1.00  0.00     0.230 C 
ENDROOT
BRANCH   1   2
HETATM    2  C7  UNL     1       8.272   6.760  -3.216  1.00  0.00     0.230 C 
BRANCH   2   3
HETATM    3  O3  UNL     1       8.423   7.508  -2.048  1.00  0.00    -0.279 OA
BRANCH   3   4
HETATM    4  N1  UNL     1       8.379   7.042  -0.779  1.00  0.00    -0.277 N 
HETATM    5  C6  UNL     1       9.404   6.848  -0.019  1.00  0.00     0.125 C 
ATOM      6  H1  UNL     1       7.461   6.827  -0.390  1.00  0.00     0.193 HD
BRANCH   5   7
HETATM    7  C5  UNL     1       9.258   6.337   1.349  1.00  0.00    -0.019 A 
HETATM    8  C4  UNL     1       9.360   4.984   1.600  1.00  0.00     0.014 A 
HETATM    9  C3  UNL     1       9.215   4.551   2.903  1.00  0.00     0.019 A 
HETATM   10  C2  UNL     1       8.975   5.417   3.949  1.00  0.00     0.040 A 
HETATM   11  C15 UNL     1       8.877   6.762   3.679  1.00  0.00     0.019 A 
HETATM   12  C14 UNL     1       9.019   7.230   2.371  1.00  0.00     0.014 A 
BRANCH  10  13
HETATM   13  C1  UNL     1       8.834   4.891   5.297  1.00  0.00     0.209 C 
HETATM   14  O1  UNL     1       8.528   3.686   5.434  1.00  0.00    -0.644 OA
HETATM   15  O2  UNL     1       9.019   5.653   6.434  1.00  0.00    -0.644 OA
ENDBRANCH  10  13
ENDBRANCH   5   7
ENDBRANCH   3   4
ENDBRANCH   2   3
ENDBRANCH   1   2
BRANCH   1  16
HETATM   16  O4  UNL     1       7.829   4.456  -2.584  1.00  0.00    -0.279 OA
BRANCH  16  17
HETATM   17  N2  UNL     1       7.102   3.329  -2.922  1.00  0.00    -0.276 N 
HETATM   18  C9  UNL     1       7.648   2.160  -2.923  1.00  0.00     0.143 C 
ATOM     19  H2  UNL     1       6.119   3.423  -3.175  1.00  0.00     0.193 HD
BRANCH  18  20
HETATM   20  C10 UNL     1       6.898   0.963  -3.276  1.00  0.00     0.059 A 
HETATM   21  C11 UNL     1       6.442   0.124  -2.286  1.00  0.00     0.105 A 
HETATM   22  C12 UNL     1       5.725  -1.016  -2.665  1.00  0.00     0.251 A 
HETATM   23  O5  UNL     1       5.310  -1.780  -1.768  1.00  0.00    -0.268 OA
HETATM   24  N3  UNL     1       5.487  -1.287  -3.952  1.00  0.00    -0.275 N 
HETATM   25  C13 UNL     1       5.943  -0.450  -4.902  1.00  0.00     0.327 A 
ATOM     26  H3  UNL     1       4.963  -2.122  -4.212  1.00  0.00     0.173 HD
HETATM   27  O6  UNL     1       5.723  -0.696  -6.124  1.00  0.00    -0.247 OA
HETATM   28  N4  UNL     1       6.642   0.665  -4.555  1.00  0.00    -0.307 N 
ATOM     29  H4  UNL     1       6.979   1.288  -5.289  1.00  0.00     0.170 HD
ENDBRANCH  18  20
ENDBRANCH  16  17
ENDBRANCH   1  16
TORSDOF 8
ENDMDL
