MODEL 11
REMARK VINA RESULT: -9.801832402      3.726     10.280
REMARK  4 active torsions:
REMARK  status: ('A' for Active; 'I' for Inactive)
REMARK    1  A    between atoms: C5_8  and  C6_9 
REMARK    2  A    between atoms: C12_19  and  C13_20 
REMARK    3  A    between atoms: C17_24  and  C18_25 
REMARK    4  A    between atoms: C18_25  and  N4_26 
ROOT
HETATM    1  O1  UNL     1      13.379  -2.281  11.458  1.00  0.00    -0.267 OA
HETATM    2  C1  UNL     1      14.583  -2.296  11.088  1.00  0.00     0.258 A 
HETATM    3  N1  UNL     1      15.038  -1.425  10.163  1.00  0.00    -0.322 N 
ATOM      4  H1  UNL     1      14.378  -0.753   9.770  1.00  0.00     0.169 HD
HETATM    5  C2  UNL     1      16.298  -1.392   9.734  1.00  0.00     0.045 A 
HETATM    6  C3  UNL     1      16.739  -0.489   8.785  1.00  0.00     0.031 A 
HETATM    7  C4  UNL     1      18.045  -0.472   8.354  1.00  0.00     0.014 A 
HETATM    8  C5  UNL     1      18.962  -1.370   8.868  1.00  0.00    -0.022 A 
HETATM    9  C9  UNL     1      18.527  -2.270   9.813  1.00  0.00     0.026 A 
HETATM   10  C10 UNL     1      17.207  -2.294  10.254  1.00  0.00    -0.007 A 
HETATM   11  C11 UNL     1      16.791  -3.189  11.186  1.00  0.00     0.033 A 
HETATM   12  C12 UNL     1      15.483  -3.198  11.611  1.00  0.00     0.059 A 
ENDROOT
BRANCH  12  13
HETATM   13  C13 UNL     1      15.091  -4.192  12.625  1.00  0.00     0.049 A 
HETATM   14  C14 UNL     1      15.859  -4.828  13.574  1.00  0.00     0.044 A 
HETATM   15  C15 UNL     1      15.079  -5.701  14.337  1.00  0.00    -0.007 A 
HETATM   16  C16 UNL     1      15.312  -6.559  15.380  1.00  0.00     0.022 A 
HETATM   17  C26 UNL     1      13.813  -5.571  13.815  1.00  0.00     0.043 A 
HETATM   18  C17 UNL     1      14.283  -7.324  15.947  1.00  0.00    -0.029 A 
HETATM   19  C24 UNL     1      13.017  -7.184  15.416  1.00  0.00     0.011 A 
HETATM   20  C25 UNL     1      12.793  -6.323  14.370  1.00  0.00     0.031 A 
HETATM   21  N5  UNL     1      13.848  -4.675  12.808  1.00  0.00    -0.355 N 
ATOM     22  H5  UNL     1      13.036  -4.399  12.256  1.00  0.00     0.166 HD
BRANCH  18  23
HETATM   23  C18 UNL     1      14.605  -8.229  17.081  1.00  0.00     0.311 C 
BRANCH  23  24
HETATM   24  N4  UNL     1      15.334  -7.501  18.065  1.00  0.00     0.092 N 
HETATM   25  C19 UNL     1      14.504  -6.904  19.083  1.00  0.00     0.272 C 
HETATM   26  C20 UNL     1      13.606  -7.970  19.632  1.00  0.00     0.030 C 
HETATM   27  C21 UNL     1      14.306  -9.207  20.050  1.00  0.00     0.003 C 
HETATM   28  C22 UNL     1      15.701  -9.394  19.590  1.00  0.00     0.030 C 
HETATM   29  C23 UNL     1      16.281  -8.342  18.718  1.00  0.00     0.272 C 
ENDBRANCH  23  24
ENDBRANCH  18  23
ENDBRANCH  12  13
BRANCH   8  30
HETATM   30  C6  UNL     1      20.329  -1.340   8.405  1.00  0.00     0.008 A 
HETATM   31  C7  UNL     1      21.310  -2.271   8.705  1.00  0.00     0.120 A 
HETATM   32  N2  UNL     1      22.422  -1.874   8.082  1.00  0.00    -0.311 N 
HETATM   33  N3  UNL     1      22.233  -0.765   7.407  1.00  0.00    -0.311 N 
ATOM     34  H2  UNL     1      23.311  -2.372   8.125  1.00  0.00     0.186 HD
HETATM   35  C8  UNL     1      20.937  -0.406   7.589  1.00  0.00     0.120 A 
ATOM     36  H3  UNL     1      22.928  -0.267   6.852  1.00  0.00     0.186 HD
ENDBRANCH   8  30
TORSDOF 4
ENDMDL
