MODEL 10
REMARK VINA RESULT: -9.980260105      3.128     10.478
REMARK  4 active torsions:
REMARK  status: ('A' for Active; 'I' for Inactive)
REMARK    1  A    between atoms: C5_8  and  C6_9 
REMARK    2  A    between atoms: C12_19  and  C13_20 
REMARK    3  A    between atoms: C17_24  and  C18_25 
REMARK    4  A    between atoms: C18_25  and  N4_26 
ROOT
HETATM    1  O1  UNL     1      13.205  -1.532  10.921  1.00  0.00    -0.267 OA
HETATM    2  C1  UNL     1      14.420  -1.695  10.632  1.00  0.00     0.258 A 
HETATM    3  N1  UNL     1      15.053  -0.853   9.788  1.00  0.00    -0.322 N 
ATOM      4  H1  UNL     1      14.519  -0.080   9.390  1.00  0.00     0.169 HD
HETATM    5  C2  UNL     1      16.335  -0.973   9.446  1.00  0.00     0.045 A 
HETATM    6  C3  UNL     1      16.960  -0.096   8.579  1.00  0.00     0.031 A 
HETATM    7  C4  UNL     1      18.284  -0.238   8.237  1.00  0.00     0.014 A 
HETATM    8  C5  UNL     1      19.033  -1.276   8.760  1.00  0.00    -0.022 A 
HETATM    9  C9  UNL     1      18.415  -2.149   9.623  1.00  0.00     0.026 A 
HETATM   10  C10 UNL     1      17.075  -2.013   9.974  1.00  0.00    -0.007 A 
HETATM   11  C11 UNL     1      16.477  -2.884  10.827  1.00  0.00     0.033 A 
HETATM   12  C12 UNL     1      15.152  -2.734  11.163  1.00  0.00     0.059 A 
ENDROOT
BRANCH  12  13
HETATM   13  C13 UNL     1      14.558  -3.710  12.093  1.00  0.00     0.049 A 
HETATM   14  C14 UNL     1      15.173  -4.630  12.911  1.00  0.00     0.044 A 
HETATM   15  C15 UNL     1      14.227  -5.361  13.633  1.00  0.00    -0.007 A 
HETATM   16  C16 UNL     1      14.273  -6.369  14.561  1.00  0.00     0.022 A 
HETATM   17  C26 UNL     1      13.017  -4.851  13.222  1.00  0.00     0.043 A 
HETATM   18  C17 UNL     1      13.106  -6.910  15.118  1.00  0.00    -0.029 A 
HETATM   19  C24 UNL     1      11.898  -6.389  14.699  1.00  0.00     0.011 A 
HETATM   20  C25 UNL     1      11.862  -5.380  13.769  1.00  0.00     0.031 A 
HETATM   21  N5  UNL     1      13.242  -3.879  12.315  1.00  0.00    -0.355 N 
ATOM     22  H5  UNL     1      12.507  -3.341  11.856  1.00  0.00     0.166 HD
BRANCH  18  23
HETATM   23  C18 UNL     1      13.229  -7.997  16.123  1.00  0.00     0.311 C 
BRANCH  23  24
HETATM   24  N4  UNL     1      13.723  -9.169  15.482  1.00  0.00     0.092 N 
HETATM   25  C19 UNL     1      14.122 -10.211  16.398  1.00  0.00     0.272 C 
HETATM   26  C20 UNL     1      12.989 -10.448  17.350  1.00  0.00     0.030 C 
HETATM   27  C21 UNL     1      11.676 -10.664  16.700  1.00  0.00     0.003 C 
HETATM   28  C22 UNL     1      11.550 -10.301  15.270  1.00  0.00     0.030 C 
HETATM   29  C23 UNL     1      12.743  -9.717  14.606  1.00  0.00     0.272 C 
ENDBRANCH  23  24
ENDBRANCH  18  23
ENDBRANCH  12  13
BRANCH   8  30
HETATM   30  C6  UNL     1      20.422  -1.411   8.391  1.00  0.00     0.008 A 
HETATM   31  C7  UNL     1      21.137  -0.542   7.581  1.00  0.00     0.120 A 
HETATM   32  N2  UNL     1      22.377  -1.030   7.494  1.00  0.00    -0.311 N 
HETATM   33  N3  UNL     1      22.514  -2.138   8.181  1.00  0.00    -0.311 N 
ATOM     34  H2  UNL     1      23.126  -0.593   6.957  1.00  0.00     0.186 HD
HETATM   35  C8  UNL     1      21.313  -2.402   8.752  1.00  0.00     0.120 A 
ATOM     36  H3  UNL     1      23.364  -2.696   8.269  1.00  0.00     0.186 HD
ENDBRANCH   8  30
TORSDOF 4
ENDMDL
