MODEL 5
REMARK VINA RESULT: -10.685447439      1.119      1.583
REMARK  4 active torsions:
REMARK  status: ('A' for Active; 'I' for Inactive)
REMARK    1  A    between atoms: C5_8  and  C6_9 
REMARK    2  A    between atoms: C12_19  and  C13_20 
REMARK    3  A    between atoms: C17_24  and  C18_25 
REMARK    4  A    between atoms: C18_25  and  N4_26 
ROOT
HETATM    1  O1  UNL     1      16.470   0.634   8.250  1.00  0.00    -0.267 OA
HETATM    2  C1  UNL     1      16.028  -0.235   9.048  1.00  0.00     0.258 A 
HETATM    3  N1  UNL     1      14.751  -0.193   9.483  1.00  0.00    -0.322 N 
ATOM      4  H1  UNL     1      14.154   0.563   9.148  1.00  0.00     0.169 HD
HETATM    5  C2  UNL     1      14.227  -1.083  10.324  1.00  0.00     0.045 A 
HETATM    6  C3  UNL     1      12.914  -1.018  10.755  1.00  0.00     0.031 A 
HETATM    7  C4  UNL     1      12.392  -1.947  11.625  1.00  0.00     0.014 A 
HETATM    8  C5  UNL     1      13.177  -2.982  12.096  1.00  0.00    -0.022 A 
HETATM    9  C9  UNL     1      14.483  -3.050  11.669  1.00  0.00     0.026 A 
HETATM   10  C10 UNL     1      15.020  -2.115  10.789  1.00  0.00    -0.007 A 
HETATM   11  C11 UNL     1      16.310  -2.193  10.377  1.00  0.00     0.033 A 
HETATM   12  C12 UNL     1      16.824  -1.261   9.506  1.00  0.00     0.059 A 
ENDROOT
BRANCH  12  13
HETATM   13  C13 UNL     1      18.232  -1.398   9.095  1.00  0.00     0.049 A 
HETATM   14  C14 UNL     1      19.149  -2.374   9.414  1.00  0.00     0.044 A 
HETATM   15  C15 UNL     1      20.379  -2.116   8.803  1.00  0.00    -0.007 A 
HETATM   16  C16 UNL     1      21.602  -2.733   8.775  1.00  0.00     0.022 A 
HETATM   17  C26 UNL     1      20.173  -0.950   8.104  1.00  0.00     0.043 A 
HETATM   18  C17 UNL     1      22.675  -2.206   8.042  1.00  0.00    -0.029 A 
HETATM   19  C24 UNL     1      22.456  -1.036   7.344  1.00  0.00     0.011 A 
HETATM   20  C25 UNL     1      21.227  -0.424   7.379  1.00  0.00     0.031 A 
HETATM   21  N5  UNL     1      18.900  -0.549   8.293  1.00  0.00    -0.355 N 
ATOM     22  H5  UNL     1      18.495   0.292   7.880  1.00  0.00     0.166 HD
BRANCH  18  23
HETATM   23  C18 UNL     1      23.972  -2.930   8.051  1.00  0.00     0.311 C 
BRANCH  23  24
HETATM   24  N4  UNL     1      23.763  -4.264   7.595  1.00  0.00     0.092 N 
HETATM   25  C19 UNL     1      23.688  -4.385   6.159  1.00  0.00     0.272 C 
HETATM   26  C20 UNL     1      24.888  -3.705   5.574  1.00  0.00     0.030 C 
HETATM   27  C21 UNL     1      26.180  -4.124   6.164  1.00  0.00     0.003 C 
HETATM   28  C22 UNL     1      26.140  -4.875   7.440  1.00  0.00     0.030 C 
HETATM   29  C23 UNL     1      24.807  -5.121   8.047  1.00  0.00     0.272 C 
ENDBRANCH  23  24
ENDBRANCH  18  23
ENDBRANCH  12  13
BRANCH   8  30
HETATM   30  C6  UNL     1      12.614  -3.948  13.008  1.00  0.00     0.008 A 
HETATM   31  C7  UNL     1      11.305  -3.970  13.464  1.00  0.00     0.120 A 
HETATM   32  N2  UNL     1      11.200  -5.018  14.284  1.00  0.00    -0.311 N 
HETATM   33  N3  UNL     1      12.334  -5.668  14.391  1.00  0.00    -0.311 N 
ATOM     34  H2  UNL     1      10.342  -5.280  14.769  1.00  0.00     0.186 HD
HETATM   35  C8  UNL     1      13.235  -5.026  13.608  1.00  0.00     0.120 A 
ATOM     36  H3  UNL     1      12.505  -6.500  14.957  1.00  0.00     0.186 HD
ENDBRANCH   8  30
TORSDOF 4
ENDMDL
