MODEL 4
REMARK VINA RESULT: -10.735524453      0.785      1.167
REMARK  4 active torsions:
REMARK  status: ('A' for Active; 'I' for Inactive)
REMARK    1  A    between atoms: C5_8  and  C6_9 
REMARK    2  A    between atoms: C12_19  and  C13_20 
REMARK    3  A    between atoms: C17_24  and  C18_25 
REMARK    4  A    between atoms: C18_25  and  N4_26 
ROOT
HETATM    1  O1  UNL     1      16.443   0.603   8.294  1.00  0.00    -0.267 OA
HETATM    2  C1  UNL     1      15.977  -0.251   9.095  1.00  0.00     0.258 A 
HETATM    3  N1  UNL     1      14.694  -0.189   9.508  1.00  0.00    -0.322 N 
ATOM      4  H1  UNL     1      14.111   0.569   9.154  1.00  0.00     0.169 HD
HETATM    5  C2  UNL     1      14.146  -1.062  10.351  1.00  0.00     0.045 A 
HETATM    6  C3  UNL     1      12.827  -0.977  10.759  1.00  0.00     0.031 A 
HETATM    7  C4  UNL     1      12.280  -1.888  11.632  1.00  0.00     0.014 A 
HETATM    8  C5  UNL     1      13.045  -2.926  12.130  1.00  0.00    -0.022 A 
HETATM    9  C9  UNL     1      14.357  -3.014  11.725  1.00  0.00     0.026 A 
HETATM   10  C10 UNL     1      14.919  -2.097  10.843  1.00  0.00    -0.007 A 
HETATM   11  C11 UNL     1      16.215  -2.195  10.453  1.00  0.00     0.033 A 
HETATM   12  C12 UNL     1      16.755  -1.279   9.580  1.00  0.00     0.059 A 
ENDROOT
BRANCH  12  13
HETATM   13  C13 UNL     1      18.167  -1.438   9.194  1.00  0.00     0.049 A 
HETATM   14  C14 UNL     1      19.080  -2.394   9.578  1.00  0.00     0.044 A 
HETATM   15  C15 UNL     1      20.317  -2.169   8.969  1.00  0.00    -0.007 A 
HETATM   16  C16 UNL     1      21.541  -2.785   8.990  1.00  0.00     0.022 A 
HETATM   17  C26 UNL     1      20.120  -1.043   8.204  1.00  0.00     0.043 A 
HETATM   18  C17 UNL     1      22.623  -2.299   8.242  1.00  0.00    -0.029 A 
HETATM   19  C24 UNL     1      22.412  -1.169   7.478  1.00  0.00     0.011 A 
HETATM   20  C25 UNL     1      21.183  -0.558   7.463  1.00  0.00     0.031 A 
HETATM   21  N5  UNL     1      18.845  -0.634   8.355  1.00  0.00    -0.355 N 
ATOM     22  H5  UNL     1      18.444   0.182   7.891  1.00  0.00     0.166 HD
BRANCH  18  23
HETATM   23  C18 UNL     1      23.920  -3.020   8.306  1.00  0.00     0.311 C 
BRANCH  23  24
HETATM   24  N4  UNL     1      23.743  -4.231   9.035  1.00  0.00     0.092 N 
HETATM   25  C19 UNL     1      23.962  -5.422   8.250  1.00  0.00     0.272 C 
HETATM   26  C20 UNL     1      25.291  -5.289   7.570  1.00  0.00     0.030 C 
HETATM   27  C21 UNL     1      26.409  -4.927   8.471  1.00  0.00     0.003 C 
HETATM   28  C22 UNL     1      26.066  -4.420   9.819  1.00  0.00     0.030 C 
HETATM   29  C23 UNL     1      24.625  -4.282  10.152  1.00  0.00     0.272 C 
ENDBRANCH  23  24
ENDBRANCH  18  23
ENDBRANCH  12  13
BRANCH   8  30
HETATM   30  C6  UNL     1      12.456  -3.873  13.045  1.00  0.00     0.008 A 
HETATM   31  C7  UNL     1      13.108  -4.941  13.642  1.00  0.00     0.120 A 
HETATM   32  N2  UNL     1      12.208  -5.560  14.410  1.00  0.00    -0.311 N 
HETATM   33  N3  UNL     1      11.035  -4.977  14.354  1.00  0.00    -0.311 N 
ATOM     34  H2  UNL     1      12.409  -6.387  14.972  1.00  0.00     0.186 HD
HETATM   35  C8  UNL     1      11.157  -3.922  13.510  1.00  0.00     0.120 A 
ATOM     36  H3  UNL     1      10.191  -5.263  14.850  1.00  0.00     0.186 HD
ENDBRANCH   8  30
TORSDOF 4
ENDMDL
