MODEL 3
REMARK VINA RESULT: -10.803098490      1.218      1.791
REMARK  4 active torsions:
REMARK  status: ('A' for Active; 'I' for Inactive)
REMARK    1  A    between atoms: C5_8  and  C6_9 
REMARK    2  A    between atoms: C12_19  and  C13_20 
REMARK    3  A    between atoms: C17_24  and  C18_25 
REMARK    4  A    between atoms: C18_25  and  N4_26 
ROOT
HETATM    1  O1  UNL     1      16.365   0.656   8.347  1.00  0.00    -0.267 OA
HETATM    2  C1  UNL     1      15.904  -0.212   9.136  1.00  0.00     0.258 A 
HETATM    3  N1  UNL     1      14.629  -0.145   9.573  1.00  0.00    -0.322 N 
ATOM      4  H1  UNL     1      14.048   0.627   9.247  1.00  0.00     0.169 HD
HETATM    5  C2  UNL     1      14.085  -1.032  10.406  1.00  0.00     0.045 A 
HETATM    6  C3  UNL     1      12.775  -0.942  10.839  1.00  0.00     0.031 A 
HETATM    7  C4  UNL     1      12.233  -1.867  11.700  1.00  0.00     0.014 A 
HETATM    8  C5  UNL     1      12.995  -2.925  12.159  1.00  0.00    -0.022 A 
HETATM    9  C9  UNL     1      14.299  -3.018  11.730  1.00  0.00     0.026 A 
HETATM   10  C10 UNL     1      14.855  -2.086  10.860  1.00  0.00    -0.007 A 
HETATM   11  C11 UNL     1      16.143  -2.189  10.445  1.00  0.00     0.033 A 
HETATM   12  C12 UNL     1      16.678  -1.259   9.583  1.00  0.00     0.059 A 
ENDROOT
BRANCH  12  13
HETATM   13  C13 UNL     1      18.081  -1.424   9.169  1.00  0.00     0.049 A 
HETATM   14  C14 UNL     1      18.977  -2.423   9.479  1.00  0.00     0.044 A 
HETATM   15  C15 UNL     1      20.211  -2.187   8.869  1.00  0.00    -0.007 A 
HETATM   16  C16 UNL     1      21.421  -2.831   8.834  1.00  0.00     0.022 A 
HETATM   17  C26 UNL     1      20.031  -1.010   8.180  1.00  0.00     0.043 A 
HETATM   18  C17 UNL     1      22.504  -2.321   8.104  1.00  0.00    -0.029 A 
HETATM   19  C24 UNL     1      22.311  -1.140   7.416  1.00  0.00     0.011 A 
HETATM   20  C25 UNL     1      21.096  -0.502   7.458  1.00  0.00     0.031 A 
HETATM   21  N5  UNL     1      18.767  -0.583   8.374  1.00  0.00    -0.355 N 
ATOM     22  H5  UNL     1      18.380   0.270   7.969  1.00  0.00     0.166 HD
BRANCH  18  23
HETATM   23  C18 UNL     1      23.785  -3.074   8.104  1.00  0.00     0.311 C 
BRANCH  23  24
HETATM   24  N4  UNL     1      24.081  -3.488   6.774  1.00  0.00     0.092 N 
HETATM   25  C19 UNL     1      25.394  -4.069   6.622  1.00  0.00     0.272 C 
HETATM   26  C20 UNL     1      25.549  -5.139   7.660  1.00  0.00     0.030 C 
HETATM   27  C21 UNL     1      24.439  -6.119   7.703  1.00  0.00     0.003 C 
HETATM   28  C22 UNL     1      23.188  -5.769   6.993  1.00  0.00     0.030 C 
HETATM   29  C23 UNL     1      23.130  -4.447   6.320  1.00  0.00     0.272 C 
ENDBRANCH  23  24
ENDBRANCH  18  23
ENDBRANCH  12  13
BRANCH   8  30
HETATM   30  C6  UNL     1      12.411  -3.887  13.063  1.00  0.00     0.008 A 
HETATM   31  C7  UNL     1      11.110  -3.868  13.542  1.00  0.00     0.120 A 
HETATM   32  N2  UNL     1      10.980  -4.928  14.343  1.00  0.00    -0.311 N 
HETATM   33  N3  UNL     1      12.088  -5.624  14.416  1.00  0.00    -0.311 N 
ATOM     34  H2  UNL     1      10.121  -5.167  14.839  1.00  0.00     0.186 HD
HETATM   35  C8  UNL     1      13.000  -5.000  13.629  1.00  0.00     0.120 A 
ATOM     36  H3  UNL     1      12.237  -6.473  14.961  1.00  0.00     0.186 HD
ENDBRANCH   8  30
TORSDOF 4
ENDMDL
