MODEL 9
REMARK VINA RESULT: -10.050483258      1.568      2.148
REMARK  4 active torsions:
REMARK  status: ('A' for Active; 'I' for Inactive)
REMARK    1  A    between atoms: C5_8  and  C6_9 
REMARK    2  A    between atoms: C12_19  and  C13_20 
REMARK    3  A    between atoms: C17_24  and  C18_25 
REMARK    4  A    between atoms: C18_25  and  N4_26 
ROOT
HETATM    1  O1  UNL     1      16.939   0.639   8.311  1.00  0.00    -0.267 OA
HETATM    2  C1  UNL     1      16.322  -0.160   9.064  1.00  0.00     0.258 A 
HETATM    3  N1  UNL     1      15.017   0.027   9.355  1.00  0.00    -0.322 N 
ATOM      4  H1  UNL     1      14.545   0.834   8.949  1.00  0.00     0.169 HD
HETATM    5  C2  UNL     1      14.312  -0.783  10.143  1.00  0.00     0.045 A 
HETATM    6  C3  UNL     1      12.975  -0.569  10.426  1.00  0.00     0.031 A 
HETATM    7  C4  UNL     1      12.265  -1.417  11.244  1.00  0.00     0.014 A 
HETATM    8  C5  UNL     1      12.878  -2.519  11.810  1.00  0.00    -0.022 A 
HETATM    9  C9  UNL     1      14.208  -2.734  11.531  1.00  0.00     0.026 A 
HETATM   10  C10 UNL     1      14.934  -1.882  10.705  1.00  0.00    -0.007 A 
HETATM   11  C11 UNL     1      16.246  -2.106  10.438  1.00  0.00     0.033 A 
HETATM   12  C12 UNL     1      16.949  -1.253   9.620  1.00  0.00     0.059 A 
ENDROOT
BRANCH  12  13
HETATM   13  C13 UNL     1      18.369  -1.548   9.368  1.00  0.00     0.049 A 
HETATM   14  C14 UNL     1      19.196  -1.096   8.364  1.00  0.00     0.044 A 
HETATM   15  C15 UNL     1      20.480  -1.627   8.503  1.00  0.00    -0.007 A 
HETATM   16  C16 UNL     1      21.659  -1.522   7.813  1.00  0.00     0.022 A 
HETATM   17  C26 UNL     1      20.401  -2.418   9.625  1.00  0.00     0.043 A 
HETATM   18  C17 UNL     1      22.814  -2.206   8.220  1.00  0.00    -0.029 A 
HETATM   19  C24 UNL     1      22.722  -2.995   9.349  1.00  0.00     0.011 A 
HETATM   20  C25 UNL     1      21.536  -3.095  10.033  1.00  0.00     0.031 A 
HETATM   21  N5  UNL     1      19.147  -2.352  10.116  1.00  0.00    -0.355 N 
ATOM     22  H5  UNL     1      18.828  -2.849  10.947  1.00  0.00     0.166 HD
BRANCH  18  23
HETATM   23  C18 UNL     1      24.060  -2.041   7.429  1.00  0.00     0.311 C 
BRANCH  23  24
HETATM   24  N4  UNL     1      24.576  -3.328   7.101  1.00  0.00     0.092 N 
HETATM   25  C19 UNL     1      23.962  -3.924   5.940  1.00  0.00     0.272 C 
HETATM   26  C20 UNL     1      24.017  -2.926   4.824  1.00  0.00     0.030 C 
HETATM   27  C21 UNL     1      25.358  -2.343   4.586  1.00  0.00     0.003 C 
HETATM   28  C22 UNL     1      26.384  -2.533   5.636  1.00  0.00     0.030 C 
HETATM   29  C23 UNL     1      25.979  -3.264   6.864  1.00  0.00     0.272 C 
ENDBRANCH  23  24
ENDBRANCH  18  23
ENDBRANCH  12  13
BRANCH   8  30
HETATM   30  C6  UNL     1      12.118  -3.398  12.666  1.00  0.00     0.008 A 
HETATM   31  C7  UNL     1      10.849  -3.150  13.166  1.00  0.00     0.120 A 
HETATM   32  N2  UNL     1      10.514  -4.209  13.907  1.00  0.00    -0.311 N 
HETATM   33  N3  UNL     1      11.463  -5.113  13.923  1.00  0.00    -0.311 N 
ATOM     34  H2  UNL     1       9.627  -4.303  14.401  1.00  0.00     0.186 HD
HETATM   35  C8  UNL     1      12.478  -4.637  13.158  1.00  0.00     0.120 A 
ATOM     36  H3  UNL     1      11.443  -6.006  14.416  1.00  0.00     0.186 HD
ENDBRANCH   8  30
TORSDOF 4
ENDMDL
