MODEL 13
REMARK VINA RESULT: -9.711046316      4.661     12.190
REMARK  4 active torsions:
REMARK  status: ('A' for Active; 'I' for Inactive)
REMARK    1  A    between atoms: C5_8  and  C6_9 
REMARK    2  A    between atoms: C12_19  and  C13_20 
REMARK    3  A    between atoms: C17_24  and  C18_25 
REMARK    4  A    between atoms: C18_25  and  N4_26 
ROOT
HETATM    1  O1  UNL     1      17.502  -7.737  13.715  1.00  0.00    -0.267 OA
HETATM    2  C1  UNL     1      17.198  -6.704  13.061  1.00  0.00     0.258 A 
HETATM    3  N1  UNL     1      18.153  -5.921  12.516  1.00  0.00    -0.322 N 
ATOM      4  H1  UNL     1      19.128  -6.188  12.649  1.00  0.00     0.169 HD
HETATM    5  C2  UNL     1      17.894  -4.819  11.814  1.00  0.00     0.045 A 
HETATM    6  C3  UNL     1      18.892  -4.033  11.266  1.00  0.00     0.031 A 
HETATM    7  C4  UNL     1      18.603  -2.898  10.545  1.00  0.00     0.014 A 
HETATM    8  C5  UNL     1      17.291  -2.509  10.348  1.00  0.00    -0.022 A 
HETATM    9  C9  UNL     1      16.297  -3.289  10.892  1.00  0.00     0.026 A 
HETATM   10  C10 UNL     1      16.579  -4.438  11.623  1.00  0.00    -0.007 A 
HETATM   11  C11 UNL     1      15.588  -5.198  12.155  1.00  0.00     0.033 A 
HETATM   12  C12 UNL     1      15.886  -6.332  12.874  1.00  0.00     0.059 A 
ENDROOT
BRANCH  12  13
HETATM   13  C13 UNL     1      14.768  -7.115  13.427  1.00  0.00     0.049 A 
HETATM   14  C14 UNL     1      13.876  -6.790  14.423  1.00  0.00     0.044 A 
HETATM   15  C15 UNL     1      12.967  -7.830  14.634  1.00  0.00    -0.007 A 
HETATM   16  C16 UNL     1      11.904  -8.042  15.472  1.00  0.00     0.022 A 
HETATM   17  C26 UNL     1      13.342  -8.797  13.731  1.00  0.00     0.043 A 
HETATM   18  C17 UNL     1      11.167  -9.234  15.439  1.00  0.00    -0.029 A 
HETATM   19  C24 UNL     1      11.552 -10.196  14.527  1.00  0.00     0.011 A 
HETATM   20  C25 UNL     1      12.620  -9.976  13.692  1.00  0.00     0.031 A 
HETATM   21  N5  UNL     1      14.405  -8.349  13.032  1.00  0.00    -0.355 N 
ATOM     22  H5  UNL     1      14.874  -8.879  12.297  1.00  0.00     0.166 HD
BRANCH  18  23
HETATM   23  C18 UNL     1      10.021  -9.395  16.371  1.00  0.00     0.311 C 
BRANCH  23  24
HETATM   24  N4  UNL     1       9.666  -8.119  16.894  1.00  0.00     0.092 N 
HETATM   25  C19 UNL     1       8.364  -7.658  16.476  1.00  0.00     0.272 C 
HETATM   26  C20 UNL     1       7.375  -8.748  16.759  1.00  0.00     0.030 C 
HETATM   27  C21 UNL     1       7.429  -9.283  18.139  1.00  0.00     0.003 C 
HETATM   28  C22 UNL     1       8.618  -8.951  18.957  1.00  0.00     0.030 C 
HETATM   29  C23 UNL     1       9.681  -8.135  18.319  1.00  0.00     0.272 C 
ENDBRANCH  23  24
ENDBRANCH  18  23
ENDBRANCH  12  13
BRANCH   8  30
HETATM   30  C6  UNL     1      17.006  -1.315   9.590  1.00  0.00     0.008 A 
HETATM   31  C7  UNL     1      17.933  -0.549   8.899  1.00  0.00     0.120 A 
HETATM   32  N2  UNL     1      17.258   0.458   8.340  1.00  0.00    -0.311 N 
HETATM   33  N3  UNL     1      15.978   0.401   8.615  1.00  0.00    -0.311 N 
ATOM     34  H2  UNL     1      17.688   1.185   7.768  1.00  0.00     0.186 HD
HETATM   35  C8  UNL     1      15.788  -0.694   9.394  1.00  0.00     0.120 A 
ATOM     36  H3  UNL     1      15.260   1.055   8.303  1.00  0.00     0.186 HD
ENDBRANCH   8  30
TORSDOF 4
ENDMDL
