MODEL 1
REMARK VINA RESULT: -5.571520663      0.000      0.000
REMARK  12 active torsions:
REMARK  status: ('A' for Active; 'I' for Inactive)
REMARK    1  A    between atoms: O1_1  and  C1_3 
REMARK    2  A    between atoms: C1_3  and  C2_4 
REMARK    3  A    between atoms: C3_6  and  O3_7 
REMARK    4  A    between atoms: O3_7  and  C4_8 
REMARK    5  A    between atoms: C4_8  and  C5_9 
REMARK    6  A    between atoms: C6_11  and  O5_12 
REMARK    7  A    between atoms: C7_14  and  O6_15 
REMARK    8  A    between atoms: C8_17  and  O7_18 
REMARK    9  A    between atoms: C9_20  and  O8_21 
REMARK   10  A    between atoms: C10_23  and  O9_24 
REMARK   11  A    between atoms: C11_26  and  O10_27 
REMARK   12  A    between atoms: C12_29  and  O11_30 
ROOT
HETATM    1  O3  UNL     1     -68.386  -1.899  -1.694  1.00  0.00    -0.356 OA
ENDROOT
BRANCH   1   2
HETATM    2  C3  UNL     1     -68.608  -3.045  -1.052  1.00  0.00     0.291 C 
HETATM    3  O2  UNL     1     -67.512  -3.892  -1.274  1.00  0.00    -0.348 OA
HETATM    4  C2  UNL     1     -66.533  -3.759  -0.331  1.00  0.00     0.179 C 
HETATM    5  C12 UNL     1     -66.920  -4.318   1.013  1.00  0.00     0.180 C 
HETATM    6  C11 UNL     1     -68.443  -4.169   1.114  1.00  0.00     0.183 C 
HETATM    7  C10 UNL     1     -68.888  -2.906   0.432  1.00  0.00     0.204 C 
BRANCH   4   8
HETATM    8  C1  UNL     1     -65.193  -4.308  -0.794  1.00  0.00     0.198 C 
BRANCH   8   9
HETATM    9  O1  UNL     1     -64.384  -4.642   0.280  1.00  0.00    -0.398 OA
ATOM     10  H1  UNL     1     -63.510  -4.883  -0.005  1.00  0.00     0.209 HD
ENDBRANCH   8   9
ENDBRANCH   4   8
BRANCH   5  11
HETATM   11  O11 UNL     1     -66.338  -3.601   2.047  1.00  0.00    -0.390 OA
ATOM     12  H11 UNL     1     -65.876  -4.173   2.650  1.00  0.00     0.210 HD
ENDBRANCH   5  11
BRANCH   6  13
HETATM   13  O10 UNL     1     -69.023  -5.308   0.561  1.00  0.00    -0.390 OA
ATOM     14  H10 UNL     1     -69.228  -5.966   1.214  1.00  0.00     0.210 HD
ENDBRANCH   6  13
BRANCH   7  15
HETATM   15  O9  UNL     1     -68.193  -1.844   1.005  1.00  0.00    -0.388 OA
ATOM     16  H9  UNL     1     -68.413  -1.721   1.920  1.00  0.00     0.210 HD
ENDBRANCH   7  15
ENDBRANCH   1   2
BRANCH   1  17
HETATM   17  C4  UNL     1     -69.281  -0.923  -1.851  1.00  0.00     0.205 C 
BRANCH  17  18
HETATM   18  C5  UNL     1     -68.653   0.440  -1.736  1.00  0.00     0.180 C 
HETATM   19  O4  UNL     1     -68.345   0.712  -0.440  1.00  0.00    -0.349 OA
HETATM   20  C6  UNL     1     -67.629   1.913  -0.402  1.00  0.00     0.288 C 
HETATM   21  C7  UNL     1     -68.654   3.010  -0.585  1.00  0.00     0.204 C 
HETATM   22  C8  UNL     1     -69.332   2.864  -1.895  1.00  0.00     0.183 C 
HETATM   23  C9  UNL     1     -69.459   1.496  -2.429  1.00  0.00     0.180 C 
BRANCH  20  24
HETATM   24  O5  UNL     1     -66.866   2.057   0.730  1.00  0.00    -0.369 OA
ATOM     25  H5  UNL     1     -66.488   2.924   0.822  1.00  0.00     0.212 HD
ENDBRANCH  20  24
BRANCH  21  26
HETATM   26  O6  UNL     1     -69.562   2.900   0.472  1.00  0.00    -0.388 OA
ATOM     27  H6  UNL     1     -70.335   2.467   0.128  1.00  0.00     0.210 HD
ENDBRANCH  21  26
BRANCH  22  28
HETATM   28  O7  UNL     1     -70.621   3.435  -1.769  1.00  0.00    -0.390 OA
ATOM     29  H7  UNL     1     -71.248   2.722  -1.783  1.00  0.00     0.210 HD
ENDBRANCH  22  28
BRANCH  23  30
HETATM   30  O8  UNL     1     -70.805   1.088  -2.464  1.00  0.00    -0.390 OA
ATOM     31  H8  UNL     1     -71.322   1.774  -2.872  1.00  0.00     0.210 HD
ENDBRANCH  23  30
ENDBRANCH  17  18
ENDBRANCH   1  17
TORSDOF 12
ENDMDL
