MODEL 3
REMARK VINA RESULT: -5.279959391      4.241      6.570
REMARK  12 active torsions:
REMARK  status: ('A' for Active; 'I' for Inactive)
REMARK    1  A    between atoms: O1_1  and  C1_3 
REMARK    2  A    between atoms: C1_3  and  C2_4 
REMARK    3  A    between atoms: C3_6  and  O3_7 
REMARK    4  A    between atoms: O3_7  and  C4_8 
REMARK    5  A    between atoms: C4_8  and  C5_9 
REMARK    6  A    between atoms: C6_11  and  O5_12 
REMARK    7  A    between atoms: C7_14  and  O6_15 
REMARK    8  A    between atoms: C8_17  and  O7_18 
REMARK    9  A    between atoms: C9_20  and  O8_21 
REMARK   10  A    between atoms: C10_23  and  O9_24 
REMARK   11  A    between atoms: C11_26  and  O10_27 
REMARK   12  A    between atoms: C12_29  and  O11_30 
ROOT
HETATM    1  O3  UNL     1     -69.352  -3.855   2.115  1.00  0.00    -0.356 OA
ENDROOT
BRANCH   1   2
HETATM    2  C3  UNL     1     -70.299  -4.678   2.563  1.00  0.00     0.291 C 
HETATM    3  O2  UNL     1     -69.674  -5.754   3.212  1.00  0.00    -0.348 OA
HETATM    4  C2  UNL     1     -69.483  -5.535   4.547  1.00  0.00     0.179 C 
HETATM    5  C12 UNL     1     -70.760  -5.563   5.345  1.00  0.00     0.180 C 
HETATM    6  C11 UNL     1     -71.866  -5.088   4.395  1.00  0.00     0.183 C 
HETATM    7  C10 UNL     1     -71.336  -4.036   3.463  1.00  0.00     0.204 C 
BRANCH   4   8
HETATM    8  C1  UNL     1     -68.434  -6.456   5.148  1.00  0.00     0.198 C 
BRANCH   8   9
HETATM    9  O1  UNL     1     -67.904  -5.928   6.314  1.00  0.00    -0.398 OA
ATOM     10  H1  UNL     1     -66.955  -5.962   6.311  1.00  0.00     0.209 HD
ENDBRANCH   8   9
ENDBRANCH   4   8
BRANCH   5  11
HETATM   11  O11 UNL     1     -70.703  -4.693   6.423  1.00  0.00    -0.390 OA
ATOM     12  H11 UNL     1     -71.567  -4.375   6.659  1.00  0.00     0.210 HD
ENDBRANCH   5  11
BRANCH   6  13
HETATM   13  O10 UNL     1     -72.357  -6.202   3.718  1.00  0.00    -0.390 OA
ATOM     14  H10 UNL     1     -71.718  -6.901   3.657  1.00  0.00     0.210 HD
ENDBRANCH   6  13
BRANCH   7  15
HETATM   15  O9  UNL     1     -70.801  -3.010   4.238  1.00  0.00    -0.388 OA
ATOM     16  H9  UNL     1     -69.858  -2.943   4.147  1.00  0.00     0.210 HD
ENDBRANCH   7  15
ENDBRANCH   1   2
BRANCH   1  17
HETATM   17  C4  UNL     1     -69.363  -3.248   0.928  1.00  0.00     0.205 C 
BRANCH  17  18
HETATM   18  C5  UNL     1     -68.300  -3.790   0.010  1.00  0.00     0.180 C 
HETATM   19  O4  UNL     1     -68.380  -5.145  -0.061  1.00  0.00    -0.349 OA
HETATM   20  C6  UNL     1     -67.480  -5.588  -1.036  1.00  0.00     0.288 C 
HETATM   21  C7  UNL     1     -66.111  -5.514  -0.397  1.00  0.00     0.204 C 
HETATM   22  C8  UNL     1     -65.798  -4.116  -0.014  1.00  0.00     0.183 C 
HETATM   23  C9  UNL     1     -66.940  -3.253   0.339  1.00  0.00     0.180 C 
BRANCH  20  24
HETATM   24  O5  UNL     1     -67.786  -6.828  -1.538  1.00  0.00    -0.369 OA
ATOM     25  H5  UNL     1     -68.475  -7.270  -1.056  1.00  0.00     0.212 HD
ENDBRANCH  20  24
BRANCH  21  26
HETATM   26  O6  UNL     1     -66.137  -6.353   0.721  1.00  0.00    -0.388 OA
ATOM     27  H6  UNL     1     -65.986  -5.805   1.481  1.00  0.00     0.210 HD
ENDBRANCH  21  26
BRANCH  22  28
HETATM   28  O7  UNL     1     -64.899  -4.168   1.077  1.00  0.00    -0.390 OA
ATOM     29  H7  UNL     1     -65.373  -3.876   1.847  1.00  0.00     0.210 HD
ENDBRANCH  22  28
BRANCH  23  30
HETATM   30  O8  UNL     1     -66.908  -2.905   1.702  1.00  0.00    -0.390 OA
ATOM     31  H8  UNL     1     -66.211  -2.275   1.841  1.00  0.00     0.210 HD
ENDBRANCH  23  30
ENDBRANCH  17  18
ENDBRANCH   1  17
TORSDOF 12
ENDMDL
