MODEL 2
REMARK VINA RESULT: -5.362497139      4.034      6.420
REMARK  12 active torsions:
REMARK  status: ('A' for Active; 'I' for Inactive)
REMARK    1  A    between atoms: O1_1  and  C1_3 
REMARK    2  A    between atoms: C1_3  and  C2_4 
REMARK    3  A    between atoms: C3_6  and  O3_7 
REMARK    4  A    between atoms: O3_7  and  C4_8 
REMARK    5  A    between atoms: C4_8  and  C5_9 
REMARK    6  A    between atoms: C6_11  and  O5_12 
REMARK    7  A    between atoms: C7_14  and  O6_15 
REMARK    8  A    between atoms: C8_17  and  O7_18 
REMARK    9  A    between atoms: C9_20  and  O8_21 
REMARK   10  A    between atoms: C10_23  and  O9_24 
REMARK   11  A    between atoms: C11_26  and  O10_27 
REMARK   12  A    between atoms: C12_29  and  O11_30 
ROOT
HETATM    1  O3  UNL     1     -67.357  -7.516   1.822  1.00  0.00    -0.356 OA
ENDROOT
BRANCH   1   2
HETATM    2  C3  UNL     1     -68.424  -7.600   2.616  1.00  0.00     0.291 C 
HETATM    3  O2  UNL     1     -68.121  -8.481   3.665  1.00  0.00    -0.348 OA
HETATM    4  C2  UNL     1     -67.583  -7.853   4.752  1.00  0.00     0.179 C 
HETATM    5  C12 UNL     1     -68.578  -7.012   5.508  1.00  0.00     0.180 C 
HETATM    6  C11 UNL     1     -69.603  -6.533   4.474  1.00  0.00     0.183 C 
HETATM    7  C10 UNL     1     -68.931  -6.277   3.154  1.00  0.00     0.204 C 
BRANCH   4   8
HETATM    8  C1  UNL     1     -66.849  -8.809   5.679  1.00  0.00     0.198 C 
BRANCH   8   9
HETATM    9  O1  UNL     1     -66.036  -8.127   6.570  1.00  0.00    -0.398 OA
ATOM     10  H1  UNL     1     -66.166  -8.431   7.461  1.00  0.00     0.209 HD
ENDBRANCH   8   9
ENDBRANCH   4   8
BRANCH   5  11
HETATM   11  O11 UNL     1     -67.974  -5.900   6.076  1.00  0.00    -0.390 OA
ATOM     12  H11 UNL     1     -68.543  -5.482   6.712  1.00  0.00     0.210 HD
ENDBRANCH   5  11
BRANCH   6  13
HETATM   13  O10 UNL     1     -70.604  -7.497   4.384  1.00  0.00    -0.390 OA
ATOM     14  H10 UNL     1     -71.464  -7.148   4.587  1.00  0.00     0.210 HD
ENDBRANCH   6  13
BRANCH   7  15
HETATM   15  O9  UNL     1     -67.901  -5.364   3.370  1.00  0.00    -0.388 OA
ATOM     16  H9  UNL     1     -68.131  -4.708   4.017  1.00  0.00     0.210 HD
ENDBRANCH   7  15
ENDBRANCH   1   2
BRANCH   1  17
HETATM   17  C4  UNL     1     -67.398  -7.391   0.495  1.00  0.00     0.205 C 
BRANCH  17  18
HETATM   18  C5  UNL     1     -66.759  -6.110   0.031  1.00  0.00     0.180 C 
HETATM   19  O4  UNL     1     -66.062  -5.533   1.045  1.00  0.00    -0.349 OA
HETATM   20  C6  UNL     1     -65.364  -4.436   0.531  1.00  0.00     0.288 C 
HETATM   21  C7  UNL     1     -66.390  -3.337   0.361  1.00  0.00     0.204 C 
HETATM   22  C8  UNL     1     -67.442  -3.763  -0.593  1.00  0.00     0.183 C 
HETATM   23  C9  UNL     1     -67.735  -5.206  -0.659  1.00  0.00     0.180 C 
BRANCH  20  24
HETATM   24  O5  UNL     1     -64.286  -4.067   1.296  1.00  0.00    -0.369 OA
ATOM     25  H5  UNL     1     -64.008  -3.171   1.150  1.00  0.00     0.212 HD
ENDBRANCH  20  24
BRANCH  21  26
HETATM   26  O6  UNL     1     -66.924  -3.080   1.626  1.00  0.00    -0.388 OA
ATOM     27  H6  UNL     1     -67.434  -2.282   1.554  1.00  0.00     0.210 HD
ENDBRANCH  21  26
BRANCH  22  28
HETATM   28  O7  UNL     1     -68.625  -3.063  -0.255  1.00  0.00    -0.390 OA
ATOM     29  H7  UNL     1     -69.194  -3.673   0.199  1.00  0.00     0.210 HD
ENDBRANCH  22  28
BRANCH  23  30
HETATM   30  O8  UNL     1     -69.028  -5.483  -0.176  1.00  0.00    -0.390 OA
ATOM     31  H8  UNL     1     -69.568  -4.709  -0.286  1.00  0.00     0.210 HD
ENDBRANCH  23  30
ENDBRANCH  17  18
ENDBRANCH   1  17
TORSDOF 12
ENDMDL
