MODEL 1
REMARK VINA RESULT: -4.054740863      0.000      0.000
REMARK  1 active torsions:
REMARK  status: ('A' for Active; 'I' for Inactive)
REMARK    1  A    between atoms: C2_2  and  C3_4 
ROOT
HETATM    1  C1  UNL     1      61.024  74.668  27.649  1.00  0.00     0.103 C 
HETATM    2  C2  UNL     1      61.487  75.998  27.190  1.00  0.00     0.221 C 
HETATM    3  O1  UNL     1      60.666  76.791  26.668  1.00  0.00    -0.286 OA
ENDROOT
BRANCH   2   4
HETATM    4  C3  UNL     1      62.879  76.364  27.354  1.00  0.00     0.246 C 
HETATM    5  O2  UNL     1      63.668  75.495  27.796  1.00  0.00    -0.642 OA
HETATM    6  O3  UNL     1      63.328  77.657  27.023  1.00  0.00    -0.642 OA
ENDBRANCH   2   4
TORSDOF 1
ENDMDL
