MODEL 11
REMARK VINA RESULT: -2.949434897      1.228      1.918
REMARK  1 active torsions:
REMARK  status: ('A' for Active; 'I' for Inactive)
REMARK    1  A    between atoms: C2_2  and  C3_4 
ROOT
HETATM    1  C1  UNL     1      60.374  74.814  27.922  1.00  0.00     0.103 C 
HETATM    2  C2  UNL     1      61.610  75.227  27.216  1.00  0.00     0.221 C 
HETATM    3  O1  UNL     1      62.253  74.381  26.549  1.00  0.00    -0.286 OA
ENDROOT
BRANCH   2   4
HETATM    4  C3  UNL     1      62.055  76.603  27.305  1.00  0.00     0.246 C 
HETATM    5  O2  UNL     1      61.351  77.486  26.760  1.00  0.00    -0.642 OA
HETATM    6  O3  UNL     1      63.242  76.933  27.986  1.00  0.00    -0.642 OA
ENDBRANCH   2   4
TORSDOF 1
ENDMDL
