MODEL 2
REMARK VINA RESULT: -4.051110222      0.551      1.231
REMARK  1 active torsions:
REMARK  status: ('A' for Active; 'I' for Inactive)
REMARK    1  A    between atoms: C2_2  and  C3_4 
ROOT
HETATM    1  C1  UNL     1      61.012  74.676  27.603  1.00  0.00     0.103 C 
HETATM    2  C2  UNL     1      61.463  76.032  27.212  1.00  0.00     0.221 C 
HETATM    3  O1  UNL     1      60.651  76.821  26.671  1.00  0.00    -0.286 OA
ENDROOT
BRANCH   2   4
HETATM    4  C3  UNL     1      62.835  76.426  27.463  1.00  0.00     0.246 C 
HETATM    5  O2  UNL     1      63.035  77.513  28.056  1.00  0.00    -0.642 OA
HETATM    6  O3  UNL     1      63.906  75.610  27.051  1.00  0.00    -0.642 OA
ENDBRANCH   2   4
TORSDOF 1
ENDMDL
