MODEL 5
REMARK VINA RESULT: -3.354797306      1.411      1.581
REMARK  1 active torsions:
REMARK  status: ('A' for Active; 'I' for Inactive)
REMARK    1  A    between atoms: C2_2  and  C3_4 
ROOT
HETATM    1  C1  UNL     1      60.038  75.543  26.742  1.00  0.00     0.103 C 
HETATM    2  C2  UNL     1      61.330  75.073  27.294  1.00  0.00     0.221 C 
HETATM    3  O1  UNL     1      61.424  73.902  27.735  1.00  0.00    -0.286 OA
ENDROOT
BRANCH   2   4
HETATM    4  C3  UNL     1      62.466  75.973  27.314  1.00  0.00     0.246 C 
HETATM    5  O2  UNL     1      63.576  75.510  27.669  1.00  0.00    -0.642 OA
HETATM    6  O3  UNL     1      62.321  77.323  26.943  1.00  0.00    -0.642 OA
ENDBRANCH   2   4
TORSDOF 1
ENDMDL
