MODEL 3
REMARK VINA RESULT: -3.408763182      1.420      2.005
REMARK  1 active torsions:
REMARK  status: ('A' for Active; 'I' for Inactive)
REMARK    1  A    between atoms: C2_2  and  C3_4 
ROOT
HETATM    1  C1  UNL     1      59.988  75.538  26.783  1.00  0.00     0.103 C 
HETATM    2  C2  UNL     1      61.319  75.114  27.277  1.00  0.00     0.221 C 
HETATM    3  O1  UNL     1      61.482  73.937  27.680  1.00  0.00    -0.286 OA
ENDROOT
BRANCH   2   4
HETATM    4  C3  UNL     1      62.413  76.065  27.286  1.00  0.00     0.246 C 
HETATM    5  O2  UNL     1      62.171  77.242  26.924  1.00  0.00    -0.642 OA
HETATM    6  O3  UNL     1      63.703  75.675  27.690  1.00  0.00    -0.642 OA
ENDBRANCH   2   4
TORSDOF 1
ENDMDL
