MODEL 6
REMARK VINA RESULT: -8.467190493      3.206      5.034
REMARK  1 active torsions:
REMARK  status: ('A' for Active; 'I' for Inactive)
REMARK    1  A    between atoms: C2_2  and  C3_4 
ROOT
HETATM    1  C3  UNL     1       4.992  30.342  57.769  1.00  0.00     0.063 C 
HETATM    2  C4  UNL     1       6.312  30.042  58.473  1.00  0.00     0.013 C 
HETATM    3  C5  UNL     1       7.079  31.350  58.509  1.00  0.00     0.006 C 
HETATM    4  C6  UNL     1       6.141  32.313  57.911  1.00  0.00    -0.001 C 
HETATM    5  C7  UNL     1       6.707  33.561  57.356  1.00  0.00    -0.004 C 
HETATM    6  C8  UNL     1       7.276  34.362  58.533  1.00  0.00     0.010 C 
HETATM    7  C9  UNL     1       7.748  35.713  58.102  1.00  0.00     0.035 C 
HETATM    8  C10 UNL     1       6.582  36.416  57.464  1.00  0.00    -0.068 C 
HETATM    9  C11 UNL     1       6.240  37.590  57.956  1.00  0.00     0.053 C 
HETATM   10  C12 UNL     1       5.114  38.294  57.357  1.00  0.00     0.149 C 
HETATM   11  O2  UNL     1       4.449  39.154  57.990  1.00  0.00    -0.293 OA
HETATM   12  C13 UNL     1       4.794  37.930  55.935  1.00  0.00     0.084 C 
HETATM   13  C14 UNL     1       4.636  36.420  55.948  1.00  0.00     0.022 C 
HETATM   14  C15 UNL     1       5.922  35.729  56.339  1.00  0.00    -0.016 C 
HETATM   15  C16 UNL     1       6.887  35.713  55.179  1.00  0.00     0.020 C 
HETATM   16  C17 UNL     1       5.543  34.348  56.791  1.00  0.00     0.002 C 
HETATM   17  C18 UNL     1       4.829  33.562  55.738  1.00  0.00     0.007 C 
HETATM   18  C19 UNL     1       4.267  32.288  56.347  1.00  0.00     0.011 C 
HETATM   19  C20 UNL     1       5.399  31.474  56.883  1.00  0.00    -0.030 C 
HETATM   20  C21 UNL     1       6.306  31.004  55.781  1.00  0.00     0.016 C 
ENDROOT
BRANCH   1  21
HETATM   21  C2  UNL     1       4.428  29.192  57.082  1.00  0.00     0.128 C 
HETATM   22  C1  UNL     1       3.022  29.235  56.606  1.00  0.00     0.091 C 
HETATM   23  O1  UNL     1       5.054  28.170  56.867  1.00  0.00    -0.298 OA
ENDBRANCH   1  21
TORSDOF 1
ENDMDL
