MODEL 4
REMARK VINA RESULT: -8.760602691      1.587      6.873
REMARK  1 active torsions:
REMARK  status: ('A' for Active; 'I' for Inactive)
REMARK    1  A    between atoms: C2_2  and  C3_4 
ROOT
HETATM    1  C3  UNL     1       5.420  34.761  54.534  1.00  0.00     0.063 C 
HETATM    2  C4  UNL     1       6.364  35.267  55.620  1.00  0.00     0.013 C 
HETATM    3  C5  UNL     1       6.271  34.272  56.760  1.00  0.00     0.006 C 
HETATM    4  C6  UNL     1       5.362  33.238  56.239  1.00  0.00    -0.001 C 
HETATM    5  C7  UNL     1       4.676  32.373  57.222  1.00  0.00    -0.004 C 
HETATM    6  C8  UNL     1       5.754  31.529  57.912  1.00  0.00     0.010 C 
HETATM    7  C9  UNL     1       5.153  30.513  58.828  1.00  0.00     0.035 C 
HETATM    8  C10 UNL     1       4.221  29.663  58.012  1.00  0.00    -0.068 C 
HETATM    9  C11 UNL     1       4.422  28.361  58.023  1.00  0.00     0.053 C 
HETATM   10  C12 UNL     1       3.533  27.513  57.240  1.00  0.00     0.149 C 
HETATM   11  O2  UNL     1       3.880  26.374  56.833  1.00  0.00    -0.293 OA
HETATM   12  C13 UNL     1       2.174  28.081  56.947  1.00  0.00     0.084 C 
HETATM   13  C14 UNL     1       2.447  29.432  56.312  1.00  0.00     0.022 C 
HETATM   14  C15 UNL     1       3.158  30.363  57.268  1.00  0.00    -0.016 C 
HETATM   15  C16 UNL     1       2.186  30.928  58.275  1.00  0.00     0.020 C 
HETATM   16  C17 UNL     1       3.798  31.430  56.427  1.00  0.00     0.002 C 
HETATM   17  C18 UNL     1       2.816  32.189  55.594  1.00  0.00     0.007 C 
HETATM   18  C19 UNL     1       3.559  33.067  54.601  1.00  0.00     0.011 C 
HETATM   19  C20 UNL     1       4.410  34.033  55.360  1.00  0.00    -0.030 C 
HETATM   20  C21 UNL     1       3.571  34.988  56.161  1.00  0.00     0.016 C 
ENDROOT
BRANCH   1  21
HETATM   21  C2  UNL     1       4.884  35.819  53.694  1.00  0.00     0.128 C 
HETATM   22  C1  UNL     1       4.368  35.493  52.341  1.00  0.00     0.091 C 
HETATM   23  O1  UNL     1       4.831  36.984  54.041  1.00  0.00    -0.298 OA
ENDBRANCH   1  21
TORSDOF 1
ENDMDL
