MODEL 9
REMARK VINA RESULT: -8.169859586      3.913      7.830
REMARK  1 active torsions:
REMARK  status: ('A' for Active; 'I' for Inactive)
REMARK    1  A    between atoms: C2_2  and  C3_4 
ROOT
HETATM    1  C3  UNL     1       5.913  38.275  57.935  1.00  0.00     0.063 C 
HETATM    2  C4  UNL     1       4.915  38.977  57.020  1.00  0.00     0.013 C 
HETATM    3  C5  UNL     1       4.268  37.890  56.184  1.00  0.00     0.006 C 
HETATM    4  C6  UNL     1       4.862  36.652  56.714  1.00  0.00    -0.001 C 
HETATM    5  C7  UNL     1       4.833  35.455  55.847  1.00  0.00    -0.004 C 
HETATM    6  C8  UNL     1       3.362  35.054  55.680  1.00  0.00     0.010 C 
HETATM    7  C9  UNL     1       3.224  33.766  54.935  1.00  0.00     0.035 C 
HETATM    8  C10 UNL     1       4.001  32.723  55.688  1.00  0.00    -0.068 C 
HETATM    9  C11 UNL     1       3.355  31.637  56.059  1.00  0.00     0.053 C 
HETATM   10  C12 UNL     1       4.083  30.609  56.791  1.00  0.00     0.149 C 
HETATM   11  O2  UNL     1       3.504  29.787  57.547  1.00  0.00    -0.293 OA
HETATM   12  C13 UNL     1       5.572  30.591  56.589  1.00  0.00     0.084 C 
HETATM   13  C14 UNL     1       6.024  32.004  56.905  1.00  0.00     0.022 C 
HETATM   14  C15 UNL     1       5.425  33.008  55.946  1.00  0.00    -0.016 C 
HETATM   15  C16 UNL     1       6.149  32.971  54.623  1.00  0.00     0.020 C 
HETATM   16  C17 UNL     1       5.521  34.348  56.618  1.00  0.00     0.002 C 
HETATM   17  C18 UNL     1       6.924  34.732  56.964  1.00  0.00     0.007 C 
HETATM   18  C19 UNL     1       6.912  35.966  57.850  1.00  0.00     0.011 C 
HETATM   19  C20 UNL     1       6.267  37.087  57.102  1.00  0.00    -0.030 C 
HETATM   20  C21 UNL     1       7.082  37.484  55.903  1.00  0.00     0.016 C 
ENDROOT
BRANCH   1  21
HETATM   21  C2  UNL     1       7.035  39.114  58.320  1.00  0.00     0.128 C 
HETATM   22  C1  UNL     1       7.133  40.499  57.792  1.00  0.00     0.091 C 
HETATM   23  O1  UNL     1       7.921  38.743  59.068  1.00  0.00    -0.298 OA
ENDBRANCH   1  21
TORSDOF 1
ENDMDL
