MODEL 2
REMARK VINA RESULT: -9.242122224      1.344      1.793
REMARK  1 active torsions:
REMARK  status: ('A' for Active; 'I' for Inactive)
REMARK    1  A    between atoms: C2_2  and  C3_4 
ROOT
HETATM    1  C3  UNL     1       4.050  27.971  57.264  1.00  0.00     0.063 C 
HETATM    2  C4  UNL     1       2.585  28.250  57.584  1.00  0.00     0.013 C 
HETATM    3  C5  UNL     1       2.325  29.682  57.160  1.00  0.00     0.006 C 
HETATM    4  C6  UNL     1       3.603  30.101  56.564  1.00  0.00    -0.001 C 
HETATM    5  C7  UNL     1       3.873  31.551  56.475  1.00  0.00    -0.004 C 
HETATM    6  C8  UNL     1       2.856  32.141  55.490  1.00  0.00     0.010 C 
HETATM    7  C9  UNL     1       3.130  33.584  55.215  1.00  0.00     0.035 C 
HETATM    8  C10 UNL     1       4.535  33.685  54.689  1.00  0.00    -0.068 C 
HETATM    9  C11 UNL     1       4.703  34.270  53.521  1.00  0.00     0.053 C 
HETATM   10  C12 UNL     1       6.055  34.382  52.987  1.00  0.00     0.149 C 
HETATM   11  O2  UNL     1       6.280  34.503  51.756  1.00  0.00    -0.293 OA
HETATM   12  C13 UNL     1       7.164  34.343  53.999  1.00  0.00     0.084 C 
HETATM   13  C14 UNL     1       6.923  33.072  54.792  1.00  0.00     0.022 C 
HETATM   14  C15 UNL     1       5.605  33.119  55.531  1.00  0.00    -0.016 C 
HETATM   15  C16 UNL     1       5.723  33.979  56.766  1.00  0.00     0.020 C 
HETATM   16  C17 UNL     1       5.246  31.697  55.853  1.00  0.00     0.002 C 
HETATM   17  C18 UNL     1       6.282  31.003  56.679  1.00  0.00     0.007 C 
HETATM   18  C19 UNL     1       5.967  29.518  56.749  1.00  0.00     0.011 C 
HETATM   19  C20 UNL     1       4.630  29.342  57.390  1.00  0.00    -0.030 C 
HETATM   20  C21 UNL     1       4.645  29.798  58.822  1.00  0.00     0.016 C 
ENDROOT
BRANCH   1  21
HETATM   21  C2  UNL     1       4.649  26.966  58.127  1.00  0.00     0.128 C 
HETATM   22  C1  UNL     1       3.780  26.108  58.971  1.00  0.00     0.091 C 
HETATM   23  O1  UNL     1       5.850  26.781  58.202  1.00  0.00    -0.298 OA
ENDBRANCH   1  21
TORSDOF 1
ENDMDL
