MODEL 11
REMARK VINA RESULT: -5.279489081      0.991      1.527
REMARK  7 active torsions:
REMARK  status: ('A' for Active; 'I' for Inactive)
REMARK    1  A    between atoms: C1_2  and  C2_4 
REMARK    2  A    between atoms: C2_4  and  C3_5 
REMARK    3  A    between atoms: C3_5  and  P1_6 
REMARK    4  A    between atoms: P1_6  and  C4_9 
REMARK    5  A    between atoms: C4_9  and  C5_10 
REMARK    6  A    between atoms: C5_10  and  C6_12 
REMARK    7  A    between atoms: C6_12  and  C7_13 
ROOT
HETATM    1  P1  UNL     1      57.409  31.892  48.767  1.00  0.00     0.114 P 
HETATM    2  O3  UNL     1      57.413  31.876  50.325  1.00  0.00    -0.667 OA
HETATM    3  O4  UNL     1      57.004  32.296  47.317  1.00  0.00    -0.667 OA
ENDROOT
BRANCH   1   4
HETATM    4  C3  UNL     1      57.258  30.169  48.586  1.00  0.00     0.114 C 
BRANCH   4   5
HETATM    5  C2  UNL     1      56.341  29.403  49.520  1.00  0.00     0.123 C 
BRANCH   5   6
HETATM    6  C1  UNL     1      54.940  29.774  49.194  1.00  0.00     0.173 C 
HETATM    7  O1  UNL     1      54.457  29.622  48.035  1.00  0.00    -0.648 OA
HETATM    8  O2  UNL     1      54.092  30.308  50.162  1.00  0.00    -0.648 OA
ENDBRANCH   5   6
ENDBRANCH   4   5
ENDBRANCH   1   4
BRANCH   1   9
HETATM    9  C4  UNL     1      59.009  32.599  48.586  1.00  0.00     0.182 C 
BRANCH   9  10
HETATM   10  C5  UNL     1      59.576  32.427  47.197  1.00  0.00     0.146 C 
HETATM   11  O5  UNL     1      59.922  31.322  46.808  1.00  0.00    -0.297 OA
BRANCH  10  12
HETATM   12  C6  UNL     1      59.707  33.615  46.311  1.00  0.00     0.192 C 
BRANCH  12  13
HETATM   13  C7  UNL     1      60.484  33.246  45.114  1.00  0.00     0.179 C 
HETATM   14  O6  UNL     1      61.736  33.269  45.166  1.00  0.00    -0.648 OA
HETATM   15  O7  UNL     1      59.906  32.867  43.914  1.00  0.00    -0.648 OA
ENDBRANCH  12  13
ENDBRANCH  10  12
ENDBRANCH   9  10
ENDBRANCH   1   9
TORSDOF 7
ENDMDL
