MODEL 4
REMARK VINA RESULT: -6.617240857      1.301      6.407
REMARK  7 active torsions:
REMARK  status: ('A' for Active; 'I' for Inactive)
REMARK    1  A    between atoms: C1_2  and  C2_4 
REMARK    2  A    between atoms: C2_4  and  C3_5 
REMARK    3  A    between atoms: C3_5  and  P1_6 
REMARK    4  A    between atoms: P1_6  and  C4_9 
REMARK    5  A    between atoms: C4_9  and  C5_10 
REMARK    6  A    between atoms: C5_10  and  C6_12 
REMARK    7  A    between atoms: C6_12  and  C7_13 
ROOT
HETATM    1  P1  UNL     1      58.727  31.558  48.389  1.00  0.00     0.114 P 
HETATM    2  O3  UNL     1      57.699  32.727  48.320  1.00  0.00    -0.667 OA
HETATM    3  O4  UNL     1      59.640  30.459  49.010  1.00  0.00    -0.667 OA
ENDROOT
BRANCH   1   4
HETATM    4  C3  UNL     1      59.929  32.340  47.405  1.00  0.00     0.114 C 
BRANCH   4   5
HETATM    5  C2  UNL     1      59.490  33.342  46.354  1.00  0.00     0.123 C 
BRANCH   5   6
HETATM    6  C1  UNL     1      60.374  33.182  45.170  1.00  0.00     0.173 C 
HETATM    7  O1  UNL     1      61.626  33.345  45.240  1.00  0.00    -0.648 OA
HETATM    8  O2  UNL     1      59.854  32.841  43.923  1.00  0.00    -0.648 OA
ENDBRANCH   5   6
ENDBRANCH   4   5
ENDBRANCH   1   4
BRANCH   1   9
HETATM    9  C4  UNL     1      57.694  30.358  47.624  1.00  0.00     0.182 C 
BRANCH   9  10
HETATM   10  C5  UNL     1      56.388  30.153  48.353  1.00  0.00     0.146 C 
HETATM   11  O5  UNL     1      55.334  30.478  47.828  1.00  0.00    -0.297 OA
BRANCH  10  12
HETATM   12  C6  UNL     1      56.399  29.551  49.714  1.00  0.00     0.192 C 
BRANCH  12  13
HETATM   13  C7  UNL     1      55.403  30.235  50.557  1.00  0.00     0.179 C 
HETATM   14  O6  UNL     1      54.184  30.032  50.352  1.00  0.00    -0.648 OA
HETATM   15  O7  UNL     1      55.738  31.105  51.582  1.00  0.00    -0.648 OA
ENDBRANCH  12  13
ENDBRANCH  10  12
ENDBRANCH   9  10
ENDBRANCH   1   9
TORSDOF 7
ENDMDL
