MODEL 1
REMARK VINA RESULT: -7.204673709      0.000      0.000
REMARK  7 active torsions:
REMARK  status: ('A' for Active; 'I' for Inactive)
REMARK    1  A    between atoms: C1_2  and  C2_4 
REMARK    2  A    between atoms: C2_4  and  C3_5 
REMARK    3  A    between atoms: C3_5  and  P1_6 
REMARK    4  A    between atoms: P1_6  and  C4_9 
REMARK    5  A    between atoms: C4_9  and  C5_10 
REMARK    6  A    between atoms: C5_10  and  C6_12 
REMARK    7  A    between atoms: C6_12  and  C7_13 
ROOT
HETATM    1  P1  UNL     1      58.420  31.305  48.289  1.00  0.00     0.114 P 
HETATM    2  O3  UNL     1      59.227  30.708  47.098  1.00  0.00    -0.667 OA
HETATM    3  O4  UNL     1      58.122  31.834  49.725  1.00  0.00    -0.667 OA
ENDROOT
BRANCH   1   4
HETATM    4  C3  UNL     1      57.093  30.188  48.165  1.00  0.00     0.114 C 
BRANCH   4   5
HETATM    5  C2  UNL     1      56.383  29.737  49.427  1.00  0.00     0.123 C 
BRANCH   5   6
HETATM    6  C1  UNL     1      54.920  29.822  49.185  1.00  0.00     0.173 C 
HETATM    7  O1  UNL     1      54.410  29.577  48.054  1.00  0.00    -0.648 OA
HETATM    8  O2  UNL     1      54.040  30.179  50.205  1.00  0.00    -0.648 OA
ENDBRANCH   5   6
ENDBRANCH   4   5
ENDBRANCH   1   4
BRANCH   1   9
HETATM    9  C4  UNL     1      58.214  32.905  47.589  1.00  0.00     0.182 C 
BRANCH   9  10
HETATM   10  C5  UNL     1      59.525  33.573  47.246  1.00  0.00     0.146 C 
HETATM   11  O5  UNL     1      60.436  33.587  48.059  1.00  0.00    -0.297 OA
BRANCH  10  12
HETATM   12  C6  UNL     1      59.692  34.210  45.913  1.00  0.00     0.192 C 
BRANCH  12  13
HETATM   13  C7  UNL     1      60.428  33.293  45.024  1.00  0.00     0.179 C 
HETATM   14  O6  UNL     1      61.596  32.954  45.327  1.00  0.00    -0.648 OA
HETATM   15  O7  UNL     1      59.899  32.773  43.854  1.00  0.00    -0.648 OA
ENDBRANCH  12  13
ENDBRANCH  10  12
ENDBRANCH   9  10
ENDBRANCH   1   9
TORSDOF 7
ENDMDL
