MODEL 5
REMARK VINA RESULT: -6.414372636      1.095      6.126
REMARK  7 active torsions:
REMARK  status: ('A' for Active; 'I' for Inactive)
REMARK    1  A    between atoms: C1_2  and  C2_4 
REMARK    2  A    between atoms: C2_4  and  C3_5 
REMARK    3  A    between atoms: C3_5  and  P1_6 
REMARK    4  A    between atoms: P1_6  and  C4_9 
REMARK    5  A    between atoms: C4_9  and  C5_10 
REMARK    6  A    between atoms: C5_10  and  C6_12 
REMARK    7  A    between atoms: C6_12  and  C7_13 
ROOT
HETATM    1  P1  UNL     1      58.838  32.403  48.691  1.00  0.00     0.114 P 
HETATM    2  O3  UNL     1      58.264  33.789  49.110  1.00  0.00    -0.667 OA
HETATM    3  O4  UNL     1      59.450  30.977  48.838  1.00  0.00    -0.667 OA
ENDROOT
BRANCH   1   4
HETATM    4  C3  UNL     1      59.986  33.040  47.551  1.00  0.00     0.114 C 
BRANCH   4   5
HETATM    5  C2  UNL     1      59.485  33.655  46.258  1.00  0.00     0.123 C 
BRANCH   5   6
HETATM    6  C1  UNL     1      60.384  33.214  45.161  1.00  0.00     0.173 C 
HETATM    7  O1  UNL     1      61.639  33.150  45.305  1.00  0.00    -0.648 OA
HETATM    8  O2  UNL     1      59.877  32.848  43.916  1.00  0.00    -0.648 OA
ENDBRANCH   5   6
ENDBRANCH   4   5
ENDBRANCH   1   4
BRANCH   1   9
HETATM    9  C4  UNL     1      57.327  31.760  48.063  1.00  0.00     0.182 C 
BRANCH   9  10
HETATM   10  C5  UNL     1      57.283  30.250  48.063  1.00  0.00     0.146 C 
HETATM   11  O5  UNL     1      57.752  29.623  47.126  1.00  0.00    -0.297 OA
BRANCH  10  12
HETATM   12  C6  UNL     1      56.666  29.539  49.215  1.00  0.00     0.192 C 
BRANCH  12  13
HETATM   13  C7  UNL     1      55.205  29.727  49.177  1.00  0.00     0.179 C 
HETATM   14  O6  UNL     1      54.589  29.957  50.243  1.00  0.00    -0.648 OA
HETATM   15  O7  UNL     1      54.457  29.664  48.012  1.00  0.00    -0.648 OA
ENDBRANCH  12  13
ENDBRANCH  10  12
ENDBRANCH   9  10
ENDBRANCH   1   9
TORSDOF 7
ENDMDL
