MODEL 9
REMARK VINA RESULT: -9.263562967      2.602     11.126
REMARK  15 active torsions:
REMARK  status: ('A' for Active; 'I' for Inactive)
REMARK    1  A    between atoms: O1_2  and  C2_3 
REMARK    2  A    between atoms: C5_6  and  S1_7 
REMARK    3  A    between atoms: S1_7  and  N1_10 
REMARK    4  A    between atoms: N1_10  and  C6_11 
REMARK    5  A    between atoms: N1_10  and  C10_15 
REMARK    6  A    between atoms: C6_11  and  C7_12 
REMARK    7  A    between atoms: C10_15  and  C11_16 
REMARK    8  A    between atoms: C11_16  and  O4_17 
REMARK    9  A    between atoms: C11_16  and  C12_19 
REMARK   10  A    between atoms: C12_19  and  C13_20 
REMARK   11  A    between atoms: C12_19  and  N2_27 
REMARK   12  A    between atoms: C13_20  and  C14_21 
REMARK       I    between atoms: N2_27  and  C20_29 
REMARK   13  A    between atoms: C20_29  and  C21_31 
REMARK   14  A    between atoms: N3_33  and  C23_34 
REMARK   15  A    between atoms: C26_37  and  C27_38 
ROOT
HETATM    1  C12 UNL     1      21.629  29.413  12.816  1.00  0.00     0.122 C 
ENDROOT
BRANCH   1   2
HETATM    2  C11 UNL     1      21.968  28.140  12.056  1.00  0.00     0.180 C 
BRANCH   2   3
HETATM    3  C10 UNL     1      21.101  27.021  12.527  1.00  0.00     0.115 C 
BRANCH   3   4
HETATM    4  N1  UNL     1      20.770  26.014  11.621  1.00  0.00    -0.263 N 
BRANCH   4   5
HETATM    5  S1  UNL     1      19.120  25.866  11.353  1.00  0.00     0.267 S 
HETATM    6  O2  UNL     1      18.410  26.971  12.126  1.00  0.00    -0.200 OA
HETATM    7  O3  UNL     1      18.550  24.577  11.880  1.00  0.00    -0.200 OA
BRANCH   5   8
HETATM    8  C5  UNL     1      18.626  26.031   9.682  1.00  0.00     0.080 A 
HETATM    9  C4  UNL     1      19.241  26.909   8.825  1.00  0.00     0.028 A 
HETATM   10  C3  UNL     1      18.831  27.024   7.521  1.00  0.00     0.038 A 
HETATM   11  C2  UNL     1      17.794  26.276   7.006  1.00  0.00     0.068 A 
HETATM   12  C33 UNL     1      17.183  25.393   7.889  1.00  0.00     0.038 A 
HETATM   13  C32 UNL     1      17.586  25.268   9.200  1.00  0.00     0.028 A 
BRANCH  11  14
HETATM   14  O1  UNL     1      17.353  26.371   5.685  1.00  0.00    -0.356 OA
HETATM   15  C1  UNL     1      17.807  27.513   4.956  1.00  0.00     0.210 C 
ENDBRANCH  11  14
ENDBRANCH   5   8
ENDBRANCH   4   5
BRANCH   4  16
HETATM   16  C6  UNL     1      21.622  24.958  11.320  1.00  0.00     0.085 C 
BRANCH  16  17
HETATM   17  C7  UNL     1      22.413  25.219  10.039  1.00  0.00     0.017 C 
HETATM   18  C8  UNL     1      23.896  24.958  10.276  1.00  0.00     0.015 C 
HETATM   19  C9  UNL     1      21.884  24.276   8.979  1.00  0.00     0.015 C 
ENDBRANCH  16  17
ENDBRANCH   4  16
ENDBRANCH   3   4
ENDBRANCH   2   3
BRANCH   2  20
HETATM   20  O4  UNL     1      21.677  28.384  10.719  1.00  0.00    -0.388 OA
ATOM     21  H4  UNL     1      22.286  29.038  10.396  1.00  0.00     0.210 HD
ENDBRANCH   2  20
ENDBRANCH   1   2
BRANCH   1  22
HETATM   22  C13 UNL     1      22.620  29.730  13.874  1.00  0.00     0.066 C 
BRANCH  22  23
HETATM   23  C14 UNL     1      22.365  31.003  14.582  1.00  0.00    -0.056 A 
HETATM   24  C15 UNL     1      22.012  30.952  15.936  1.00  0.00     0.007 A 
HETATM   25  C16 UNL     1      21.736  32.083  16.667  1.00  0.00     0.001 A 
HETATM   26  C17 UNL     1      21.800  33.315  16.087  1.00  0.00     0.000 A 
HETATM   27  C18 UNL     1      22.148  33.381  14.756  1.00  0.00     0.001 A 
HETATM   28  C19 UNL     1      22.427  32.236  14.014  1.00  0.00     0.007 A 
ENDBRANCH  22  23
ENDBRANCH   1  22
BRANCH   1  29
HETATM   29  N2  UNL     1      20.285  29.382  13.331  1.00  0.00    -0.351 N 
HETATM   30  C20 UNL     1      19.268  30.316  13.047  1.00  0.00     0.249 C 
HETATM   31  O5  UNL     1      19.544  31.276  12.285  1.00  0.00    -0.271 OA
ATOM     32  H2  UNL     1      20.047  28.614  13.957  1.00  0.00     0.163 HD
BRANCH  30  33
HETATM   33  C21 UNL     1      17.883  30.198  13.621  1.00  0.00     0.243 C 
HETATM   34  C22 UNL     1      17.320  31.556  13.939  1.00  0.00     0.177 C 
HETATM   35  N3  UNL     1      17.489  31.681  15.385  1.00  0.00    -0.291 N 
HETATM   36  C31 UNL     1      18.100  30.487  15.846  1.00  0.00     0.368 C 
HETATM   37  O7  UNL     1      18.715  30.314  16.939  1.00  0.00    -0.238 OA
HETATM   38  O8  UNL     1      17.884  29.546  14.851  1.00  0.00    -0.287 OA
BRANCH  35  39
HETATM   39  C23 UNL     1      17.092  32.820  16.143  1.00  0.00     0.039 A 
HETATM   40  C24 UNL     1      17.996  33.535  16.890  1.00  0.00     0.031 A 
HETATM   41  C25 UNL     1      17.609  34.638  17.618  1.00  0.00     0.017 A 
HETATM   42  C26 UNL     1      16.306  35.087  17.642  1.00  0.00     0.009 A 
HETATM   43  C29 UNL     1      15.411  34.350  16.880  1.00  0.00     0.017 A 
HETATM   44  C30 UNL     1      15.770  33.247  16.144  1.00  0.00     0.031 A 
BRANCH  42  45
HETATM   45  C27 UNL     1      15.891  36.250  18.405  1.00  0.00     0.155 C 
HETATM   46  C28 UNL     1      16.187  37.608  17.907  1.00  0.00     0.096 C 
HETATM   47  O6  UNL     1      15.280  36.113  19.483  1.00  0.00    -0.293 OA
ENDBRANCH  42  45
ENDBRANCH  35  39
ENDBRANCH  30  33
ENDBRANCH   1  29
TORSDOF 15
ENDMDL
