MODEL 4
REMARK VINA RESULT: -9.665655060      0.812      1.468
REMARK  15 active torsions:
REMARK  status: ('A' for Active; 'I' for Inactive)
REMARK    1  A    between atoms: O1_2  and  C2_3 
REMARK    2  A    between atoms: C5_6  and  S1_7 
REMARK    3  A    between atoms: S1_7  and  N1_10 
REMARK    4  A    between atoms: N1_10  and  C6_11 
REMARK    5  A    between atoms: N1_10  and  C10_15 
REMARK    6  A    between atoms: C6_11  and  C7_12 
REMARK    7  A    between atoms: C10_15  and  C11_16 
REMARK    8  A    between atoms: C11_16  and  O4_17 
REMARK    9  A    between atoms: C11_16  and  C12_19 
REMARK   10  A    between atoms: C12_19  and  C13_20 
REMARK   11  A    between atoms: C12_19  and  N2_27 
REMARK   12  A    between atoms: C13_20  and  C14_21 
REMARK       I    between atoms: N2_27  and  C20_29 
REMARK   13  A    between atoms: C20_29  and  C21_31 
REMARK   14  A    between atoms: N3_33  and  C23_34 
REMARK   15  A    between atoms: C26_37  and  C27_38 
ROOT
HETATM    1  C12 UNL     1      20.306  28.492  13.555  1.00  0.00     0.122 C 
ENDROOT
BRANCH   1   2
HETATM    2  C11 UNL     1      20.702  29.238  14.820  1.00  0.00     0.180 C 
BRANCH   2   3
HETATM    3  C10 UNL     1      20.421  30.694  14.660  1.00  0.00     0.115 C 
BRANCH   3   4
HETATM    4  N1  UNL     1      19.598  31.316  15.599  1.00  0.00    -0.263 N 
BRANCH   4   5
HETATM    5  S1  UNL     1      17.995  31.431  15.115  1.00  0.00     0.267 S 
HETATM    6  O2  UNL     1      17.262  30.181  15.588  1.00  0.00    -0.200 OA
HETATM    7  O3  UNL     1      17.830  31.452  13.620  1.00  0.00    -0.200 OA
BRANCH   5   8
HETATM    8  C5  UNL     1      17.121  32.798  15.773  1.00  0.00     0.080 A 
HETATM    9  C4  UNL     1      17.231  34.057  15.237  1.00  0.00     0.028 A 
HETATM   10  C3  UNL     1      16.541  35.114  15.775  1.00  0.00     0.038 A 
HETATM   11  C2  UNL     1      15.709  34.973  16.866  1.00  0.00     0.068 A 
HETATM   12  C33 UNL     1      15.612  33.689  17.395  1.00  0.00     0.038 A 
HETATM   13  C32 UNL     1      16.300  32.621  16.863  1.00  0.00     0.028 A 
BRANCH  11  14
HETATM   14  O1  UNL     1      14.995  36.026  17.436  1.00  0.00    -0.356 OA
HETATM   15  C1  UNL     1      15.295  36.317  18.803  1.00  0.00     0.210 C 
ENDBRANCH  11  14
ENDBRANCH   5   8
ENDBRANCH   4   5
BRANCH   4  16
HETATM   16  C6  UNL     1      20.085  32.150  16.599  1.00  0.00     0.085 C 
BRANCH  16  17
HETATM   17  C7  UNL     1      21.287  32.961  16.121  1.00  0.00     0.017 C 
HETATM   18  C8  UNL     1      20.953  34.449  16.128  1.00  0.00     0.015 C 
HETATM   19  C9  UNL     1      22.431  32.683  17.073  1.00  0.00     0.015 C 
ENDBRANCH  16  17
ENDBRANCH   4  16
ENDBRANCH   3   4
ENDBRANCH   2   3
BRANCH   2  20
HETATM   20  O4  UNL     1      19.895  28.748  15.841  1.00  0.00    -0.388 OA
ATOM     21  H4  UNL     1      20.456  28.447  16.546  1.00  0.00     0.210 HD
ENDBRANCH   2  20
ENDBRANCH   1   2
BRANCH   1  22
HETATM   22  C13 UNL     1      18.933  27.933  13.626  1.00  0.00     0.066 C 
BRANCH  22  23
HETATM   23  C14 UNL     1      18.393  27.487  12.323  1.00  0.00    -0.056 A 
HETATM   24  C15 UNL     1      17.884  28.453  11.447  1.00  0.00     0.007 A 
HETATM   25  C16 UNL     1      17.343  28.126  10.226  1.00  0.00     0.001 A 
HETATM   26  C17 UNL     1      17.285  26.826   9.821  1.00  0.00     0.000 A 
HETATM   27  C18 UNL     1      17.783  25.864  10.671  1.00  0.00     0.001 A 
HETATM   28  C19 UNL     1      18.331  26.194  11.909  1.00  0.00     0.007 A 
ENDBRANCH  22  23
ENDBRANCH   1  22
BRANCH   1  29
HETATM   29  N2  UNL     1      21.277  27.490  13.205  1.00  0.00    -0.351 N 
HETATM   30  C20 UNL     1      22.075  27.480  12.042  1.00  0.00     0.249 C 
HETATM   31  O5  UNL     1      21.932  28.420  11.221  1.00  0.00    -0.271 OA
ATOM     32  H2  UNL     1      21.400  26.716  13.857  1.00  0.00     0.163 HD
BRANCH  30  33
HETATM   33  C21 UNL     1      23.077  26.395  11.762  1.00  0.00     0.243 C 
HETATM   34  C22 UNL     1      23.528  26.443  10.327  1.00  0.00     0.177 C 
HETATM   35  N3  UNL     1      22.770  25.374   9.681  1.00  0.00    -0.291 N 
HETATM   36  C31 UNL     1      21.955  24.771  10.673  1.00  0.00     0.368 C 
HETATM   37  O7  UNL     1      20.927  24.056  10.489  1.00  0.00    -0.238 OA
HETATM   38  O8  UNL     1      22.519  25.126  11.889  1.00  0.00    -0.287 OA
BRANCH  35  39
HETATM   39  C23 UNL     1      22.871  25.042   8.299  1.00  0.00     0.039 A 
HETATM   40  C24 UNL     1      24.061  24.642   7.743  1.00  0.00     0.031 A 
HETATM   41  C25 UNL     1      24.154  24.318   6.408  1.00  0.00     0.017 A 
HETATM   42  C26 UNL     1      23.070  24.375   5.557  1.00  0.00     0.009 A 
HETATM   43  C29 UNL     1      21.879  24.782   6.141  1.00  0.00     0.017 A 
HETATM   44  C30 UNL     1      21.759  25.110   7.470  1.00  0.00     0.031 A 
BRANCH  42  45
HETATM   45  C27 UNL     1      23.159  24.034   4.149  1.00  0.00     0.155 C 
HETATM   46  C28 UNL     1      24.140  24.715   3.282  1.00  0.00     0.096 C 
HETATM   47  O6  UNL     1      22.411  23.163   3.662  1.00  0.00    -0.293 OA
ENDBRANCH  42  45
ENDBRANCH  35  39
ENDBRANCH  30  33
ENDBRANCH   1  29
TORSDOF 15
ENDMDL
