MODEL 3
REMARK VINA RESULT: -9.671220169      0.882      1.122
REMARK  15 active torsions:
REMARK  status: ('A' for Active; 'I' for Inactive)
REMARK    1  A    between atoms: O1_2  and  C2_3 
REMARK    2  A    between atoms: C5_6  and  S1_7 
REMARK    3  A    between atoms: S1_7  and  N1_10 
REMARK    4  A    between atoms: N1_10  and  C6_11 
REMARK    5  A    between atoms: N1_10  and  C10_15 
REMARK    6  A    between atoms: C6_11  and  C7_12 
REMARK    7  A    between atoms: C10_15  and  C11_16 
REMARK    8  A    between atoms: C11_16  and  O4_17 
REMARK    9  A    between atoms: C11_16  and  C12_19 
REMARK   10  A    between atoms: C12_19  and  C13_20 
REMARK   11  A    between atoms: C12_19  and  N2_27 
REMARK   12  A    between atoms: C13_20  and  C14_21 
REMARK       I    between atoms: N2_27  and  C20_29 
REMARK   13  A    between atoms: C20_29  and  C21_31 
REMARK   14  A    between atoms: N3_33  and  C23_34 
REMARK   15  A    between atoms: C26_37  and  C27_38 
ROOT
HETATM    1  C12 UNL     1      20.150  28.234  13.417  1.00  0.00     0.122 C 
ENDROOT
BRANCH   1   2
HETATM    2  C11 UNL     1      20.490  28.883  14.749  1.00  0.00     0.180 C 
BRANCH   2   3
HETATM    3  C10 UNL     1      20.666  30.353  14.567  1.00  0.00     0.115 C 
BRANCH   3   4
HETATM    4  N1  UNL     1      19.835  31.213  15.285  1.00  0.00    -0.263 N 
BRANCH   4   5
HETATM    5  S1  UNL     1      18.587  31.861  14.369  1.00  0.00     0.267 S 
HETATM    6  O2  UNL     1      17.839  30.712  13.702  1.00  0.00    -0.200 OA
HETATM    7  O3  UNL     1      19.072  32.732  13.242  1.00  0.00    -0.200 OA
BRANCH   5   8
HETATM    8  C5  UNL     1      17.397  32.767  15.279  1.00  0.00     0.080 A 
HETATM    9  C4  UNL     1      17.293  34.132  15.181  1.00  0.00     0.028 A 
HETATM   10  C3  UNL     1      16.355  34.820  15.909  1.00  0.00     0.038 A 
HETATM   11  C2  UNL     1      15.479  34.189  16.766  1.00  0.00     0.068 A 
HETATM   12  C33 UNL     1      15.601  32.806  16.852  1.00  0.00     0.038 A 
HETATM   13  C32 UNL     1      16.537  32.104  16.126  1.00  0.00     0.028 A 
BRANCH  11  14
HETATM   14  O1  UNL     1      14.516  34.860  17.520  1.00  0.00    -0.356 OA
HETATM   15  C1  UNL     1      14.956  36.053  18.175  1.00  0.00     0.210 C 
ENDBRANCH  11  14
ENDBRANCH   5   8
ENDBRANCH   4   5
BRANCH   4  16
HETATM   16  C6  UNL     1      20.226  31.833  16.466  1.00  0.00     0.085 C 
BRANCH  16  17
HETATM   17  C7  UNL     1      21.339  32.851  16.228  1.00  0.00     0.017 C 
HETATM   18  C8  UNL     1      20.803  34.266  16.411  1.00  0.00     0.015 C 
HETATM   19  C9  UNL     1      22.431  32.576  17.240  1.00  0.00     0.015 C 
ENDBRANCH  16  17
ENDBRANCH   4  16
ENDBRANCH   3   4
ENDBRANCH   2   3
BRANCH   2  20
HETATM   20  O4  UNL     1      19.397  28.675  15.584  1.00  0.00    -0.388 OA
ATOM     21  H4  UNL     1      18.870  27.976  15.216  1.00  0.00     0.210 HD
ENDBRANCH   2  20
ENDBRANCH   1   2
BRANCH   1  22
HETATM   22  C13 UNL     1      18.788  27.646  13.396  1.00  0.00     0.066 C 
BRANCH  22  23
HETATM   23  C14 UNL     1      18.304  27.284  12.046  1.00  0.00    -0.056 A 
HETATM   24  C15 UNL     1      18.155  25.928  11.735  1.00  0.00     0.007 A 
HETATM   25  C16 UNL     1      17.731  25.499  10.499  1.00  0.00     0.001 A 
HETATM   26  C17 UNL     1      17.435  26.399   9.519  1.00  0.00     0.000 A 
HETATM   27  C18 UNL     1      17.575  27.738   9.811  1.00  0.00     0.001 A 
HETATM   28  C19 UNL     1      18.005  28.173  11.063  1.00  0.00     0.007 A 
ENDBRANCH  22  23
ENDBRANCH   1  22
BRANCH   1  29
HETATM   29  N2  UNL     1      21.153  27.280  13.021  1.00  0.00    -0.351 N 
HETATM   30  C20 UNL     1      22.096  27.450  11.987  1.00  0.00     0.249 C 
HETATM   31  O5  UNL     1      22.068  28.524  11.334  1.00  0.00    -0.271 OA
ATOM     32  H2  UNL     1      21.184  26.400  13.536  1.00  0.00     0.163 HD
BRANCH  30  33
HETATM   33  C21 UNL     1      23.120  26.402  11.650  1.00  0.00     0.243 C 
HETATM   34  C22 UNL     1      23.509  26.484  10.199  1.00  0.00     0.177 C 
HETATM   35  N3  UNL     1      22.758  25.400   9.569  1.00  0.00    -0.291 N 
HETATM   36  C31 UNL     1      22.005  24.758  10.583  1.00  0.00     0.368 C 
HETATM   37  O7  UNL     1      20.993  24.013  10.431  1.00  0.00    -0.238 OA
HETATM   38  O8  UNL     1      22.607  25.114  11.781  1.00  0.00    -0.287 OA
BRANCH  35  39
HETATM   39  C23 UNL     1      22.812  25.091   8.179  1.00  0.00     0.039 A 
HETATM   40  C24 UNL     1      21.693  25.154   7.385  1.00  0.00     0.031 A 
HETATM   41  C25 UNL     1      21.752  24.858   6.042  1.00  0.00     0.017 A 
HETATM   42  C26 UNL     1      22.922  24.483   5.418  1.00  0.00     0.009 A 
HETATM   43  C29 UNL     1      24.039  24.425   6.238  1.00  0.00     0.017 A 
HETATM   44  C30 UNL     1      24.009  24.716   7.581  1.00  0.00     0.031 A 
BRANCH  42  45
HETATM   45  C27 UNL     1      22.992  24.171   4.002  1.00  0.00     0.155 C 
HETATM   46  C28 UNL     1      24.174  24.569   3.213  1.00  0.00     0.096 C 
HETATM   47  O6  UNL     1      22.057  23.565   3.442  1.00  0.00    -0.293 OA
ENDBRANCH  42  45
ENDBRANCH  35  39
ENDBRANCH  30  33
ENDBRANCH   1  29
TORSDOF 15
ENDMDL
