MODEL 1
REMARK VINA RESULT: -9.965007312      0.000      0.000
REMARK  15 active torsions:
REMARK  status: ('A' for Active; 'I' for Inactive)
REMARK    1  A    between atoms: O1_2  and  C2_3 
REMARK    2  A    between atoms: C5_6  and  S1_7 
REMARK    3  A    between atoms: S1_7  and  N1_10 
REMARK    4  A    between atoms: N1_10  and  C6_11 
REMARK    5  A    between atoms: N1_10  and  C10_15 
REMARK    6  A    between atoms: C6_11  and  C7_12 
REMARK    7  A    between atoms: C10_15  and  C11_16 
REMARK    8  A    between atoms: C11_16  and  O4_17 
REMARK    9  A    between atoms: C11_16  and  C12_19 
REMARK   10  A    between atoms: C12_19  and  C13_20 
REMARK   11  A    between atoms: C12_19  and  N2_27 
REMARK   12  A    between atoms: C13_20  and  C14_21 
REMARK       I    between atoms: N2_27  and  C20_29 
REMARK   13  A    between atoms: C20_29  and  C21_31 
REMARK   14  A    between atoms: N3_33  and  C23_34 
REMARK   15  A    between atoms: C26_37  and  C27_38 
ROOT
HETATM    1  C12 UNL     1      19.976  28.463  13.808  1.00  0.00     0.122 C 
ENDROOT
BRANCH   1   2
HETATM    2  C11 UNL     1      20.271  29.093  15.161  1.00  0.00     0.180 C 
BRANCH   2   3
HETATM    3  C10 UNL     1      19.197  30.067  15.512  1.00  0.00     0.115 C 
BRANCH   3   4
HETATM    4  N1  UNL     1      19.464  31.429  15.365  1.00  0.00    -0.263 N 
BRANCH   4   5
HETATM    5  S1  UNL     1      18.138  32.323  14.856  1.00  0.00     0.267 S 
HETATM    6  O2  UNL     1      17.132  31.367  14.226  1.00  0.00    -0.200 OA
HETATM    7  O3  UNL     1      18.476  33.318  13.779  1.00  0.00    -0.200 OA
BRANCH   5   8
HETATM    8  C5  UNL     1      17.288  33.172  16.128  1.00  0.00     0.080 A 
HETATM    9  C4  UNL     1      15.919  33.255  16.159  1.00  0.00     0.028 A 
HETATM   10  C3  UNL     1      15.276  33.932  17.164  1.00  0.00     0.038 A 
HETATM   11  C2  UNL     1      15.960  34.558  18.185  1.00  0.00     0.068 A 
HETATM   12  C33 UNL     1      17.347  34.463  18.137  1.00  0.00     0.038 A 
HETATM   13  C32 UNL     1      18.003  33.786  17.133  1.00  0.00     0.028 A 
BRANCH  11  14
HETATM   14  O1  UNL     1      15.336  35.255  19.221  1.00  0.00    -0.356 OA
HETATM   15  C1  UNL     1      15.371  36.680  19.123  1.00  0.00     0.210 C 
ENDBRANCH  11  14
ENDBRANCH   5   8
ENDBRANCH   4   5
BRANCH   4  16
HETATM   16  C6  UNL     1      20.749  31.934  15.204  1.00  0.00     0.085 C 
BRANCH  16  17
HETATM   17  C7  UNL     1      21.171  32.791  16.396  1.00  0.00     0.017 C 
HETATM   18  C8  UNL     1      22.476  32.265  16.984  1.00  0.00     0.015 C 
HETATM   19  C9  UNL     1      21.364  34.206  15.893  1.00  0.00     0.015 C 
ENDBRANCH  16  17
ENDBRANCH   4  16
ENDBRANCH   3   4
ENDBRANCH   2   3
BRANCH   2  20
HETATM   20  O4  UNL     1      20.248  28.063  16.094  1.00  0.00    -0.388 OA
ATOM     21  H4  UNL     1      19.582  27.438  15.833  1.00  0.00     0.210 HD
ENDBRANCH   2  20
ENDBRANCH   1   2
BRANCH   1  22
HETATM   22  C13 UNL     1      18.617  27.873  13.736  1.00  0.00     0.066 C 
BRANCH  22  23
HETATM   23  C14 UNL     1      18.143  27.609  12.360  1.00  0.00    -0.056 A 
HETATM   24  C15 UNL     1      18.181  26.293  11.884  1.00  0.00     0.007 A 
HETATM   25  C16 UNL     1      17.781  25.960  10.611  1.00  0.00     0.001 A 
HETATM   26  C17 UNL     1      17.324  26.918   9.756  1.00  0.00     0.000 A 
HETATM   27  C18 UNL     1      17.279  28.217  10.211  1.00  0.00     0.001 A 
HETATM   28  C19 UNL     1      17.685  28.556  11.500  1.00  0.00     0.007 A 
ENDBRANCH  22  23
ENDBRANCH   1  22
BRANCH   1  29
HETATM   29  N2  UNL     1      20.994  27.518  13.431  1.00  0.00    -0.351 N 
HETATM   30  C20 UNL     1      21.743  27.540  12.237  1.00  0.00     0.249 C 
HETATM   31  O5  UNL     1      21.509  28.458  11.411  1.00  0.00    -0.271 OA
ATOM     32  H2  UNL     1      21.190  26.762  14.087  1.00  0.00     0.163 HD
BRANCH  30  33
HETATM   33  C21 UNL     1      22.800  26.516  11.930  1.00  0.00     0.243 C 
HETATM   34  C22 UNL     1      23.214  26.594  10.485  1.00  0.00     0.177 C 
HETATM   35  N3  UNL     1      22.504  25.485   9.852  1.00  0.00    -0.291 N 
HETATM   36  C31 UNL     1      21.748  24.833  10.859  1.00  0.00     0.368 C 
HETATM   37  O7  UNL     1      20.758  24.061  10.696  1.00  0.00    -0.238 OA
HETATM   38  O8  UNL     1      22.318  25.216  12.064  1.00  0.00    -0.287 OA
BRANCH  35  39
HETATM   39  C23 UNL     1      22.593  25.163   8.467  1.00  0.00     0.039 A 
HETATM   40  C24 UNL     1      21.501  25.250   7.638  1.00  0.00     0.031 A 
HETATM   41  C25 UNL     1      21.592  24.942   6.300  1.00  0.00     0.017 A 
HETATM   42  C26 UNL     1      22.772  24.531   5.715  1.00  0.00     0.009 A 
HETATM   43  C29 UNL     1      23.860  24.450   6.570  1.00  0.00     0.017 A 
HETATM   44  C30 UNL     1      23.797  24.752   7.909  1.00  0.00     0.031 A 
BRANCH  42  45
HETATM   45  C27 UNL     1      22.876  24.207   4.304  1.00  0.00     0.155 C 
HETATM   46  C28 UNL     1      24.005  24.725   3.506  1.00  0.00     0.096 C 
HETATM   47  O6  UNL     1      22.017  23.489   3.756  1.00  0.00    -0.293 OA
ENDBRANCH  42  45
ENDBRANCH  35  39
ENDBRANCH  30  33
ENDBRANCH   1  29
TORSDOF 15
ENDMDL
