MODEL 5
REMARK VINA RESULT: -9.468843077      3.726     11.100
REMARK  15 active torsions:
REMARK  status: ('A' for Active; 'I' for Inactive)
REMARK    1  A    between atoms: O1_2  and  C2_3 
REMARK    2  A    between atoms: C5_6  and  S1_7 
REMARK    3  A    between atoms: S1_7  and  N1_10 
REMARK    4  A    between atoms: N1_10  and  C6_11 
REMARK    5  A    between atoms: N1_10  and  C10_15 
REMARK    6  A    between atoms: C6_11  and  C7_12 
REMARK    7  A    between atoms: C10_15  and  C11_16 
REMARK    8  A    between atoms: C11_16  and  O4_17 
REMARK    9  A    between atoms: C11_16  and  C12_19 
REMARK   10  A    between atoms: C12_19  and  C13_20 
REMARK   11  A    between atoms: C12_19  and  N2_27 
REMARK   12  A    between atoms: C13_20  and  C14_21 
REMARK       I    between atoms: N2_27  and  C20_29 
REMARK   13  A    between atoms: C20_29  and  C21_31 
REMARK   14  A    between atoms: N3_33  and  C23_34 
REMARK   15  A    between atoms: C26_37  and  C27_38 
ROOT
HETATM    1  C12 UNL     1      17.668  31.383  14.900  1.00  0.00     0.122 C 
ENDROOT
BRANCH   1   2
HETATM    2  C11 UNL     1      18.900  31.308  15.788  1.00  0.00     0.180 C 
BRANCH   2   3
HETATM    3  C10 UNL     1      19.436  32.679  16.032  1.00  0.00     0.115 C 
BRANCH   3   4
HETATM    4  N1  UNL     1      20.713  32.984  15.558  1.00  0.00    -0.263 N 
BRANCH   4   5
HETATM    5  S1  UNL     1      21.766  31.677  15.579  1.00  0.00     0.267 S 
HETATM    6  O2  UNL     1      21.498  30.867  16.842  1.00  0.00    -0.200 OA
HETATM    7  O3  UNL     1      23.212  32.086  15.664  1.00  0.00    -0.200 OA
BRANCH   5   8
HETATM    8  C5  UNL     1      21.597  30.571  14.233  1.00  0.00     0.080 A 
HETATM    9  C4  UNL     1      21.373  31.012  12.953  1.00  0.00     0.028 A 
HETATM   10  C3  UNL     1      21.238  30.124  11.916  1.00  0.00     0.038 A 
HETATM   11  C2  UNL     1      21.319  28.760  12.098  1.00  0.00     0.068 A 
HETATM   12  C33 UNL     1      21.545  28.332  13.403  1.00  0.00     0.038 A 
HETATM   13  C32 UNL     1      21.683  29.214  14.452  1.00  0.00     0.028 A 
BRANCH  11  14
HETATM   14  O1  UNL     1      21.185  27.831  11.066  1.00  0.00    -0.356 OA
HETATM   15  C1  UNL     1      21.220  26.456  11.454  1.00  0.00     0.210 C 
ENDBRANCH  11  14
ENDBRANCH   5   8
ENDBRANCH   4   5
BRANCH   4  16
HETATM   16  C6  UNL     1      21.211  34.280  15.507  1.00  0.00     0.085 C 
BRANCH  16  17
HETATM   17  C7  UNL     1      21.026  35.008  16.837  1.00  0.00     0.017 C 
HETATM   18  C8  UNL     1      21.899  34.369  17.911  1.00  0.00     0.015 C 
HETATM   19  C9  UNL     1      21.438  36.450  16.626  1.00  0.00     0.015 C 
ENDBRANCH  16  17
ENDBRANCH   4  16
ENDBRANCH   3   4
ENDBRANCH   2   3
BRANCH   2  20
HETATM   20  O4  UNL     1      18.483  30.780  17.006  1.00  0.00    -0.388 OA
ATOM     21  H4  UNL     1      18.276  29.861  16.877  1.00  0.00     0.210 HD
ENDBRANCH   2  20
ENDBRANCH   1   2
BRANCH   1  22
HETATM   22  C13 UNL     1      17.955  31.023  13.490  1.00  0.00     0.066 C 
BRANCH  22  23
HETATM   23  C14 UNL     1      17.882  29.573  13.208  1.00  0.00    -0.056 A 
HETATM   24  C15 UNL     1      17.690  29.161  11.884  1.00  0.00     0.007 A 
HETATM   25  C16 UNL     1      17.589  27.836  11.533  1.00  0.00     0.001 A 
HETATM   26  C17 UNL     1      17.676  26.860  12.481  1.00  0.00     0.000 A 
HETATM   27  C18 UNL     1      17.866  27.250  13.789  1.00  0.00     0.001 A 
HETATM   28  C19 UNL     1      17.968  28.593  14.145  1.00  0.00     0.007 A 
ENDBRANCH  22  23
ENDBRANCH   1  22
BRANCH   1  29
HETATM   29  N2  UNL     1      17.016  32.662  15.006  1.00  0.00    -0.351 N 
HETATM   30  C20 UNL     1      15.946  32.978  15.869  1.00  0.00     0.249 C 
HETATM   31  O5  UNL     1      15.502  32.069  16.615  1.00  0.00    -0.271 OA
ATOM     32  H2  UNL     1      17.359  33.409  14.402  1.00  0.00     0.163 HD
BRANCH  30  33
HETATM   33  C21 UNL     1      15.332  34.349  15.923  1.00  0.00     0.243 C 
HETATM   34  C22 UNL     1      16.395  35.412  15.849  1.00  0.00     0.177 C 
HETATM   35  N3  UNL     1      16.552  35.851  17.234  1.00  0.00    -0.291 N 
HETATM   36  C31 UNL     1      15.652  35.096  18.026  1.00  0.00     0.368 C 
HETATM   37  O7  UNL     1      15.696  34.918  19.279  1.00  0.00    -0.238 OA
HETATM   38  O8  UNL     1      14.708  34.591  17.144  1.00  0.00    -0.287 OA
BRANCH  35  39
HETATM   39  C23 UNL     1      17.465  36.862  17.654  1.00  0.00     0.039 A 
HETATM   40  C24 UNL     1      18.381  36.633  18.651  1.00  0.00     0.031 A 
HETATM   41  C25 UNL     1      19.263  37.611  19.051  1.00  0.00     0.017 A 
HETATM   42  C26 UNL     1      19.280  38.868  18.483  1.00  0.00     0.009 A 
HETATM   43  C29 UNL     1      18.346  39.077  17.480  1.00  0.00     0.017 A 
HETATM   44  C30 UNL     1      17.455  38.118  17.061  1.00  0.00     0.031 A 
BRANCH  42  45
HETATM   45  C27 UNL     1      20.208  39.904  18.898  1.00  0.00     0.155 C 
HETATM   46  C28 UNL     1      21.311  40.311  18.006  1.00  0.00     0.096 C 
HETATM   47  O6  UNL     1      20.081  40.458  20.008  1.00  0.00    -0.293 OA
ENDBRANCH  42  45
ENDBRANCH  35  39
ENDBRANCH  30  33
ENDBRANCH   1  29
TORSDOF 15
ENDMDL
