MODEL 8
REMARK VINA RESULT: -9.275706612      3.243     12.250
REMARK  15 active torsions:
REMARK  status: ('A' for Active; 'I' for Inactive)
REMARK    1  A    between atoms: O1_2  and  C2_3 
REMARK    2  A    between atoms: C5_6  and  S1_7 
REMARK    3  A    between atoms: S1_7  and  N1_10 
REMARK    4  A    between atoms: N1_10  and  C6_11 
REMARK    5  A    between atoms: N1_10  and  C10_15 
REMARK    6  A    between atoms: C6_11  and  C7_12 
REMARK    7  A    between atoms: C10_15  and  C11_16 
REMARK    8  A    between atoms: C11_16  and  O4_17 
REMARK    9  A    between atoms: C11_16  and  C12_19 
REMARK   10  A    between atoms: C12_19  and  C13_20 
REMARK   11  A    between atoms: C12_19  and  N2_27 
REMARK   12  A    between atoms: C13_20  and  C14_21 
REMARK       I    between atoms: N2_27  and  C20_29 
REMARK   13  A    between atoms: C20_29  and  C21_31 
REMARK   14  A    between atoms: N3_33  and  C23_34 
REMARK   15  A    between atoms: C26_37  and  C27_38 
ROOT
HETATM    1  C12 UNL     1      20.712  32.436  14.422  1.00  0.00     0.122 C 
ENDROOT
BRANCH   1   2
HETATM    2  C11 UNL     1      20.771  31.242  13.483  1.00  0.00     0.180 C 
BRANCH   2   3
HETATM    3  C10 UNL     1      20.090  30.070  14.107  1.00  0.00     0.115 C 
BRANCH   3   4
HETATM    4  N1  UNL     1      19.934  28.912  13.345  1.00  0.00    -0.263 N 
BRANCH   4   5
HETATM    5  S1  UNL     1      18.332  28.539  13.011  1.00  0.00     0.267 S 
HETATM    6  O2  UNL     1      17.638  29.806  12.526  1.00  0.00    -0.200 OA
HETATM    7  O3  UNL     1      17.562  28.100  14.228  1.00  0.00    -0.200 OA
BRANCH   5   8
HETATM    8  C5  UNL     1      18.099  27.335  11.763  1.00  0.00     0.080 A 
HETATM    9  C4  UNL     1      17.904  27.679  10.448  1.00  0.00     0.028 A 
HETATM   10  C3  UNL     1      17.718  26.716   9.489  1.00  0.00     0.038 A 
HETATM   11  C2  UNL     1      17.717  25.369   9.786  1.00  0.00     0.068 A 
HETATM   12  C33 UNL     1      17.916  25.041  11.124  1.00  0.00     0.038 A 
HETATM   13  C32 UNL     1      18.104  25.999  12.095  1.00  0.00     0.028 A 
BRANCH  11  14
HETATM   14  O1  UNL     1      17.529  24.367   8.835  1.00  0.00    -0.356 OA
HETATM   15  C1  UNL     1      17.128  24.807   7.535  1.00  0.00     0.210 C 
ENDBRANCH  11  14
ENDBRANCH   5   8
ENDBRANCH   4   5
BRANCH   4  16
HETATM   16  C6  UNL     1      20.912  27.929  13.252  1.00  0.00     0.085 C 
BRANCH  16  17
HETATM   17  C7  UNL     1      21.843  28.170  12.066  1.00  0.00     0.017 C 
HETATM   18  C8  UNL     1      23.295  27.983  12.493  1.00  0.00     0.015 C 
HETATM   19  C9  UNL     1      21.484  27.162  10.995  1.00  0.00     0.015 C 
ENDBRANCH  16  17
ENDBRANCH   4  16
ENDBRANCH   3   4
ENDBRANCH   2   3
BRANCH   2  20
HETATM   20  O4  UNL     1      20.064  31.598  12.339  1.00  0.00    -0.388 OA
ATOM     21  H4  UNL     1      20.686  31.735  11.635  1.00  0.00     0.210 HD
ENDBRANCH   2  20
ENDBRANCH   1   2
BRANCH   1  22
HETATM   22  C13 UNL     1      21.909  32.539  15.293  1.00  0.00     0.066 C 
BRANCH  22  23
HETATM   23  C14 UNL     1      21.810  33.580  16.339  1.00  0.00    -0.056 A 
HETATM   24  C15 UNL     1      21.403  34.865  15.963  1.00  0.00     0.007 A 
HETATM   25  C16 UNL     1      21.304  35.898  16.865  1.00  0.00     0.001 A 
HETATM   26  C17 UNL     1      21.603  35.700  18.180  1.00  0.00     0.000 A 
HETATM   27  C18 UNL     1      22.004  34.440  18.566  1.00  0.00     0.001 A 
HETATM   28  C19 UNL     1      22.106  33.393  17.652  1.00  0.00     0.007 A 
ENDBRANCH  22  23
ENDBRANCH   1  22
BRANCH   1  29
HETATM   29  N2  UNL     1      19.491  32.452  15.184  1.00  0.00    -0.351 N 
HETATM   30  C20 UNL     1      18.306  33.133  14.835  1.00  0.00     0.249 C 
HETATM   31  O5  UNL     1      18.300  33.799  13.770  1.00  0.00    -0.271 OA
ATOM     32  H2  UNL     1      19.481  31.922  16.056  1.00  0.00     0.163 HD
BRANCH  30  33
HETATM   33  C21 UNL     1      17.068  33.083  15.687  1.00  0.00     0.243 C 
HETATM   34  C22 UNL     1      16.390  34.425  15.720  1.00  0.00     0.177 C 
HETATM   35  N3  UNL     1      16.785  34.991  17.009  1.00  0.00    -0.291 N 
HETATM   36  C31 UNL     1      17.621  34.043  17.651  1.00  0.00     0.368 C 
HETATM   37  O7  UNL     1      18.431  34.255  18.601  1.00  0.00    -0.238 OA
HETATM   38  O8  UNL     1      17.367  32.833  17.024  1.00  0.00    -0.287 OA
BRANCH  35  39
HETATM   39  C23 UNL     1      16.374  36.270  17.482  1.00  0.00     0.039 A 
HETATM   40  C24 UNL     1      15.380  36.403  18.420  1.00  0.00     0.031 A 
HETATM   41  C25 UNL     1      14.989  37.641  18.878  1.00  0.00     0.017 A 
HETATM   42  C26 UNL     1      15.563  38.811  18.427  1.00  0.00     0.009 A 
HETATM   43  C29 UNL     1      16.564  38.653  17.480  1.00  0.00     0.017 A 
HETATM   44  C30 UNL     1      16.974  37.430  17.007  1.00  0.00     0.031 A 
BRANCH  42  45
HETATM   45  C27 UNL     1      15.158  40.119  18.906  1.00  0.00     0.155 C 
HETATM   46  C28 UNL     1      15.376  41.316  18.068  1.00  0.00     0.096 C 
HETATM   47  O6  UNL     1      14.622  40.245  20.025  1.00  0.00    -0.293 OA
ENDBRANCH  42  45
ENDBRANCH  35  39
ENDBRANCH  30  33
ENDBRANCH   1  29
TORSDOF 15
ENDMDL
