MODEL 5
REMARK VINA RESULT: -9.294110737      1.525      3.168
REMARK  3 active torsions:
REMARK  status: ('A' for Active; 'I' for Inactive)
REMARK    1  A    between atoms: O1_1  and  C1_3 
REMARK    2  A    between atoms: C4_6  and  C5_7 
REMARK    3  A    between atoms: C9_12  and  O3_13 
ROOT
HETATM    1  C5  UNL     1      76.301  37.950  69.647  1.00  0.00     0.166 C 
HETATM    2  O2  UNL     1      77.448  38.576  70.163  1.00  0.00    -0.340 OA
HETATM    3  C6  UNL     1      78.028  39.694  69.607  1.00  0.00     0.076 A 
HETATM    4  C7  UNL     1      79.057  40.370  70.270  1.00  0.00     0.040 A 
HETATM    5  C8  UNL     1      79.636  41.493  69.705  1.00  0.00     0.039 A 
HETATM    6  C9  UNL     1      79.225  41.971  68.493  1.00  0.00     0.066 A 
HETATM    7  C10 UNL     1      78.195  41.293  67.830  1.00  0.00     0.046 A 
HETATM    8  C11 UNL     1      77.618  40.175  68.393  1.00  0.00    -0.018 A 
HETATM    9  C12 UNL     1      76.542  39.498  67.660  1.00  0.00     0.028 C 
HETATM   10  C13 UNL     1      75.641  40.515  67.036  1.00  0.00     0.010 C 
HETATM   11  C14 UNL     1      74.257  40.300  67.570  1.00  0.00     0.001 C 
HETATM   12  C15 UNL     1      74.417  39.395  68.781  1.00  0.00     0.008 C 
HETATM   13  C16 UNL     1      75.688  38.593  68.458  1.00  0.00     0.028 C 
ENDROOT
BRANCH   1  14
HETATM   14  C4  UNL     1      75.329  37.687  70.760  1.00  0.00    -0.028 A 
HETATM   15  C3  UNL     1      75.286  38.448  71.911  1.00  0.00     0.012 A 
HETATM   16  C2  UNL     1      74.371  38.184  72.923  1.00  0.00     0.037 A 
HETATM   17  C1  UNL     1      73.467  37.151  72.821  1.00  0.00     0.065 A 
HETATM   18  C18 UNL     1      73.505  36.388  71.676  1.00  0.00     0.037 A 
HETATM   19  C17 UNL     1      74.414  36.654  70.675  1.00  0.00     0.012 A 
BRANCH  17  20
HETATM   20  O1  UNL     1      72.548  36.891  73.848  1.00  0.00    -0.361 OA
ATOM     21  H1  UNL     1      71.651  36.646  73.652  1.00  0.00     0.217 HD
ENDBRANCH  17  20
ENDBRANCH   1  14
BRANCH   6  22
HETATM   22  O3  UNL     1      79.828  43.099  67.955  1.00  0.00    -0.361 OA
ATOM     23  H3  UNL     1      79.342  43.653  67.355  1.00  0.00     0.217 HD
ENDBRANCH   6  22
TORSDOF 3
ENDMDL
