MODEL 7
REMARK VINA RESULT: -6.326878374      2.069      6.109
REMARK  3 active torsions:
REMARK  status: ('A' for Active; 'I' for Inactive)
REMARK    1  A    between atoms: O1_1  and  C1_3 
REMARK    2  A    between atoms: C4_6  and  C5_7 
REMARK    3  A    between atoms: C9_12  and  O3_13 
ROOT
HETATM    1  C5  UNL     1      76.286  40.863  70.693  1.00  0.00     0.166 C 
HETATM    2  O2  UNL     1      75.790  39.887  71.573  1.00  0.00    -0.340 OA
HETATM    3  C6  UNL     1      75.125  38.752  71.166  1.00  0.00     0.076 A 
HETATM    4  C7  UNL     1      74.817  37.738  72.077  1.00  0.00     0.040 A 
HETATM    5  C8  UNL     1      74.148  36.600  71.660  1.00  0.00     0.039 A 
HETATM    6  C9  UNL     1      73.770  36.435  70.358  1.00  0.00     0.066 A 
HETATM    7  C10 UNL     1      74.080  37.451  69.446  1.00  0.00     0.046 A 
HETATM    8  C11 UNL     1      74.746  38.584  69.861  1.00  0.00    -0.018 A 
HETATM    9  C12 UNL     1      75.047  39.622  68.869  1.00  0.00     0.028 C 
HETATM   10  C13 UNL     1      75.478  38.984  67.587  1.00  0.00     0.010 C 
HETATM   11  C14 UNL     1      76.857  39.472  67.265  1.00  0.00     0.001 C 
HETATM   12  C15 UNL     1      77.379  40.111  68.542  1.00  0.00     0.008 C 
HETATM   13  C16 UNL     1      76.099  40.590  69.247  1.00  0.00     0.028 C 
ENDROOT
BRANCH   1  14
HETATM   14  C4  UNL     1      77.700  41.203  71.066  1.00  0.00    -0.028 A 
HETATM   15  C3  UNL     1      78.327  42.359  70.646  1.00  0.00     0.012 A 
HETATM   16  C2  UNL     1      79.635  42.649  71.011  1.00  0.00     0.037 A 
HETATM   17  C1  UNL     1      80.365  41.795  71.808  1.00  0.00     0.065 A 
HETATM   18  C18 UNL     1      79.745  40.640  72.229  1.00  0.00     0.037 A 
HETATM   19  C17 UNL     1      78.446  40.357  71.864  1.00  0.00     0.012 A 
BRANCH  17  20
HETATM   20  O1  UNL     1      81.685  42.096  72.171  1.00  0.00    -0.361 OA
ATOM     21  H1  UNL     1      81.889  42.452  73.028  1.00  0.00     0.217 HD
ENDBRANCH  17  20
ENDBRANCH   1  14
BRANCH   6  22
HETATM   22  O3  UNL     1      73.101  35.282  69.974  1.00  0.00    -0.361 OA
ATOM     23  H3  UNL     1      73.586  34.476  69.844  1.00  0.00     0.217 HD
ENDBRANCH   6  22
TORSDOF 3
ENDMDL
