MODEL 3
REMARK VINA RESULT: -10.143359317      1.724      3.189
REMARK  3 active torsions:
REMARK  status: ('A' for Active; 'I' for Inactive)
REMARK    1  A    between atoms: O1_1  and  C1_3 
REMARK    2  A    between atoms: C4_6  and  C5_7 
REMARK    3  A    between atoms: C9_12  and  O3_13 
ROOT
HETATM    1  C5  UNL     1      76.563  38.272  69.715  1.00  0.00     0.166 C 
HETATM    2  O2  UNL     1      77.568  38.693  70.602  1.00  0.00    -0.340 OA
HETATM    3  C6  UNL     1      78.124  39.952  70.591  1.00  0.00     0.076 A 
HETATM    4  C7  UNL     1      78.988  40.361  71.612  1.00  0.00     0.040 A 
HETATM    5  C8  UNL     1      79.543  41.629  71.594  1.00  0.00     0.039 A 
HETATM    6  C9  UNL     1      79.269  42.511  70.588  1.00  0.00     0.066 A 
HETATM    7  C10 UNL     1      78.404  42.100  69.567  1.00  0.00     0.046 A 
HETATM    8  C11 UNL     1      77.850  40.838  69.585  1.00  0.00    -0.018 A 
HETATM    9  C12 UNL     1      76.950  40.453  68.492  1.00  0.00     0.028 C 
HETATM   10  C13 UNL     1      76.063  41.604  68.140  1.00  0.00     0.010 C 
HETATM   11  C14 UNL     1      74.642  41.169  68.328  1.00  0.00     0.001 C 
HETATM   12  C15 UNL     1      74.705  39.885  69.138  1.00  0.00     0.008 C 
HETATM   13  C16 UNL     1      76.072  39.293  68.758  1.00  0.00     0.028 C 
ENDROOT
BRANCH   1  14
HETATM   14  C4  UNL     1      75.469  37.589  70.483  1.00  0.00    -0.028 A 
HETATM   15  C3  UNL     1      74.531  36.774  69.883  1.00  0.00     0.012 A 
HETATM   16  C2  UNL     1      73.532  36.151  70.621  1.00  0.00     0.037 A 
HETATM   17  C1  UNL     1      73.434  36.320  71.983  1.00  0.00     0.065 A 
HETATM   18  C18 UNL     1      74.367  37.132  72.588  1.00  0.00     0.037 A 
HETATM   19  C17 UNL     1      75.357  37.747  71.851  1.00  0.00     0.012 A 
BRANCH  17  20
HETATM   20  O1  UNL     1      72.422  35.687  72.720  1.00  0.00    -0.361 OA
ATOM     21  H1  UNL     1      72.621  34.969  73.310  1.00  0.00     0.217 HD
ENDBRANCH  17  20
ENDBRANCH   1  14
BRANCH   6  22
HETATM   22  O3  UNL     1      79.844  43.773  70.601  1.00  0.00    -0.361 OA
ATOM     23  H3  UNL     1      79.617  44.389  71.288  1.00  0.00     0.217 HD
ENDBRANCH   6  22
TORSDOF 3
ENDMDL
