MODEL 8
REMARK VINA RESULT: -6.038806957      1.521      6.651
REMARK  3 active torsions:
REMARK  status: ('A' for Active; 'I' for Inactive)
REMARK    1  A    between atoms: O1_1  and  C1_3 
REMARK    2  A    between atoms: C4_6  and  C5_7 
REMARK    3  A    between atoms: C9_12  and  O3_13 
ROOT
HETATM    1  C5  UNL     1      75.621  40.832  69.835  1.00  0.00     0.166 C 
HETATM    2  O2  UNL     1      75.863  40.370  71.140  1.00  0.00    -0.340 OA
HETATM    3  C6  UNL     1      75.422  39.158  71.619  1.00  0.00     0.076 A 
HETATM    4  C7  UNL     1      75.848  38.683  72.863  1.00  0.00     0.040 A 
HETATM    5  C8  UNL     1      75.401  37.462  73.339  1.00  0.00     0.039 A 
HETATM    6  C9  UNL     1      74.536  36.691  72.615  1.00  0.00     0.066 A 
HETATM    7  C10 UNL     1      74.111  37.167  71.370  1.00  0.00     0.046 A 
HETATM    8  C11 UNL     1      74.556  38.383  70.895  1.00  0.00    -0.018 A 
HETATM    9  C12 UNL     1      74.082  38.840  69.585  1.00  0.00     0.028 C 
HETATM   10  C13 UNL     1      74.041  37.687  68.633  1.00  0.00     0.010 C 
HETATM   11  C14 UNL     1      74.934  38.009  67.475  1.00  0.00     0.001 C 
HETATM   12  C15 UNL     1      75.781  39.190  67.921  1.00  0.00     0.008 C 
HETATM   13  C16 UNL     1      74.883  39.904  68.943  1.00  0.00     0.028 C 
ENDROOT
BRANCH   1  14
HETATM   14  C4  UNL     1      76.899  41.351  69.241  1.00  0.00    -0.028 A 
HETATM   15  C3  UNL     1      78.119  41.238  69.877  1.00  0.00     0.012 A 
HETATM   16  C2  UNL     1      79.286  41.724  69.301  1.00  0.00     0.037 A 
HETATM   17  C1  UNL     1      79.276  42.340  68.070  1.00  0.00     0.065 A 
HETATM   18  C18 UNL     1      78.063  42.456  67.431  1.00  0.00     0.037 A 
HETATM   19  C17 UNL     1      76.907  41.971  68.007  1.00  0.00     0.012 A 
BRANCH  17  20
HETATM   20  O1  UNL     1      80.459  42.827  67.496  1.00  0.00    -0.361 OA
ATOM     21  H1  UNL     1      80.728  42.559  66.625  1.00  0.00     0.217 HD
ENDBRANCH  17  20
ENDBRANCH   1  14
BRANCH   6  22
HETATM   22  O3  UNL     1      74.107  35.474  73.122  1.00  0.00    -0.361 OA
ATOM     23  H3  UNL     1      74.139  34.697  72.576  1.00  0.00     0.217 HD
ENDBRANCH   6  22
TORSDOF 3
ENDMDL
