MODEL 4
REMARK VINA RESULT: -10.113162961      1.720      3.321
REMARK  3 active torsions:
REMARK  status: ('A' for Active; 'I' for Inactive)
REMARK    1  A    between atoms: O1_1  and  C1_3 
REMARK    2  A    between atoms: C4_6  and  C5_7 
REMARK    3  A    between atoms: C9_12  and  O3_13 
ROOT
HETATM    1  C5  UNL     1      76.581  38.267  69.777  1.00  0.00     0.166 C 
HETATM    2  O2  UNL     1      77.589  38.700  70.655  1.00  0.00    -0.340 OA
HETATM    3  C6  UNL     1      78.146  39.959  70.626  1.00  0.00     0.076 A 
HETATM    4  C7  UNL     1      79.013  40.381  71.637  1.00  0.00     0.040 A 
HETATM    5  C8  UNL     1      79.568  41.649  71.601  1.00  0.00     0.039 A 
HETATM    6  C9  UNL     1      79.290  42.518  70.585  1.00  0.00     0.066 A 
HETATM    7  C10 UNL     1      78.421  42.094  69.573  1.00  0.00     0.046 A 
HETATM    8  C11 UNL     1      77.867  40.831  69.609  1.00  0.00    -0.018 A 
HETATM    9  C12 UNL     1      76.963  40.433  68.525  1.00  0.00     0.028 C 
HETATM   10  C13 UNL     1      76.074  41.579  68.162  1.00  0.00     0.010 C 
HETATM   11  C14 UNL     1      74.654  41.147  68.361  1.00  0.00     0.001 C 
HETATM   12  C15 UNL     1      74.721  39.873  69.187  1.00  0.00     0.008 C 
HETATM   13  C16 UNL     1      76.086  39.277  68.809  1.00  0.00     0.028 C 
ENDROOT
BRANCH   1  14
HETATM   14  C4  UNL     1      75.490  37.594  70.558  1.00  0.00    -0.028 A 
HETATM   15  C3  UNL     1      75.332  37.764  71.919  1.00  0.00     0.012 A 
HETATM   16  C2  UNL     1      74.309  37.131  72.615  1.00  0.00     0.037 A 
HETATM   17  C1  UNL     1      73.409  36.307  71.978  1.00  0.00     0.065 A 
HETATM   18  C18 UNL     1      73.562  36.134  70.621  1.00  0.00     0.037 A 
HETATM   19  C17 UNL     1      74.578  36.764  69.934  1.00  0.00     0.012 A 
BRANCH  17  20
HETATM   20  O1  UNL     1      72.380  35.673  72.688  1.00  0.00    -0.361 OA
ATOM     21  H1  UNL     1      71.481  35.971  72.620  1.00  0.00     0.217 HD
ENDBRANCH  17  20
ENDBRANCH   1  14
BRANCH   6  22
HETATM   22  O3  UNL     1      79.864  43.780  70.579  1.00  0.00    -0.361 OA
ATOM     23  H3  UNL     1      80.728  43.908  70.952  1.00  0.00     0.217 HD
ENDBRANCH   6  22
TORSDOF 3
ENDMDL
