MODEL 6
REMARK VINA RESULT: -7.568433661      2.177      6.329
REMARK  3 active torsions:
REMARK  status: ('A' for Active; 'I' for Inactive)
REMARK    1  A    between atoms: O1_1  and  C1_3 
REMARK    2  A    between atoms: C4_6  and  C5_7 
REMARK    3  A    between atoms: C9_12  and  O3_13 
ROOT
HETATM    1  C5  UNL     1      76.207  38.171  68.786  1.00  0.00     0.166 C 
HETATM    2  O2  UNL     1      75.095  37.323  68.929  1.00  0.00    -0.340 OA
HETATM    3  C6  UNL     1      74.570  36.944  70.144  1.00  0.00     0.076 A 
HETATM    4  C7  UNL     1      73.361  36.247  70.214  1.00  0.00     0.040 A 
HETATM    5  C8  UNL     1      72.838  35.869  71.439  1.00  0.00     0.039 A 
HETATM    6  C9  UNL     1      73.483  36.161  72.607  1.00  0.00     0.066 A 
HETATM    7  C10 UNL     1      74.694  36.860  72.536  1.00  0.00     0.046 A 
HETATM    8  C11 UNL     1      75.214  37.237  71.316  1.00  0.00    -0.018 A 
HETATM    9  C12 UNL     1      76.486  37.966  71.293  1.00  0.00     0.028 C 
HETATM   10  C13 UNL     1      76.517  38.963  72.407  1.00  0.00     0.010 C 
HETATM   11  C14 UNL     1      76.701  40.324  71.808  1.00  0.00     0.001 C 
HETATM   12  C15 UNL     1      76.413  40.166  70.324  1.00  0.00     0.008 C 
HETATM   13  C16 UNL     1      76.786  38.701  70.045  1.00  0.00     0.028 C 
ENDROOT
BRANCH   1  14
HETATM   14  C4  UNL     1      75.901  39.232  67.769  1.00  0.00    -0.028 A 
HETATM   15  C3  UNL     1      76.877  39.839  67.005  1.00  0.00     0.012 A 
HETATM   16  C2  UNL     1      76.563  40.815  66.068  1.00  0.00     0.037 A 
HETATM   17  C1  UNL     1      75.264  41.219  65.859  1.00  0.00     0.065 A 
HETATM   18  C18 UNL     1      74.286  40.617  66.618  1.00  0.00     0.037 A 
HETATM   19  C17 UNL     1      74.602  39.648  67.546  1.00  0.00     0.012 A 
BRANCH  17  20
HETATM   20  O1  UNL     1      74.957  42.205  64.910  1.00  0.00    -0.361 OA
ATOM     21  H1  UNL     1      74.353  42.910  65.114  1.00  0.00     0.217 HD
ENDBRANCH  17  20
ENDBRANCH   1  14
BRANCH   6  22
HETATM   22  O3  UNL     1      72.932  35.767  73.817  1.00  0.00    -0.361 OA
ATOM     23  H3  UNL     1      73.494  35.426  74.503  1.00  0.00     0.217 HD
ENDBRANCH   6  22
TORSDOF 3
ENDMDL
