MODEL 5
REMARK VINA RESULT: -6.766405566      1.180      3.189
REMARK  5 active torsions:
REMARK  status: ('A' for Active; 'I' for Inactive)
REMARK    1  A    between atoms: P1_2  and  C1_5 
REMARK    2  A    between atoms: C1_5  and  C2_6 
REMARK    3  A    between atoms: C1_5  and  P2_16 
REMARK    4  A    between atoms: C2_6  and  N1_7 
REMARK    5  A    between atoms: N1_7  and  C3_9 
ROOT
HETATM    1  C2  UNL     1      17.396  44.396  47.487  1.00  0.00     0.154 C 
ENDROOT
BRANCH   1   2
HETATM    2  C1  UNL     1      16.901  45.620  48.262  1.00  0.00     0.263 C 
BRANCH   2   3
HETATM    3  P1  UNL     1      17.342  45.545  49.982  1.00  0.00     0.279 P 
HETATM    4  O1  UNL     1      16.869  46.858  50.920  1.00  0.00    -0.639 OA
HETATM    5  O2  UNL     1      16.064  44.838  50.480  1.00  0.00    -0.639 OA
HETATM    6  O3  UNL     1      18.269  44.315  50.499  1.00  0.00    -0.639 OA
ENDBRANCH   2   3
BRANCH   2   7
HETATM    7  P2  UNL     1      17.463  47.042  47.580  1.00  0.00     0.279 P 
HETATM    8  O4  UNL     1      16.152  47.049  46.600  1.00  0.00    -0.639 OA
HETATM    9  O5  UNL     1      18.827  46.209  47.068  1.00  0.00    -0.639 OA
HETATM   10  O6  UNL     1      18.099  48.258  46.903  1.00  0.00    -0.639 OA
ENDBRANCH   2   7
ENDBRANCH   1   2
BRANCH   1  11
HETATM   11  N1  UNL     1      16.868  44.256  46.177  1.00  0.00    -0.375 N 
ATOM     12  H1  UNL     1      17.323  44.691  45.374  1.00  0.00     0.161 HD
BRANCH  11  13
HETATM   13  C3  UNL     1      15.685  43.488  46.028  1.00  0.00     0.100 A 
HETATM   14  C4  UNL     1      14.520  44.073  45.607  1.00  0.00     0.048 A 
HETATM   15  C5  UNL     1      13.334  43.356  45.447  1.00  0.00     0.005 A 
HETATM   16  C6  UNL     1      13.372  42.015  45.731  1.00  0.00     0.017 A 
HETATM   17  C7  UNL     1      14.545  41.427  46.154  1.00  0.00     0.089 A 
HETATM   18  N2  UNL     1      15.675  42.174  46.294  1.00  0.00    -0.353 N 
ATOM     19  H2  UNL     1      16.534  41.724  46.609  1.00  0.00     0.166 HD
ENDBRANCH  11  13
ENDBRANCH   1  11
TORSDOF 5
ENDMDL
