MODEL 2
REMARK VINA RESULT: -6.846289661      0.740      2.929
REMARK  5 active torsions:
REMARK  status: ('A' for Active; 'I' for Inactive)
REMARK    1  A    between atoms: P1_2  and  C1_5 
REMARK    2  A    between atoms: C1_5  and  C2_6 
REMARK    3  A    between atoms: C1_5  and  P2_16 
REMARK    4  A    between atoms: C2_6  and  N1_7 
REMARK    5  A    between atoms: N1_7  and  C3_9 
ROOT
HETATM    1  C2  UNL     1      17.101  44.346  47.509  1.00  0.00     0.154 C 
ENDROOT
BRANCH   1   2
HETATM    2  C1  UNL     1      16.687  45.592  48.295  1.00  0.00     0.263 C 
BRANCH   2   3
HETATM    3  P1  UNL     1      17.302  45.566  49.963  1.00  0.00     0.279 P 
HETATM    4  O1  UNL     1      16.871  46.877  50.925  1.00  0.00    -0.639 OA
HETATM    5  O2  UNL     1      16.111  44.817  50.598  1.00  0.00    -0.639 OA
HETATM    6  O3  UNL     1      18.327  44.385  50.400  1.00  0.00    -0.639 OA
ENDBRANCH   2   3
BRANCH   2   7
HETATM    7  P2  UNL     1      17.174  46.993  47.518  1.00  0.00     0.279 P 
HETATM    8  O4  UNL     1      15.956  46.780  46.446  1.00  0.00    -0.639 OA
HETATM    9  O5  UNL     1      18.646  46.254  47.198  1.00  0.00    -0.639 OA
HETATM   10  O6  UNL     1      17.753  48.197  46.772  1.00  0.00    -0.639 OA
ENDBRANCH   2   7
ENDBRANCH   1   2
BRANCH   1  11
HETATM   11  N1  UNL     1      16.279  43.206  47.705  1.00  0.00    -0.375 N 
ATOM     12  H1  UNL     1      16.421  42.581  48.498  1.00  0.00     0.161 HD
BRANCH  11  13
HETATM   13  C3  UNL     1      15.252  42.971  46.755  1.00  0.00     0.100 A 
HETATM   14  C4  UNL     1      15.121  41.745  46.155  1.00  0.00     0.048 A 
HETATM   15  C5  UNL     1      14.127  41.471  45.217  1.00  0.00     0.005 A 
HETATM   16  C6  UNL     1      13.263  42.489  44.905  1.00  0.00     0.017 A 
HETATM   17  C7  UNL     1      13.395  43.722  45.510  1.00  0.00     0.089 A 
HETATM   18  N2  UNL     1      14.385  43.937  46.420  1.00  0.00    -0.353 N 
ATOM     19  H2  UNL     1      14.469  44.854  46.857  1.00  0.00     0.166 HD
ENDBRANCH  11  13
ENDBRANCH   1  11
TORSDOF 5
ENDMDL
