MODEL 1
REMARK VINA RESULT: -7.111306859      0.000      0.000
REMARK  5 active torsions:
REMARK  status: ('A' for Active; 'I' for Inactive)
REMARK    1  A    between atoms: P1_2  and  C1_5 
REMARK    2  A    between atoms: C1_5  and  C2_6 
REMARK    3  A    between atoms: C1_5  and  P2_16 
REMARK    4  A    between atoms: C2_6  and  N1_7 
REMARK    5  A    between atoms: N1_7  and  C3_9 
ROOT
HETATM    1  C2  UNL     1      17.347  44.358  47.742  1.00  0.00     0.154 C 
ENDROOT
BRANCH   1   2
HETATM    2  C1  UNL     1      17.461  45.654  48.551  1.00  0.00     0.263 C 
BRANCH   2   3
HETATM    3  P1  UNL     1      16.648  47.016  47.749  1.00  0.00     0.279 P 
HETATM    4  O1  UNL     1      17.656  48.144  47.015  1.00  0.00    -0.639 OA
HETATM    5  O2  UNL     1      16.504  46.365  46.358  1.00  0.00    -0.639 OA
HETATM    6  O3  UNL     1      15.037  47.158  47.892  1.00  0.00    -0.639 OA
ENDBRANCH   2   3
BRANCH   2   7
HETATM    7  P2  UNL     1      16.869  45.456  50.105  1.00  0.00     0.279 P 
HETATM    8  O4  UNL     1      17.122  47.052  50.367  1.00  0.00    -0.639 OA
HETATM    9  O5  UNL     1      18.134  44.396  50.408  1.00  0.00    -0.639 OA
HETATM   10  O6  UNL     1      16.452  45.183  51.552  1.00  0.00    -0.639 OA
ENDBRANCH   2   7
ENDBRANCH   1   2
BRANCH   1  11
HETATM   11  N1  UNL     1      16.245  43.532  48.078  1.00  0.00    -0.375 N 
ATOM     12  H1  UNL     1      16.146  43.133  49.012  1.00  0.00     0.161 HD
BRANCH  11  13
HETATM   13  C3  UNL     1      15.284  43.280  47.065  1.00  0.00     0.100 A 
HETATM   14  C4  UNL     1      15.233  42.064  46.435  1.00  0.00     0.048 A 
HETATM   15  C5  UNL     1      14.305  41.775  45.434  1.00  0.00     0.005 A 
HETATM   16  C6  UNL     1      13.425  42.768  45.092  1.00  0.00     0.017 A 
HETATM   17  C7  UNL     1      13.478  43.992  45.726  1.00  0.00     0.089 A 
HETATM   18  N2  UNL     1      14.404  44.222  46.697  1.00  0.00    -0.353 N 
ATOM     19  H2  UNL     1      14.429  45.133  47.155  1.00  0.00     0.166 HD
ENDBRANCH  11  13
ENDBRANCH   1  11
TORSDOF 5
ENDMDL
