MODEL 2
REMARK VINA RESULT: -8.862519518      0.672      8.440
REMARK  11 active torsions:
REMARK  status: ('A' for Active; 'I' for Inactive)
REMARK    1  A    between atoms: N5_13  and  C6_14 
REMARK    2  A    between atoms: C7_16  and  C8_17 
REMARK    3  A    between atoms: C8_17  and  S1_18 
REMARK    4  A    between atoms: S1_18  and  S2_19 
REMARK    5  A    between atoms: S2_19  and  C9_20 
REMARK    6  A    between atoms: C9_20  and  C10_21 
REMARK    7  A    between atoms: C11_23  and  N6_24 
REMARK    8  A    between atoms: C17_37  and  O3_38 
REMARK    9  A    between atoms: C18_40  and  O4_41 
REMARK   10  A    between atoms: C19_43  and  O5_44 
REMARK   11  A    between atoms: C20_46  and  O6_47 
ROOT
HETATM    1  S1  UNL     1      13.081   5.356  10.400  1.00  0.00    -0.095 SA
ENDROOT
BRANCH   1   2
HETATM    2  C8  UNL     1      14.739   4.562  10.361  1.00  0.00     0.120 C 
BRANCH   2   3
HETATM    3  C7  UNL     1      15.276   4.773   8.982  1.00  0.00     0.165 C 
HETATM    4  O1  UNL     1      15.953   5.970   8.804  1.00  0.00    -0.355 OA
HETATM    5  C6  UNL     1      16.846   5.814   7.780  1.00  0.00     0.262 C 
HETATM    6  C20 UNL     1      16.718   4.407   7.223  1.00  0.00     0.198 C 
HETATM    7  C19 UNL     1      16.200   3.696   8.484  1.00  0.00     0.180 C 
BRANCH   5   8
HETATM    8  N5  UNL     1      18.202   5.887   8.318  1.00  0.00    -0.297 N 
HETATM    9  C3  UNL     1      18.639   6.593   9.374  1.00  0.00     0.142 A 
HETATM   10  N3  UNL     1      18.054   7.424  10.254  1.00  0.00    -0.336 N 
HETATM   11  C4  UNL     1      19.997   6.373   9.541  1.00  0.00     0.119 A 
HETATM   12  C2  UNL     1      18.765   8.002  11.238  1.00  0.00     0.183 A 
ATOM     13  H3  UNL     1      17.056   7.619  10.174  1.00  0.00     0.168 HD
HETATM   14  N2  UNL     1      20.087   7.797  11.412  1.00  0.00    -0.339 N 
HETATM   15  C1  UNL     1      20.724   6.977  10.564  1.00  0.00     0.148 A 
ATOM     16  H2  UNL     1      20.591   8.256  12.171  1.00  0.00     0.167 HD
HETATM   17  N1  UNL     1      22.103   6.673  10.637  1.00  0.00    -0.080 NA
HETATM   18  N4  UNL     1      20.368   5.522   8.566  1.00  0.00    -0.346 N 
HETATM   19  C5  UNL     1      19.289   5.224   7.824  1.00  0.00     0.188 A 
ATOM     20  H4  UNL     1      21.312   5.164   8.416  1.00  0.00     0.167 HD
ENDBRANCH   5   8
BRANCH   6  21
HETATM   21  O6  UNL     1      15.716   4.391   6.263  1.00  0.00    -0.388 OA
ATOM     22  H6  UNL     1      15.485   3.490   6.072  1.00  0.00     0.210 HD
ENDBRANCH   6  21
BRANCH   7  23
HETATM   23  O5  UNL     1      15.554   2.519   8.154  1.00  0.00    -0.390 OA
ATOM     24  H5  UNL     1      15.983   1.741   8.489  1.00  0.00     0.210 HD
ENDBRANCH   7  23
ENDBRANCH   2   3
ENDBRANCH   1   2
BRANCH   1  25
HETATM   25  S2  UNL     1      12.045   4.595   8.672  1.00  0.00    -0.095 SA
BRANCH  25  26
HETATM   26  C9  UNL     1      11.103   5.985   7.946  1.00  0.00     0.120 C 
BRANCH  26  27
HETATM   27  C10 UNL     1      11.984   6.692   6.977  1.00  0.00     0.165 C 
HETATM   28  O2  UNL     1      13.055   5.931   6.538  1.00  0.00    -0.355 OA
HETATM   29  C11 UNL     1      13.043   5.939   5.139  1.00  0.00     0.262 C 
HETATM   30  C17 UNL     1      12.426   7.279   4.766  1.00  0.00     0.198 C 
HETATM   31  C18 UNL     1      11.285   7.290   5.794  1.00  0.00     0.180 C 
BRANCH  29  32
HETATM   32  N6  UNL     1      12.192   4.842   4.744  1.00  0.00    -0.297 N 
HETATM   33  C12 UNL     1      11.091   4.911   3.934  1.00  0.00     0.188 A 
HETATM   34  N7  UNL     1      10.548   3.693   3.786  1.00  0.00    -0.346 N 
HETATM   35  C13 UNL     1      11.287   2.812   4.500  1.00  0.00     0.119 A 
ATOM     36  H7  UNL     1       9.722   3.470   3.232  1.00  0.00     0.167 HD
HETATM   37  C14 UNL     1      11.204   1.458   4.716  1.00  0.00     0.148 A 
HETATM   38  C16 UNL     1      12.298   3.536   5.086  1.00  0.00     0.142 A 
HETATM   39  N8  UNL     1      10.148   0.725   4.097  1.00  0.00    -0.080 NA
HETATM   40  N9  UNL     1      12.097   0.837   5.491  1.00  0.00    -0.339 N 
HETATM   41  C15 UNL     1      13.081   1.572   6.056  1.00  0.00     0.183 A 
ATOM     42  H9  UNL     1      12.038  -0.169   5.652  1.00  0.00     0.167 HD
HETATM   43  N10 UNL     1      13.176   2.891   5.855  1.00  0.00    -0.336 N 
ATOM     44  H10 UNL     1      13.934   3.412   6.298  1.00  0.00     0.168 HD
ENDBRANCH  29  32
BRANCH  30  45
HETATM   45  O3  UNL     1      13.291   8.314   5.121  1.00  0.00    -0.388 OA
ATOM     46  H3  UNL     1      13.823   8.560   4.373  1.00  0.00     0.210 HD
ENDBRANCH  30  45
BRANCH  31  47
HETATM   47  O4  UNL     1      10.816   8.570   6.002  1.00  0.00    -0.390 OA
ATOM     48  H4  UNL     1       9.889   8.616   6.204  1.00  0.00     0.210 HD
ENDBRANCH  31  47
ENDBRANCH  26  27
ENDBRANCH  25  26
ENDBRANCH   1  25
TORSDOF 11
ENDMDL
