MODEL 1
REMARK VINA RESULT: -8.921501750      0.000      0.000
REMARK  11 active torsions:
REMARK  status: ('A' for Active; 'I' for Inactive)
REMARK    1  A    between atoms: N5_13  and  C6_14 
REMARK    2  A    between atoms: C7_16  and  C8_17 
REMARK    3  A    between atoms: C8_17  and  S1_18 
REMARK    4  A    between atoms: S1_18  and  S2_19 
REMARK    5  A    between atoms: S2_19  and  C9_20 
REMARK    6  A    between atoms: C9_20  and  C10_21 
REMARK    7  A    between atoms: C11_23  and  N6_24 
REMARK    8  A    between atoms: C17_37  and  O3_38 
REMARK    9  A    between atoms: C18_40  and  O4_41 
REMARK   10  A    between atoms: C19_43  and  O5_44 
REMARK   11  A    between atoms: C20_46  and  O6_47 
ROOT
HETATM    1  S1  UNL     1      12.840   5.067   9.091  1.00  0.00    -0.095 SA
ENDROOT
BRANCH   1   2
HETATM    2  C8  UNL     1      12.439   6.824   8.725  1.00  0.00     0.120 C 
BRANCH   2   3
HETATM    3  C7  UNL     1      12.795   7.049   7.292  1.00  0.00     0.165 C 
HETATM    4  O1  UNL     1      13.463   5.993   6.691  1.00  0.00    -0.355 OA
HETATM    5  C6  UNL     1      13.228   6.042   5.344  1.00  0.00     0.262 C 
HETATM    6  C20 UNL     1      12.361   7.250   5.038  1.00  0.00     0.198 C 
HETATM    7  C19 UNL     1      11.636   7.374   6.389  1.00  0.00     0.180 C 
BRANCH   5   8
HETATM    8  N5  UNL     1      12.420   4.887   4.961  1.00  0.00    -0.297 N 
HETATM    9  C3  UNL     1      12.548   3.613   5.367  1.00  0.00     0.142 A 
HETATM   10  N3  UNL     1      13.388   2.974   6.199  1.00  0.00    -0.336 N 
HETATM   11  C4  UNL     1      11.570   2.840   4.762  1.00  0.00     0.119 A 
HETATM   12  C2  UNL     1      13.270   1.652   6.420  1.00  0.00     0.183 A 
ATOM     13  H3  UNL     1      14.125   3.498   6.670  1.00  0.00     0.168 HD
HETATM   14  N2  UNL     1      12.324   0.887   5.838  1.00  0.00    -0.339 N 
HETATM   15  C1  UNL     1      11.458   1.472   4.998  1.00  0.00     0.148 A 
ATOM     16  H2  UNL     1      12.269  -0.112   6.031  1.00  0.00     0.167 HD
HETATM   17  N1  UNL     1      10.418   0.788   4.327  1.00  0.00    -0.080 NA
HETATM   18  N4  UNL     1      10.853   3.672   3.984  1.00  0.00    -0.346 N 
HETATM   19  C5  UNL     1      11.360   4.910   4.100  1.00  0.00     0.188 A 
ATOM     20  H4  UNL     1      10.057   3.406   3.404  1.00  0.00     0.167 HD
ENDBRANCH   5   8
BRANCH   6  21
HETATM   21  O6  UNL     1      13.176   8.360   4.869  1.00  0.00    -0.388 OA
ATOM     22  H6  UNL     1      12.655   9.147   4.983  1.00  0.00     0.210 HD
ENDBRANCH   6  21
BRANCH   7  23
HETATM   23  O5  UNL     1      11.138   8.652   6.563  1.00  0.00    -0.390 OA
ATOM     24  H5  UNL     1      11.413   9.264   5.891  1.00  0.00     0.210 HD
ENDBRANCH   7  23
ENDBRANCH   2   3
ENDBRANCH   1   2
BRANCH   1  25
HETATM   25  S2  UNL     1      14.005   5.116  10.903  1.00  0.00    -0.095 SA
BRANCH  25  26
HETATM   26  C9  UNL     1      15.767   5.031  10.418  1.00  0.00     0.120 C 
BRANCH  26  27
HETATM   27  C10 UNL     1      15.842   4.984   8.933  1.00  0.00     0.165 C 
HETATM   28  O2  UNL     1      16.188   6.194   8.353  1.00  0.00    -0.355 OA
HETATM   29  C11 UNL     1      17.278   5.967   7.505  1.00  0.00     0.262 C 
HETATM   30  C17 UNL     1      17.104   4.532   7.027  1.00  0.00     0.198 C 
HETATM   31  C18 UNL     1      16.709   3.900   8.369  1.00  0.00     0.180 C 
BRANCH  29  32
HETATM   32  N6  UNL     1      18.455   6.106   8.330  1.00  0.00    -0.297 N 
HETATM   33  C12 UNL     1      19.612   5.381   8.232  1.00  0.00     0.188 A 
HETATM   34  N7  UNL     1      20.491   5.784   9.163  1.00  0.00    -0.346 N 
HETATM   35  C13 UNL     1      19.918   6.777   9.882  1.00  0.00     0.119 A 
ATOM     36  H7  UNL     1      21.427   5.407   9.304  1.00  0.00     0.167 HD
HETATM   37  C14 UNL     1      20.336   7.548  10.940  1.00  0.00     0.148 A 
HETATM   38  C16 UNL     1      18.662   6.964   9.356  1.00  0.00     0.142 A 
HETATM   39  N8  UNL     1      21.645   7.337  11.469  1.00  0.00    -0.080 NA
HETATM   40  N9  UNL     1      19.535   8.478  11.463  1.00  0.00    -0.339 N 
HETATM   41  C15 UNL     1      18.304   8.641  10.927  1.00  0.00     0.183 A 
ATOM     42  H9  UNL     1      19.843   9.052  12.247  1.00  0.00     0.167 HD
HETATM   43  N10 UNL     1      17.880   7.900   9.898  1.00  0.00    -0.336 N 
ATOM     44  H10 UNL     1      16.945   8.053   9.520  1.00  0.00     0.168 HD
ENDBRANCH  29  32
BRANCH  30  45
HETATM   45  O3  UNL     1      15.985   4.442   6.199  1.00  0.00    -0.388 OA
ATOM     46  H3  UNL     1      15.533   3.622   6.358  1.00  0.00     0.210 HD
ENDBRANCH  30  45
BRANCH  31  47
HETATM   47  O4  UNL     1      16.060   2.698   8.179  1.00  0.00    -0.390 OA
ATOM     48  H4  UNL     1      16.632   1.981   7.936  1.00  0.00     0.210 HD
ENDBRANCH  31  47
ENDBRANCH  26  27
ENDBRANCH  25  26
ENDBRANCH   1  25
TORSDOF 11
ENDMDL
