MODEL 3
REMARK VINA RESULT: -8.745199690      2.819      4.577
REMARK  11 active torsions:
REMARK  status: ('A' for Active; 'I' for Inactive)
REMARK    1  A    between atoms: N5_13  and  C6_14 
REMARK    2  A    between atoms: C7_16  and  C8_17 
REMARK    3  A    between atoms: C8_17  and  S1_18 
REMARK    4  A    between atoms: S1_18  and  S2_19 
REMARK    5  A    between atoms: S2_19  and  C9_20 
REMARK    6  A    between atoms: C9_20  and  C10_21 
REMARK    7  A    between atoms: C11_23  and  N6_24 
REMARK    8  A    between atoms: C17_37  and  O3_38 
REMARK    9  A    between atoms: C18_40  and  O4_41 
REMARK   10  A    between atoms: C19_43  and  O5_44 
REMARK   11  A    between atoms: C20_46  and  O6_47 
ROOT
HETATM    1  S1  UNL     1      12.793   5.926  10.303  1.00  0.00    -0.095 SA
ENDROOT
BRANCH   1   2
HETATM    2  C8  UNL     1      11.652   4.947   9.244  1.00  0.00     0.120 C 
BRANCH   2   3
HETATM    3  C7  UNL     1      11.561   5.671   7.940  1.00  0.00     0.165 C 
HETATM    4  O1  UNL     1      11.510   7.052   8.049  1.00  0.00    -0.355 OA
HETATM    5  C6  UNL     1      11.997   7.597   6.893  1.00  0.00     0.262 C 
HETATM    6  C20 UNL     1      12.366   6.477   5.937  1.00  0.00     0.198 C 
HETATM    7  C19 UNL     1      12.667   5.373   6.965  1.00  0.00     0.180 C 
BRANCH   5   8
HETATM    8  N5  UNL     1      13.255   8.279   7.182  1.00  0.00    -0.297 N 
HETATM    9  C3  UNL     1      13.570   9.017   8.260  1.00  0.00     0.142 A 
HETATM   10  N3  UNL     1      12.913   9.376   9.376  1.00  0.00    -0.336 N 
HETATM   11  C4  UNL     1      14.871   9.477   8.134  1.00  0.00     0.119 A 
HETATM   12  C2  UNL     1      13.503  10.143  10.310  1.00  0.00     0.183 A 
ATOM     13  H3  UNL     1      11.952   9.063   9.516  1.00  0.00     0.168 HD
HETATM   14  N2  UNL     1      14.768  10.598  10.201  1.00  0.00    -0.339 N 
HETATM   15  C1  UNL     1      15.473  10.271   9.109  1.00  0.00     0.148 A 
ATOM     16  H2  UNL     1      15.178  11.178  10.932  1.00  0.00     0.167 HD
HETATM   17  N1  UNL     1      16.806  10.677   8.872  1.00  0.00    -0.080 NA
HETATM   18  N4  UNL     1      15.332   9.004   6.962  1.00  0.00    -0.346 N 
HETATM   19  C5  UNL     1      14.361   8.279   6.381  1.00  0.00     0.188 A 
ATOM     20  H4  UNL     1      16.263   9.168   6.578  1.00  0.00     0.167 HD
ENDBRANCH   5   8
BRANCH   6  21
HETATM   21  O6  UNL     1      11.240   6.111   5.212  1.00  0.00    -0.388 OA
ATOM     22  H6  UNL     1      10.717   6.885   5.043  1.00  0.00     0.210 HD
ENDBRANCH   6  21
BRANCH   7  23
HETATM   23  O5  UNL     1      12.574   4.122   6.384  1.00  0.00    -0.390 OA
ATOM     24  H5  UNL     1      13.384   3.626   6.413  1.00  0.00     0.210 HD
ENDBRANCH   7  23
ENDBRANCH   2   3
ENDBRANCH   1   2
BRANCH   1  25
HETATM   25  S2  UNL     1      14.164   4.491  11.139  1.00  0.00    -0.095 SA
BRANCH  25  26
HETATM   26  C9  UNL     1      15.834   4.907  10.516  1.00  0.00     0.120 C 
BRANCH  26  27
HETATM   27  C10 UNL     1      15.787   4.927   9.029  1.00  0.00     0.165 C 
HETATM   28  O2  UNL     1      16.101   6.158   8.477  1.00  0.00    -0.355 OA
HETATM   29  C11 UNL     1      17.115   5.960   7.533  1.00  0.00     0.262 C 
HETATM   30  C17 UNL     1      16.883   4.550   7.007  1.00  0.00     0.198 C 
HETATM   31  C18 UNL     1      16.590   3.861   8.348  1.00  0.00     0.180 C 
BRANCH  29  32
HETATM   32  N6  UNL     1      18.357   6.049   8.264  1.00  0.00    -0.297 N 
HETATM   33  C12 UNL     1      19.494   5.322   8.035  1.00  0.00     0.188 A 
HETATM   34  N7  UNL     1      20.450   5.672   8.909  1.00  0.00    -0.346 N 
HETATM   35  C13 UNL     1      19.949   6.632   9.721  1.00  0.00     0.119 A 
ATOM     36  H7  UNL     1      21.391   5.282   8.954  1.00  0.00     0.167 HD
HETATM   37  C14 UNL     1      20.461   7.346  10.777  1.00  0.00     0.148 A 
HETATM   38  C16 UNL     1      18.656   6.854   9.311  1.00  0.00     0.142 A 
HETATM   39  N8  UNL     1      21.806   7.101  11.186  1.00  0.00    -0.080 NA
HETATM   40  N9  UNL     1      19.715   8.254  11.410  1.00  0.00    -0.339 N 
HETATM   41  C15 UNL     1      18.446   8.452  10.987  1.00  0.00     0.183 A 
ATOM     42  H9  UNL     1      20.093   8.787  12.194  1.00  0.00     0.167 HD
HETATM   43  N10 UNL     1      17.932   7.767   9.960  1.00  0.00    -0.336 N 
ATOM     44  H10 UNL     1      16.970   7.945   9.669  1.00  0.00     0.168 HD
ENDBRANCH  29  32
BRANCH  30  45
HETATM   45  O3  UNL     1      15.699   4.509   6.272  1.00  0.00    -0.388 OA
ATOM     46  H3  UNL     1      15.387   3.613   6.213  1.00  0.00     0.210 HD
ENDBRANCH  30  45
BRANCH  31  47
HETATM   47  O4  UNL     1      15.911   2.676   8.159  1.00  0.00    -0.390 OA
ATOM     48  H4  UNL     1      16.331   1.920   8.550  1.00  0.00     0.210 HD
ENDBRANCH  31  47
ENDBRANCH  26  27
ENDBRANCH  25  26
ENDBRANCH   1  25
TORSDOF 11
ENDMDL
