MODEL 3
REMARK VINA RESULT: -6.419588780      2.682      4.711
REMARK  6 active torsions:
REMARK  status: ('A' for Active; 'I' for Inactive)
REMARK    1  A    between atoms: N1_2  and  C2_5 
REMARK    2  A    between atoms: C2_5  and  C4_7 
REMARK       I    between atoms: C4_7  and  N2_9 
REMARK    3  A    between atoms: N2_9  and  C5_11 
REMARK    4  A    between atoms: C13_20  and  C14_21 
REMARK       I    between atoms: C14_21  and  N3_23 
REMARK    5  A    between atoms: N3_23  and  C15_25 
REMARK    6  A    between atoms: N5_31  and  C19_32 
ROOT
HETATM    1  C5  UNL     1      77.401  63.135  12.834  1.00  0.00     0.176 C 
HETATM    2  C6  UNL     1      77.026  63.664  11.445  1.00  0.00     0.035 C 
HETATM    3  C7  UNL     1      78.129  64.413  10.781  1.00  0.00     0.005 C 
HETATM    4  C8  UNL     1      79.354  63.631  10.450  1.00  0.00     0.036 C 
HETATM    5  C9  UNL     1      79.017  62.192  10.260  1.00  0.00     0.151 C 
HETATM    6  S1  UNL     1      80.300  61.306   9.314  1.00  0.00    -0.132 SA
HETATM    7  C10 UNL     1      80.166  59.783  10.294  1.00  0.00     0.032 C 
HETATM    8  C11 UNL     1      79.055  58.945   9.693  1.00  0.00     0.029 C 
HETATM    9  C12 UNL     1      81.409  58.972  10.246  1.00  0.00     0.029 C 
HETATM   10  C13 UNL     1      79.739  60.301  11.613  1.00  0.00     0.198 C 
HETATM   11  N6  UNL     1      79.036  61.507  11.503  1.00  0.00    -0.322 N 
HETATM   12  C25 UNL     1      78.335  61.995  12.674  1.00  0.00     0.244 C 
HETATM   13  O3  UNL     1      78.517  61.381  13.760  1.00  0.00    -0.271 OA
ENDROOT
BRANCH  10  14
HETATM   14  C14 UNL     1      80.897  60.329  12.548  1.00  0.00     0.247 C 
HETATM   15  O2  UNL     1      81.037  59.381  13.402  1.00  0.00    -0.271 OA
HETATM   16  N3  UNL     1      81.890  61.334  12.583  1.00  0.00    -0.310 N 
ATOM     17  H3  UNL     1      81.807  62.101  11.916  1.00  0.00     0.170 HD
BRANCH  16  18
HETATM   18  C15 UNL     1      82.993  61.359  13.474  1.00  0.00     0.132 A 
HETATM   19  C16 UNL     1      83.147  62.030  14.659  1.00  0.00     0.076 A 
HETATM   20  C17 UNL     1      84.396  61.758  15.204  1.00  0.00     0.026 A 
HETATM   21  C18 UNL     1      85.030  62.223  16.439  1.00  0.00     0.070 C 
HETATM   22  N4  UNL     1      84.966  60.917  14.320  1.00  0.00    -0.297 N 
HETATM   23  N5  UNL     1      84.148  60.684  13.311  1.00  0.00    -0.240 N 
ATOM     24  H4  UNL     1      85.899  60.515  14.417  1.00  0.00     0.187 HD
BRANCH  23  25
HETATM   25  C19 UNL     1      84.538  59.808  12.237  1.00  0.00     0.058 A 
HETATM   26  C20 UNL     1      85.002  60.295  11.029  1.00  0.00     0.031 A 
HETATM   27  C21 UNL     1      85.373  59.426  10.014  1.00  0.00     0.002 A 
HETATM   28  C22 UNL     1      85.295  58.061  10.165  1.00  0.00     0.000 A 
HETATM   29  C23 UNL     1      84.830  57.556  11.377  1.00  0.00     0.002 A 
HETATM   30  C24 UNL     1      84.469  58.432  12.366  1.00  0.00     0.031 A 
ENDBRANCH  23  25
ENDBRANCH  16  18
ENDBRANCH  10  14
BRANCH   1  31
HETATM   31  N2  UNL     1      76.201  62.748  13.547  1.00  0.00    -0.346 N 
HETATM   32  C4  UNL     1      75.557  63.696  14.383  1.00  0.00     0.248 C 
HETATM   33  O1  UNL     1      76.073  64.855  14.467  1.00  0.00    -0.271 OA
ATOM     34  H2  UNL     1      75.823  61.805  13.449  1.00  0.00     0.163 HD
BRANCH  32  35
HETATM   35  C2  UNL     1      74.313  63.356  15.149  1.00  0.00     0.272 C 
HETATM   36  C3  UNL     1      73.936  64.527  16.067  1.00  0.00     0.050 C 
BRANCH  35  37
HETATM   37  N1  UNL     1      74.607  62.232  16.006  1.00  0.00    -0.067 N 
HETATM   38  C1  UNL     1      75.478  62.612  17.106  1.00  0.00     0.267 C 
ATOM     39  H12 UNL     1      74.995  61.451  15.476  1.00  0.00     0.277 HD
ATOM     40  H11 UNL     1      73.754  61.787  16.343  1.00  0.00     0.277 HD
ENDBRANCH  35  37
ENDBRANCH  32  35
ENDBRANCH   1  31
TORSDOF 6
ENDMDL
