MODEL 1
REMARK VINA RESULT: -6.545367994      0.000      0.000
REMARK  6 active torsions:
REMARK  status: ('A' for Active; 'I' for Inactive)
REMARK    1  A    between atoms: N1_2  and  C2_5 
REMARK    2  A    between atoms: C2_5  and  C4_7 
REMARK       I    between atoms: C4_7  and  N2_9 
REMARK    3  A    between atoms: N2_9  and  C5_11 
REMARK    4  A    between atoms: C13_20  and  C14_21 
REMARK       I    between atoms: C14_21  and  N3_23 
REMARK    5  A    between atoms: N3_23  and  C15_25 
REMARK    6  A    between atoms: N5_31  and  C19_32 
ROOT
HETATM    1  C5  UNL     1      80.076  60.717  10.820  1.00  0.00     0.176 C 
HETATM    2  C6  UNL     1      79.072  60.090   9.846  1.00  0.00     0.035 C 
HETATM    3  C7  UNL     1      79.687  59.663   8.558  1.00  0.00     0.005 C 
HETATM    4  C8  UNL     1      80.702  58.575   8.638  1.00  0.00     0.036 C 
HETATM    5  C9  UNL     1      80.452  57.716   9.829  1.00  0.00     0.151 C 
HETATM    6  S1  UNL     1      81.253  56.086   9.681  1.00  0.00    -0.132 SA
HETATM    7  C10 UNL     1      81.714  55.999  11.436  1.00  0.00     0.032 C 
HETATM    8  C11 UNL     1      80.535  55.420  12.193  1.00  0.00     0.029 C 
HETATM    9  C12 UNL     1      82.874  55.101  11.669  1.00  0.00     0.029 C 
HETATM   10  C13 UNL     1      81.875  57.427  11.784  1.00  0.00     0.198 C 
HETATM   11  N6  UNL     1      81.088  58.258  10.977  1.00  0.00    -0.322 N 
HETATM   12  C25 UNL     1      80.942  59.646  11.369  1.00  0.00     0.244 C 
HETATM   13  O3  UNL     1      81.647  60.058  12.330  1.00  0.00    -0.271 OA
ENDROOT
BRANCH  10  14
HETATM   14  C14 UNL     1      83.321  57.780  11.832  1.00  0.00     0.247 C 
HETATM   15  O2  UNL     1      83.931  58.073  10.741  1.00  0.00    -0.271 OA
HETATM   16  N3  UNL     1      84.108  57.826  13.005  1.00  0.00    -0.310 N 
ATOM     17  H3  UNL     1      83.651  57.599  13.888  1.00  0.00     0.170 HD
BRANCH  16  18
HETATM   18  C15 UNL     1      85.485  58.164  13.048  1.00  0.00     0.132 A 
HETATM   19  C16 UNL     1      86.565  57.506  12.518  1.00  0.00     0.076 A 
HETATM   20  C17 UNL     1      87.734  58.204  12.799  1.00  0.00     0.026 A 
HETATM   21  C18 UNL     1      89.129  57.922  12.458  1.00  0.00     0.070 C 
HETATM   22  N4  UNL     1      87.318  59.277  13.499  1.00  0.00    -0.297 N 
HETATM   23  N5  UNL     1      86.006  59.253  13.644  1.00  0.00    -0.240 N 
ATOM     24  H4  UNL     1      87.931  60.005  13.866  1.00  0.00     0.187 HD
BRANCH  23  25
HETATM   25  C19 UNL     1      85.329  60.303  14.359  1.00  0.00     0.058 A 
HETATM   26  C20 UNL     1      84.418  61.140  13.740  1.00  0.00     0.031 A 
HETATM   27  C21 UNL     1      83.780  62.141  14.457  1.00  0.00     0.002 A 
HETATM   28  C22 UNL     1      84.025  62.342  15.796  1.00  0.00     0.000 A 
HETATM   29  C23 UNL     1      84.940  61.506  16.433  1.00  0.00     0.002 A 
HETATM   30  C24 UNL     1      85.558  60.524  15.706  1.00  0.00     0.031 A 
ENDBRANCH  23  25
ENDBRANCH  16  18
ENDBRANCH  10  14
BRANCH   1  31
HETATM   31  N2  UNL     1      79.363  61.418  11.868  1.00  0.00    -0.346 N 
HETATM   32  C4  UNL     1      79.529  62.821  11.999  1.00  0.00     0.248 C 
HETATM   33  O1  UNL     1      80.307  63.402  11.178  1.00  0.00    -0.271 OA
ATOM     34  H2  UNL     1      78.748  60.910  12.504  1.00  0.00     0.163 HD
BRANCH  32  35
HETATM   35  C2  UNL     1      78.820  63.604  13.064  1.00  0.00     0.272 C 
HETATM   36  C3  UNL     1      79.320  65.055  13.057  1.00  0.00     0.050 C 
BRANCH  35  37
HETATM   37  N1  UNL     1      79.180  63.045  14.345  1.00  0.00    -0.067 N 
HETATM   38  C1  UNL     1      78.063  62.343  14.955  1.00  0.00     0.267 C 
ATOM     39  H12 UNL     1      79.559  63.757  14.970  1.00  0.00     0.277 HD
ATOM     40  H11 UNL     1      80.002  62.444  14.272  1.00  0.00     0.277 HD
ENDBRANCH  35  37
ENDBRANCH  32  35
ENDBRANCH   1  31
TORSDOF 6
ENDMDL
