MODEL 2
REMARK VINA RESULT: -6.434230716      3.068      5.511
REMARK  6 active torsions:
REMARK  status: ('A' for Active; 'I' for Inactive)
REMARK    1  A    between atoms: N1_2  and  C2_5 
REMARK    2  A    between atoms: C2_5  and  C4_7 
REMARK       I    between atoms: C4_7  and  N2_9 
REMARK    3  A    between atoms: N2_9  and  C5_11 
REMARK    4  A    between atoms: C13_20  and  C14_21 
REMARK       I    between atoms: C14_21  and  N3_23 
REMARK    5  A    between atoms: N3_23  and  C15_25 
REMARK    6  A    between atoms: N5_31  and  C19_32 
ROOT
HETATM    1  C5  UNL     1      77.430  64.701  13.361  1.00  0.00     0.176 C 
HETATM    2  C6  UNL     1      77.074  65.272  11.984  1.00  0.00     0.035 C 
HETATM    3  C7  UNL     1      78.263  65.721  11.206  1.00  0.00     0.005 C 
HETATM    4  C8  UNL     1      79.235  64.661  10.815  1.00  0.00     0.036 C 
HETATM    5  C9  UNL     1      78.552  63.341  10.712  1.00  0.00     0.151 C 
HETATM    6  S1  UNL     1      79.504  62.153   9.709  1.00  0.00    -0.132 SA
HETATM    7  C10 UNL     1      79.096  60.728  10.759  1.00  0.00     0.032 C 
HETATM    8  C11 UNL     1      77.772  60.168  10.281  1.00  0.00     0.029 C 
HETATM    9  C12 UNL     1      80.103  59.642  10.649  1.00  0.00     0.029 C 
HETATM   10  C13 UNL     1      78.918  61.362  12.084  1.00  0.00     0.198 C 
HETATM   11  N6  UNL     1      78.514  62.699  11.978  1.00  0.00    -0.322 N 
HETATM   12  C25 UNL     1      78.050  63.367  13.178  1.00  0.00     0.244 C 
HETATM   13  O3  UNL     1      78.174  62.752  14.272  1.00  0.00    -0.271 OA
ENDROOT
BRANCH  10  14
HETATM   14  C14 UNL     1      80.125  61.133  12.925  1.00  0.00     0.247 C 
HETATM   15  O2  UNL     1      80.090  60.233  13.839  1.00  0.00    -0.271 OA
HETATM   16  N3  UNL     1      81.345  61.837  12.806  1.00  0.00    -0.310 N 
ATOM     17  H3  UNL     1      81.403  62.559  12.088  1.00  0.00     0.170 HD
BRANCH  16  18
HETATM   18  C15 UNL     1      82.493  61.616  13.608  1.00  0.00     0.132 A 
HETATM   19  C16 UNL     1      82.925  62.287  14.723  1.00  0.00     0.076 A 
HETATM   20  C17 UNL     1      84.105  61.723  15.192  1.00  0.00     0.026 A 
HETATM   21  C18 UNL     1      84.950  62.069  16.337  1.00  0.00     0.070 C 
HETATM   22  N4  UNL     1      84.353  60.714  14.336  1.00  0.00    -0.297 N 
HETATM   23  N5  UNL     1      83.413  60.652  13.411  1.00  0.00    -0.240 N 
ATOM     24  H4  UNL     1      85.155  60.085  14.393  1.00  0.00     0.187 HD
BRANCH  23  25
HETATM   25  C19 UNL     1      83.462  59.647  12.382  1.00  0.00     0.058 A 
HETATM   26  C20 UNL     1      83.022  58.354  12.600  1.00  0.00     0.031 A 
HETATM   27  C21 UNL     1      83.080  57.409  11.587  1.00  0.00     0.002 A 
HETATM   28  C22 UNL     1      83.574  57.713  10.340  1.00  0.00     0.000 A 
HETATM   29  C23 UNL     1      84.021  59.012  10.105  1.00  0.00     0.002 A 
HETATM   30  C24 UNL     1      83.954  59.930  11.119  1.00  0.00     0.031 A 
ENDBRANCH  23  25
ENDBRANCH  16  18
ENDBRANCH  10  14
BRANCH   1  31
HETATM   31  N2  UNL     1      76.237  64.628  14.180  1.00  0.00    -0.346 N 
HETATM   32  C4  UNL     1      75.796  65.790  14.863  1.00  0.00     0.248 C 
HETATM   33  O1  UNL     1      76.479  66.854  14.722  1.00  0.00    -0.271 OA
ATOM     34  H2  UNL     1      75.721  63.753  14.264  1.00  0.00     0.163 HD
BRANCH  32  35
HETATM   35  C2  UNL     1      74.570  65.780  15.728  1.00  0.00     0.272 C 
HETATM   36  C3  UNL     1      74.327  67.185  16.295  1.00  0.00     0.050 C 
BRANCH  35  37
HETATM   37  N1  UNL     1      74.824  64.913  16.855  1.00  0.00    -0.067 N 
HETATM   38  C1  UNL     1      73.794  65.044  17.872  1.00  0.00     0.267 C 
ATOM     39  H12 UNL     1      75.754  65.070  17.244  1.00  0.00     0.277 HD
ATOM     40  H11 UNL     1      74.937  63.943  16.561  1.00  0.00     0.277 HD
ENDBRANCH  35  37
ENDBRANCH  32  35
ENDBRANCH   1  31
TORSDOF 6
ENDMDL
