MODEL 9
REMARK VINA RESULT: -6.028322689      3.597      9.073
REMARK  6 active torsions:
REMARK  status: ('A' for Active; 'I' for Inactive)
REMARK    1  A    between atoms: N1_2  and  C2_5 
REMARK    2  A    between atoms: C2_5  and  C4_7 
REMARK       I    between atoms: C4_7  and  N2_9 
REMARK    3  A    between atoms: N2_9  and  C5_11 
REMARK    4  A    between atoms: C13_20  and  C14_21 
REMARK       I    between atoms: C14_21  and  N3_23 
REMARK    5  A    between atoms: N3_23  and  C15_25 
REMARK    6  A    between atoms: N5_31  and  C19_32 
ROOT
HETATM    1  C5  UNL     1      80.904  60.830  12.970  1.00  0.00     0.176 C 
HETATM    2  C6  UNL     1      81.762  61.307  11.793  1.00  0.00     0.035 C 
HETATM    3  C7  UNL     1      81.062  61.223  10.481  1.00  0.00     0.005 C 
HETATM    4  C8  UNL     1      79.865  62.094  10.313  1.00  0.00     0.036 C 
HETATM    5  C9  UNL     1      79.968  63.295  11.189  1.00  0.00     0.151 C 
HETATM    6  S1  UNL     1      78.878  64.646  10.633  1.00  0.00    -0.132 SA
HETATM    7  C10 UNL     1      78.433  65.165  12.316  1.00  0.00     0.032 C 
HETATM    8  C11 UNL     1      79.494  66.134  12.795  1.00  0.00     0.029 C 
HETATM    9  C12 UNL     1      77.130  65.877  12.359  1.00  0.00     0.029 C 
HETATM   10  C13 UNL     1      78.542  63.896  13.069  1.00  0.00     0.198 C 
HETATM   11  N6  UNL     1      79.459  63.013  12.484  1.00  0.00    -0.322 N 
HETATM   12  C25 UNL     1      79.863  61.849  13.246  1.00  0.00     0.244 C 
HETATM   13  O3  UNL     1      79.259  61.623  14.329  1.00  0.00    -0.271 OA
ENDROOT
BRANCH  10  14
HETATM   14  C14 UNL     1      77.187  63.329  13.312  1.00  0.00     0.247 C 
HETATM   15  O2  UNL     1      76.576  62.732  12.355  1.00  0.00    -0.271 OA
HETATM   16  N3  UNL     1      76.489  63.388  14.540  1.00  0.00    -0.310 N 
ATOM     17  H3  UNL     1      76.949  63.857  15.321  1.00  0.00     0.170 HD
BRANCH  16  18
HETATM   18  C15 UNL     1      75.199  62.847  14.770  1.00  0.00     0.132 A 
HETATM   19  C16 UNL     1      74.286  62.350  13.876  1.00  0.00     0.076 A 
HETATM   20  C17 UNL     1      73.148  61.916  14.547  1.00  0.00     0.026 A 
HETATM   21  C18 UNL     1      71.909  61.315  14.051  1.00  0.00     0.070 C 
HETATM   22  N4  UNL     1      73.413  62.167  15.843  1.00  0.00    -0.297 N 
HETATM   23  N5  UNL     1      74.610  62.710  15.973  1.00  0.00    -0.240 N 
ATOM     24  H4  UNL     1      72.779  61.965  16.616  1.00  0.00     0.187 HD
BRANCH  23  25
HETATM   25  C19 UNL     1      75.116  63.065  17.273  1.00  0.00     0.058 A 
HETATM   26  C20 UNL     1      74.485  64.000  18.073  1.00  0.00     0.031 A 
HETATM   27  C21 UNL     1      74.996  64.319  19.322  1.00  0.00     0.002 A 
HETATM   28  C22 UNL     1      76.138  63.728  19.810  1.00  0.00     0.000 A 
HETATM   29  C23 UNL     1      76.786  62.784  19.015  1.00  0.00     0.002 A 
HETATM   30  C24 UNL     1      76.263  62.483  17.785  1.00  0.00     0.031 A 
ENDBRANCH  23  25
ENDBRANCH  16  18
ENDBRANCH  10  14
BRANCH   1  31
HETATM   31  N2  UNL     1      81.748  60.602  14.125  1.00  0.00    -0.346 N 
HETATM   32  C4  UNL     1      82.812  61.501  14.393  1.00  0.00     0.248 C 
HETATM   33  O1  UNL     1      82.976  62.477  13.594  1.00  0.00    -0.271 OA
ATOM     34  H2  UNL     1      81.580  59.805  14.739  1.00  0.00     0.163 HD
BRANCH  32  35
HETATM   35  C2  UNL     1      83.722  61.319  15.572  1.00  0.00     0.272 C 
HETATM   36  C3  UNL     1      84.658  62.529  15.693  1.00  0.00     0.050 C 
BRANCH  35  37
HETATM   37  N1  UNL     1      84.558  60.169  15.318  1.00  0.00    -0.067 N 
HETATM   38  C1  UNL     1      85.465  60.402  14.206  1.00  0.00     0.267 C 
ATOM     39  H12 UNL     1      84.001  59.327  15.175  1.00  0.00     0.277 HD
ATOM     40  H11 UNL     1      85.064  59.884  16.157  1.00  0.00     0.277 HD
ENDBRANCH  35  37
ENDBRANCH  32  35
ENDBRANCH   1  31
TORSDOF 6
ENDMDL
