MODEL 15
REMARK VINA RESULT: -8.901839417      3.525     10.063
REMARK  14 active torsions:
REMARK  status: ('A' for Active; 'I' for Inactive)
REMARK    1  A    between atoms: C2_2  and  C3_3 
REMARK    2  A    between atoms: C3_3  and  C4_4 
REMARK    3  A    between atoms: C4_4  and  C5_5 
REMARK    4  A    between atoms: C5_5  and  C6_6 
REMARK    5  A    between atoms: C6_6  and  C7_7 
REMARK    6  A    between atoms: C7_7  and  N1_8 
REMARK    7  A    between atoms: N1_8  and  C8_9 
REMARK    8  A    between atoms: N1_8  and  C21_25 
REMARK    9  A    between atoms: C8_9  and  C9_10 
REMARK   10  A    between atoms: C9_10  and  C10_11 
REMARK   11  A    between atoms: C13_14  and  O1_15 
REMARK   12  A    between atoms: O1_15  and  C14_16 
REMARK   13  A    between atoms: C14_16  and  C16_18 
REMARK   14  A    between atoms: C14_16  and  C18_20 
ROOT
HETATM    1  N1  UNL     1      15.098  16.083  12.539  1.00  0.00    -0.343 N 
ENDROOT
BRANCH   1   2
HETATM    2  C7  UNL     1      13.766  15.684  12.123  1.00  0.00     0.153 C 
BRANCH   2   3
HETATM    3  C6  UNL     1      12.940  15.043  13.147  1.00  0.00    -0.011 C 
BRANCH   3   4
HETATM    4  C5  UNL     1      12.291  13.741  12.961  1.00  0.00    -0.029 C 
BRANCH   4   5
HETATM    5  C4  UNL     1      11.307  13.197  13.910  1.00  0.00     0.027 C 
BRANCH   5   6
HETATM    6  C3  UNL     1      10.610  14.105  14.849  1.00  0.00     0.003 C 
BRANCH   6   7
HETATM    7  C2  UNL     1       9.657  13.238  15.727  1.00  0.00    -0.004 C 
HETATM    8  C1  UNL     1      10.483  12.816  16.920  1.00  0.00     0.005 C 
ENDBRANCH   6   7
ENDBRANCH   5   6
ENDBRANCH   4   5
ENDBRANCH   3   4
ENDBRANCH   2   3
ENDBRANCH   1   2
BRANCH   1   9
HETATM    9  C8  UNL     1      15.551  15.935  13.896  1.00  0.00     0.131 C 
BRANCH   9  10
HETATM   10  C9  UNL     1      16.832  15.164  14.056  1.00  0.00     0.058 C 
BRANCH  10  11
HETATM   11  C10 UNL     1      17.716  15.815  15.088  1.00  0.00    -0.057 A 
HETATM   12  C11 UNL     1      17.562  15.611  16.441  1.00  0.00     0.010 A 
HETATM   13  C12 UNL     1      18.397  16.238  17.349  1.00  0.00     0.037 A 
HETATM   14  C13 UNL     1      19.422  17.097  16.925  1.00  0.00     0.070 A 
HETATM   15  C19 UNL     1      19.555  17.284  15.572  1.00  0.00     0.037 A 
HETATM   16  C20 UNL     1      18.712  16.652  14.647  1.00  0.00     0.010 A 
BRANCH  14  17
HETATM   17  O1  UNL     1      20.180  17.658  17.889  1.00  0.00    -0.330 OA
BRANCH  17  18
HETATM   18  C14 UNL     1      19.980  18.719  18.742  1.00  0.00     0.151 C 
HETATM   19  C15 UNL     1      19.067  19.806  18.231  1.00  0.00     0.059 C 
BRANCH  18  20
HETATM   20  C16 UNL     1      21.254  19.346  19.292  1.00  0.00     0.045 C 
HETATM   21  C17 UNL     1      20.999  20.698  19.907  1.00  0.00     0.009 C 
ENDBRANCH  18  20
BRANCH  18  22
HETATM   22  C18 UNL     1      19.283  18.164  19.964  1.00  0.00     0.209 C 
HETATM   23  O2  UNL     1      19.900  17.502  20.821  1.00  0.00    -0.646 OA
HETATM   24  O3  UNL     1      17.924  18.370  20.177  1.00  0.00    -0.646 OA
ENDBRANCH  18  22
ENDBRANCH  17  18
ENDBRANCH  14  17
ENDBRANCH  10  11
ENDBRANCH   9  10
ENDBRANCH   1   9
BRANCH   1  25
HETATM   25  C21 UNL     1      15.953  16.703  11.590  1.00  0.00     0.227 A 
HETATM   26  N2  UNL     1      15.818  17.948  11.046  1.00  0.00    -0.320 N 
HETATM   27  C22 UNL     1      16.813  18.203  10.182  1.00  0.00     0.069 A 
ATOM     28  H2  UNL     1      15.062  18.596  11.266  1.00  0.00     0.169 HD
HETATM   29  C23 UNL     1      17.177  19.256   9.370  1.00  0.00     0.032 A 
HETATM   30  C27 UNL     1      17.591  17.067  10.197  1.00  0.00     0.106 A 
HETATM   31  C24 UNL     1      18.293  19.228   8.565  1.00  0.00     0.002 A 
HETATM   32  C25 UNL     1      19.066  18.083   8.589  1.00  0.00     0.003 A 
HETATM   33  C26 UNL     1      18.731  17.016   9.386  1.00  0.00     0.040 A 
HETATM   34  O4  UNL     1      17.042  16.234  11.033  1.00  0.00    -0.277 OA
ENDBRANCH   1  25
TORSDOF 14
ENDMDL
