MODEL 1
REMARK VINA RESULT: -10.078490765      0.000      0.000
REMARK  14 active torsions:
REMARK  status: ('A' for Active; 'I' for Inactive)
REMARK    1  A    between atoms: C2_2  and  C3_3 
REMARK    2  A    between atoms: C3_3  and  C4_4 
REMARK    3  A    between atoms: C4_4  and  C5_5 
REMARK    4  A    between atoms: C5_5  and  C6_6 
REMARK    5  A    between atoms: C6_6  and  C7_7 
REMARK    6  A    between atoms: C7_7  and  N1_8 
REMARK    7  A    between atoms: N1_8  and  C8_9 
REMARK    8  A    between atoms: N1_8  and  C21_25 
REMARK    9  A    between atoms: C8_9  and  C9_10 
REMARK   10  A    between atoms: C9_10  and  C10_11 
REMARK   11  A    between atoms: C13_14  and  O1_15 
REMARK   12  A    between atoms: O1_15  and  C14_16 
REMARK   13  A    between atoms: C14_16  and  C16_18 
REMARK   14  A    between atoms: C14_16  and  C18_20 
ROOT
HETATM    1  N1  UNL     1      18.862  17.010  15.728  1.00  0.00    -0.343 N 
ENDROOT
BRANCH   1   2
HETATM    2  C7  UNL     1      19.853  16.891  14.675  1.00  0.00     0.153 C 
BRANCH   2   3
HETATM    3  C6  UNL     1      21.248  17.055  15.087  1.00  0.00    -0.011 C 
BRANCH   3   4
HETATM    4  C5  UNL     1      22.069  18.211  14.714  1.00  0.00    -0.029 C 
BRANCH   4   5
HETATM    5  C4  UNL     1      22.974  18.209  13.554  1.00  0.00     0.027 C 
BRANCH   5   6
HETATM    6  C3  UNL     1      23.122  19.433  12.735  1.00  0.00     0.003 C 
BRANCH   6   7
HETATM    7  C2  UNL     1      24.647  19.702  12.557  1.00  0.00    -0.004 C 
HETATM    8  C1  UNL     1      24.738  20.952  11.712  1.00  0.00     0.005 C 
ENDBRANCH   6   7
ENDBRANCH   5   6
ENDBRANCH   4   5
ENDBRANCH   3   4
ENDBRANCH   2   3
ENDBRANCH   1   2
BRANCH   1   9
HETATM    9  C8  UNL     1      17.539  16.460  15.598  1.00  0.00     0.131 C 
BRANCH   9  10
HETATM   10  C9  UNL     1      16.888  16.684  14.262  1.00  0.00     0.058 C 
BRANCH  10  11
HETATM   11  C10 UNL     1      15.431  16.302  14.312  1.00  0.00    -0.057 A 
HETATM   12  C11 UNL     1      14.742  15.830  13.218  1.00  0.00     0.010 A 
HETATM   13  C12 UNL     1      13.403  15.498  13.317  1.00  0.00     0.037 A 
HETATM   14  C13 UNL     1      12.704  15.632  14.525  1.00  0.00     0.070 A 
HETATM   15  C19 UNL     1      13.412  16.105  15.602  1.00  0.00     0.037 A 
HETATM   16  C20 UNL     1      14.770  16.443  15.509  1.00  0.00     0.010 A 
BRANCH  14  17
HETATM   17  O1  UNL     1      11.402  15.282  14.515  1.00  0.00    -0.330 OA
BRANCH  17  18
HETATM   18  C14 UNL     1      10.747  14.094  14.741  1.00  0.00     0.151 C 
HETATM   19  C15 UNL     1       9.332  14.212  15.247  1.00  0.00     0.059 C 
BRANCH  18  20
HETATM   20  C16 UNL     1      11.511  13.098  15.603  1.00  0.00     0.045 C 
HETATM   21  C17 UNL     1      10.736  12.707  16.836  1.00  0.00     0.009 C 
ENDBRANCH  18  20
BRANCH  18  22
HETATM   22  C18 UNL     1      10.627  13.407  13.398  1.00  0.00     0.209 C 
HETATM   23  O2  UNL     1      11.488  12.598  13.002  1.00  0.00    -0.646 OA
HETATM   24  O3  UNL     1       9.550  13.655  12.553  1.00  0.00    -0.646 OA
ENDBRANCH  18  22
ENDBRANCH  17  18
ENDBRANCH  14  17
ENDBRANCH  10  11
ENDBRANCH   9  10
ENDBRANCH   1   9
BRANCH   1  25
HETATM   25  C21 UNL     1      19.188  17.753  16.893  1.00  0.00     0.227 A 
HETATM   26  N2  UNL     1      19.053  17.354  18.191  1.00  0.00    -0.320 N 
HETATM   27  C22 UNL     1      19.462  18.317  19.033  1.00  0.00     0.069 A 
ATOM     28  H2  UNL     1      18.690  16.447  18.483  1.00  0.00     0.169 HD
HETATM   29  C23 UNL     1      19.552  18.468  20.400  1.00  0.00     0.032 A 
HETATM   30  C27 UNL     1      19.865  19.350  18.216  1.00  0.00     0.106 A 
HETATM   31  C24 UNL     1      20.030  19.613  20.996  1.00  0.00     0.002 A 
HETATM   32  C25 UNL     1      20.432  20.642  20.166  1.00  0.00     0.003 A 
HETATM   33  C26 UNL     1      20.355  20.524  18.799  1.00  0.00     0.040 A 
HETATM   34  O4  UNL     1      19.683  18.963  16.986  1.00  0.00    -0.277 OA
ENDBRANCH   1  25
TORSDOF 14
ENDMDL
