MODEL 3
REMARK VINA RESULT: -9.561144726      0.591      1.051
REMARK  14 active torsions:
REMARK  status: ('A' for Active; 'I' for Inactive)
REMARK    1  A    between atoms: C2_2  and  C3_3 
REMARK    2  A    between atoms: C3_3  and  C4_4 
REMARK    3  A    between atoms: C4_4  and  C5_5 
REMARK    4  A    between atoms: C5_5  and  C6_6 
REMARK    5  A    between atoms: C6_6  and  C7_7 
REMARK    6  A    between atoms: C7_7  and  N1_8 
REMARK    7  A    between atoms: N1_8  and  C8_9 
REMARK    8  A    between atoms: N1_8  and  C21_25 
REMARK    9  A    between atoms: C8_9  and  C9_10 
REMARK   10  A    between atoms: C9_10  and  C10_11 
REMARK   11  A    between atoms: C13_14  and  O1_15 
REMARK   12  A    between atoms: O1_15  and  C14_16 
REMARK   13  A    between atoms: C14_16  and  C16_18 
REMARK   14  A    between atoms: C14_16  and  C18_20 
ROOT
HETATM    1  N1  UNL     1      18.628  16.433  16.290  1.00  0.00    -0.343 N 
ENDROOT
BRANCH   1   2
HETATM    2  C7  UNL     1      19.654  15.885  15.422  1.00  0.00     0.153 C 
BRANCH   2   3
HETATM    3  C6  UNL     1      20.378  16.851  14.596  1.00  0.00    -0.011 C 
BRANCH   3   4
HETATM    4  C5  UNL     1      21.686  17.405  14.961  1.00  0.00    -0.029 C 
BRANCH   4   5
HETATM    5  C4  UNL     1      22.723  17.727  13.968  1.00  0.00     0.027 C 
BRANCH   5   6
HETATM    6  C3  UNL     1      22.942  19.135  13.564  1.00  0.00     0.003 C 
BRANCH   6   7
HETATM    7  C2  UNL     1      23.687  19.122  12.193  1.00  0.00    -0.004 C 
HETATM    8  C1  UNL     1      24.972  19.883  12.429  1.00  0.00     0.005 C 
ENDBRANCH   6   7
ENDBRANCH   5   6
ENDBRANCH   4   5
ENDBRANCH   3   4
ENDBRANCH   2   3
ENDBRANCH   1   2
BRANCH   1   9
HETATM    9  C8  UNL     1      17.233  16.138  16.106  1.00  0.00     0.131 C 
BRANCH   9  10
HETATM   10  C9  UNL     1      16.635  16.671  14.833  1.00  0.00     0.058 C 
BRANCH  10  11
HETATM   11  C10 UNL     1      15.199  16.236  14.700  1.00  0.00    -0.057 A 
HETATM   12  C11 UNL     1      14.257  16.451  15.681  1.00  0.00     0.010 A 
HETATM   13  C12 UNL     1      12.951  16.026  15.511  1.00  0.00     0.037 A 
HETATM   14  C13 UNL     1      12.545  15.364  14.344  1.00  0.00     0.070 A 
HETATM   15  C19 UNL     1      13.502  15.160  13.380  1.00  0.00     0.037 A 
HETATM   16  C20 UNL     1      14.827  15.589  13.546  1.00  0.00     0.010 A 
BRANCH  14  17
HETATM   17  O1  UNL     1      11.251  14.989  14.278  1.00  0.00    -0.330 OA
BRANCH  17  18
HETATM   18  C14 UNL     1      10.563  13.901  14.761  1.00  0.00     0.151 C 
HETATM   19  C15 UNL     1       9.195  14.190  15.327  1.00  0.00     0.059 C 
BRANCH  18  20
HETATM   20  C16 UNL     1      11.343  13.036  15.741  1.00  0.00     0.045 C 
HETATM   21  C17 UNL     1      10.560  12.761  17.000  1.00  0.00     0.009 C 
ENDBRANCH  18  20
BRANCH  18  22
HETATM   22  C18 UNL     1      10.314  12.990  13.579  1.00  0.00     0.209 C 
HETATM   23  O2  UNL     1      11.229  12.682  12.791  1.00  0.00    -0.646 OA
HETATM   24  O3  UNL     1       9.052  12.462  13.327  1.00  0.00    -0.646 OA
ENDBRANCH  18  22
ENDBRANCH  17  18
ENDBRANCH  14  17
ENDBRANCH  10  11
ENDBRANCH   9  10
ENDBRANCH   1   9
BRANCH   1  25
HETATM   25  C21 UNL     1      19.012  17.345  17.308  1.00  0.00     0.227 A 
HETATM   26  N2  UNL     1      18.955  17.146  18.658  1.00  0.00    -0.320 N 
HETATM   27  C22 UNL     1      19.400  18.226  19.320  1.00  0.00     0.069 A 
ATOM     28  H2  UNL     1      18.620  16.292  19.103  1.00  0.00     0.169 HD
HETATM   29  C23 UNL     1      19.566  18.582  20.641  1.00  0.00     0.032 A 
HETATM   30  C27 UNL     1      19.744  19.125  18.335  1.00  0.00     0.106 A 
HETATM   31  C24 UNL     1      20.063  19.805  21.030  1.00  0.00     0.002 A 
HETATM   32  C25 UNL     1      20.405  20.698  20.033  1.00  0.00     0.003 A 
HETATM   33  C26 UNL     1      20.252  20.375  18.706  1.00  0.00     0.040 A 
HETATM   34  O4  UNL     1      19.497  18.556  17.190  1.00  0.00    -0.277 OA
ENDBRANCH   1  25
TORSDOF 14
ENDMDL
