MODEL 2
REMARK VINA RESULT: -9.879458830      0.933      1.765
REMARK  14 active torsions:
REMARK  status: ('A' for Active; 'I' for Inactive)
REMARK    1  A    between atoms: C2_2  and  C3_3 
REMARK    2  A    between atoms: C3_3  and  C4_4 
REMARK    3  A    between atoms: C4_4  and  C5_5 
REMARK    4  A    between atoms: C5_5  and  C6_6 
REMARK    5  A    between atoms: C6_6  and  C7_7 
REMARK    6  A    between atoms: C7_7  and  N1_8 
REMARK    7  A    between atoms: N1_8  and  C8_9 
REMARK    8  A    between atoms: N1_8  and  C21_25 
REMARK    9  A    between atoms: C8_9  and  C9_10 
REMARK   10  A    between atoms: C9_10  and  C10_11 
REMARK   11  A    between atoms: C13_14  and  O1_15 
REMARK   12  A    between atoms: O1_15  and  C14_16 
REMARK   13  A    between atoms: C14_16  and  C16_18 
REMARK   14  A    between atoms: C14_16  and  C18_20 
ROOT
HETATM    1  N1  UNL     1      18.903  17.020  15.831  1.00  0.00    -0.343 N 
ENDROOT
BRANCH   1   2
HETATM    2  C7  UNL     1      19.915  16.808  14.813  1.00  0.00     0.153 C 
BRANCH   2   3
HETATM    3  C6  UNL     1      21.268  16.542  15.301  1.00  0.00    -0.011 C 
BRANCH   3   4
HETATM    4  C5  UNL     1      22.378  17.490  15.158  1.00  0.00    -0.029 C 
BRANCH   4   5
HETATM    5  C4  UNL     1      22.363  18.599  14.192  1.00  0.00     0.027 C 
BRANCH   5   6
HETATM    6  C3  UNL     1      23.086  18.465  12.907  1.00  0.00     0.003 C 
BRANCH   6   7
HETATM    7  C2  UNL     1      23.446  19.900  12.414  1.00  0.00    -0.004 C 
HETATM    8  C1  UNL     1      24.955  19.933  12.345  1.00  0.00     0.005 C 
ENDBRANCH   6   7
ENDBRANCH   5   6
ENDBRANCH   4   5
ENDBRANCH   3   4
ENDBRANCH   2   3
ENDBRANCH   1   2
BRANCH   1   9
HETATM    9  C8  UNL     1      17.549  16.563  15.669  1.00  0.00     0.131 C 
BRANCH   9  10
HETATM   10  C9  UNL     1      16.892  16.969  14.379  1.00  0.00     0.058 C 
BRANCH  10  11
HETATM   11  C10 UNL     1      15.463  16.492  14.339  1.00  0.00    -0.057 A 
HETATM   12  C11 UNL     1      14.663  16.428  15.458  1.00  0.00     0.010 A 
HETATM   13  C12 UNL     1      13.359  15.976  15.368  1.00  0.00     0.037 A 
HETATM   14  C13 UNL     1      12.810  15.569  14.143  1.00  0.00     0.070 A 
HETATM   15  C19 UNL     1      13.627  15.641  13.042  1.00  0.00     0.037 A 
HETATM   16  C20 UNL     1      14.950  16.098  13.126  1.00  0.00     0.010 A 
BRANCH  14  17
HETATM   17  O1  UNL     1      11.530  15.144  14.163  1.00  0.00    -0.330 OA
BRANCH  17  18
HETATM   18  C14 UNL     1      10.952  13.901  14.058  1.00  0.00     0.151 C 
HETATM   19  C15 UNL     1      11.891  12.729  14.197  1.00  0.00     0.059 C 
BRANCH  18  20
HETATM   20  C16 UNL     1      10.077  13.705  12.827  1.00  0.00     0.045 C 
HETATM   21  C17 UNL     1       9.745  12.253  12.594  1.00  0.00     0.009 C 
ENDBRANCH  18  20
BRANCH  18  22
HETATM   22  C18 UNL     1       9.991  13.773  15.220  1.00  0.00     0.209 C 
HETATM   23  O2  UNL     1       8.879  14.334  15.208  1.00  0.00    -0.646 OA
HETATM   24  O3  UNL     1      10.315  13.023  16.346  1.00  0.00    -0.646 OA
ENDBRANCH  18  22
ENDBRANCH  17  18
ENDBRANCH  14  17
ENDBRANCH  10  11
ENDBRANCH   9  10
ENDBRANCH   1   9
BRANCH   1  25
HETATM   25  C21 UNL     1      19.246  17.764  16.990  1.00  0.00     0.227 A 
HETATM   26  N2  UNL     1      19.040  17.406  18.291  1.00  0.00    -0.320 N 
HETATM   27  C22 UNL     1      19.491  18.355  19.127  1.00  0.00     0.069 A 
ATOM     28  H2  UNL     1      18.601  16.534  18.589  1.00  0.00     0.169 HD
HETATM   29  C23 UNL     1      19.548  18.530  20.493  1.00  0.00     0.032 A 
HETATM   30  C27 UNL     1      19.995  19.336  18.303  1.00  0.00     0.106 A 
HETATM   31  C24 UNL     1      20.090  19.650  21.081  1.00  0.00     0.002 A 
HETATM   32  C25 UNL     1      20.593  20.628  20.244  1.00  0.00     0.003 A 
HETATM   33  C26 UNL     1      20.552  20.485  18.878  1.00  0.00     0.040 A 
HETATM   34  O4  UNL     1      19.825  18.936  17.075  1.00  0.00    -0.277 OA
ENDBRANCH   1  25
TORSDOF 14
ENDMDL
