MODEL 7
REMARK VINA RESULT: -9.410903769      1.755     10.096
REMARK  14 active torsions:
REMARK  status: ('A' for Active; 'I' for Inactive)
REMARK    1  A    between atoms: O1_2  and  C2_3 
REMARK    2  A    between atoms: C5_6  and  S1_7 
REMARK    3  A    between atoms: S1_7  and  N1_10 
REMARK    4  A    between atoms: N1_10  and  C6_11 
REMARK    5  A    between atoms: N1_10  and  C10_15 
REMARK    6  A    between atoms: C6_11  and  C7_12 
REMARK    7  A    between atoms: C10_15  and  C11_16 
REMARK    8  A    between atoms: C11_16  and  O4_17 
REMARK    9  A    between atoms: C11_16  and  C12_19 
REMARK   10  A    between atoms: C12_19  and  C13_20 
REMARK   11  A    between atoms: C12_19  and  N2_27 
REMARK   12  A    between atoms: C13_20  and  C14_21 
REMARK       I    between atoms: N2_27  and  C20_29 
REMARK   13  A    between atoms: C20_29  and  O6_31 
REMARK   14  A    between atoms: O6_31  and  C21_32 
ROOT
HETATM    1  C12 UNL     1      16.724  24.329  17.527  1.00  0.00     0.029 C 
ENDROOT
BRANCH   1   2
HETATM    2  C11 UNL     1      15.624  24.010  16.625  1.00  0.00     0.203 C 
BRANCH   2   3
HETATM    3  C10 UNL     1      14.285  23.628  17.089  1.00  0.00     0.119 C 
BRANCH   3   4
HETATM    4  N1  UNL     1      13.826  22.310  16.917  1.00  0.00    -0.262 N 
BRANCH   4   5
HETATM    5  S1  UNL     1      14.220  21.133  18.034  1.00  0.00     0.267 S 
HETATM    6  O2  UNL     1      15.623  20.630  17.790  1.00  0.00    -0.200 OA
HETATM    7  O3  UNL     1      14.285  21.797  19.413  1.00  0.00    -0.200 OA
BRANCH   5   8
HETATM    8  C5  UNL     1      13.103  19.818  18.212  1.00  0.00     0.080 A 
HETATM    9  C4  UNL     1      13.588  18.569  18.533  1.00  0.00     0.028 A 
HETATM   10  C3  UNL     1      12.712  17.487  18.696  1.00  0.00     0.038 A 
HETATM   11  C2  UNL     1      11.369  17.646  18.542  1.00  0.00     0.068 A 
HETATM   12  C28 UNL     1      10.879  18.890  18.221  1.00  0.00     0.038 A 
HETATM   13  C27 UNL     1      11.742  19.957  18.061  1.00  0.00     0.028 A 
BRANCH  11  14
HETATM   14  O1  UNL     1      10.519  16.544  18.712  1.00  0.00    -0.356 OA
HETATM   15  C1  UNL     1      10.084  15.753  17.647  1.00  0.00     0.210 C 
ENDBRANCH  11  14
ENDBRANCH   5   8
ENDBRANCH   4   5
BRANCH   4  16
HETATM   16  C6  UNL     1      13.257  21.962  15.691  1.00  0.00     0.085 C 
BRANCH  16  17
HETATM   17  C7  UNL     1      13.937  21.013  14.791  1.00  0.00     0.017 C 
HETATM   18  C8  UNL     1      13.105  20.066  14.011  1.00  0.00     0.015 C 
HETATM   19  C9  UNL     1      14.682  21.871  13.749  1.00  0.00     0.015 C 
ENDBRANCH  16  17
ENDBRANCH   4  16
ENDBRANCH   3   4
ENDBRANCH   2   3
BRANCH   2  20
HETATM   20  O4  UNL     1      15.438  25.124  15.754  1.00  0.00    -0.385 OA
ATOM     21  H4  UNL     1      16.126  25.065  15.101  1.00  0.00     0.211 HD
ENDBRANCH   2  20
ENDBRANCH   1   2
BRANCH   1  22
HETATM   22  C13 UNL     1      16.401  24.548  18.983  1.00  0.00     0.094 C 
BRANCH  22  23
HETATM   23  C14 UNL     1      17.339  23.800  19.851  1.00  0.00    -0.053 A 
HETATM   24  C15 UNL     1      17.306  22.441  20.032  1.00  0.00     0.007 A 
HETATM   25  C16 UNL     1      18.205  21.796  20.850  1.00  0.00     0.001 A 
HETATM   26  C17 UNL     1      19.187  22.512  21.527  1.00  0.00     0.000 A 
HETATM   27  C18 UNL     1      19.232  23.875  21.355  1.00  0.00     0.001 A 
HETATM   28  C19 UNL     1      18.324  24.502  20.533  1.00  0.00     0.007 A 
ENDBRANCH  22  23
ENDBRANCH   1  22
BRANCH   1  29
HETATM   29  N2  UNL     1      17.673  25.325  17.107  1.00  0.00    -0.307 N 
HETATM   30  C20 UNL     1      18.885  25.001  16.381  1.00  0.00     0.365 C 
HETATM   31  O5  UNL     1      19.118  23.798  16.107  1.00  0.00    -0.238 OA
ATOM     32  H2  UNL     1      17.484  26.303  17.329  1.00  0.00     0.170 HD
BRANCH  30  33
HETATM   33  O6  UNL     1      19.779  25.956  15.987  1.00  0.00    -0.296 OA
BRANCH  33  34
HETATM   34  C21 UNL     1      19.849  26.518  14.702  1.00  0.00     0.166 C 
HETATM   35  C22 UNL     1      18.853  27.640  14.511  1.00  0.00     0.204 C 
HETATM   36  O7  UNL     1      19.392  28.784  15.029  1.00  0.00    -0.358 OA
HETATM   37  C23 UNL     1      20.709  28.583  15.341  1.00  0.00     0.266 C 
HETATM   38  O8  UNL     1      20.810  28.305  16.691  1.00  0.00    -0.361 OA
HETATM   39  C26 UNL     1      21.163  27.312  14.651  1.00  0.00     0.075 C 
HETATM   40  C24 UNL     1      21.856  27.444  16.888  1.00  0.00     0.171 C 
HETATM   41  C25 UNL     1      22.173  26.763  15.600  1.00  0.00     0.038 C 
ENDBRANCH  33  34
ENDBRANCH  30  33
ENDBRANCH   1  29
TORSDOF 14
ENDMDL
