MODEL 3
REMARK VINA RESULT: -9.617385995      1.925     10.205
REMARK  14 active torsions:
REMARK  status: ('A' for Active; 'I' for Inactive)
REMARK    1  A    between atoms: O1_2  and  C2_3 
REMARK    2  A    between atoms: C5_6  and  S1_7 
REMARK    3  A    between atoms: S1_7  and  N1_10 
REMARK    4  A    between atoms: N1_10  and  C6_11 
REMARK    5  A    between atoms: N1_10  and  C10_15 
REMARK    6  A    between atoms: C6_11  and  C7_12 
REMARK    7  A    between atoms: C10_15  and  C11_16 
REMARK    8  A    between atoms: C11_16  and  O4_17 
REMARK    9  A    between atoms: C11_16  and  C12_19 
REMARK   10  A    between atoms: C12_19  and  C13_20 
REMARK   11  A    between atoms: C12_19  and  N2_27 
REMARK   12  A    between atoms: C13_20  and  C14_21 
REMARK       I    between atoms: N2_27  and  C20_29 
REMARK   13  A    between atoms: C20_29  and  O6_31 
REMARK   14  A    between atoms: O6_31  and  C21_32 
ROOT
HETATM    1  C12 UNL     1      17.305  24.588  18.422  1.00  0.00     0.029 C 
ENDROOT
BRANCH   1   2
HETATM    2  C11 UNL     1      15.903  24.692  18.035  1.00  0.00     0.203 C 
BRANCH   2   3
HETATM    3  C10 UNL     1      14.944  23.590  18.176  1.00  0.00     0.119 C 
BRANCH   3   4
HETATM    4  N1  UNL     1      15.051  22.450  17.361  1.00  0.00    -0.262 N 
BRANCH   4   5
HETATM    5  S1  UNL     1      15.577  21.003  18.007  1.00  0.00     0.267 S 
HETATM    6  O2  UNL     1      16.598  20.364  17.096  1.00  0.00    -0.200 OA
HETATM    7  O3  UNL     1      16.349  21.316  19.292  1.00  0.00    -0.200 OA
BRANCH   5   8
HETATM    8  C5  UNL     1      14.354  19.865  18.475  1.00  0.00     0.080 A 
HETATM    9  C4  UNL     1      13.180  20.335  19.023  1.00  0.00     0.028 A 
HETATM   10  C3  UNL     1      12.166  19.445  19.402  1.00  0.00     0.038 A 
HETATM   11  C2  UNL     1      12.318  18.102  19.238  1.00  0.00     0.068 A 
HETATM   12  C28 UNL     1      13.488  17.626  18.692  1.00  0.00     0.038 A 
HETATM   13  C27 UNL     1      14.487  18.505  18.318  1.00  0.00     0.028 A 
BRANCH  11  14
HETATM   14  O1  UNL     1      11.286  17.237  19.627  1.00  0.00    -0.356 OA
HETATM   15  C1  UNL     1      10.380  16.684  18.720  1.00  0.00     0.210 C 
ENDBRANCH  11  14
ENDBRANCH   5   8
ENDBRANCH   4   5
BRANCH   4  16
HETATM   16  C6  UNL     1      14.949  22.613  15.978  1.00  0.00     0.085 C 
BRANCH  16  17
HETATM   17  C7  UNL     1      13.840  21.994  15.229  1.00  0.00     0.017 C 
HETATM   18  C8  UNL     1      12.610  22.792  15.010  1.00  0.00     0.015 C 
HETATM   19  C9  UNL     1      14.393  21.683  13.824  1.00  0.00     0.015 C 
ENDBRANCH  16  17
ENDBRANCH   4  16
ENDBRANCH   3   4
ENDBRANCH   2   3
BRANCH   2  20
HETATM   20  O4  UNL     1      15.338  25.800  18.733  1.00  0.00    -0.385 OA
ATOM     21  H4  UNL     1      15.479  26.559  18.178  1.00  0.00     0.211 HD
ENDBRANCH   2  20
ENDBRANCH   1   2
BRANCH   1  22
HETATM   22  C13 UNL     1      17.621  24.413  19.886  1.00  0.00     0.094 C 
BRANCH  22  23
HETATM   23  C14 UNL     1      19.068  24.595  20.139  1.00  0.00    -0.053 A 
HETATM   24  C15 UNL     1      20.053  23.830  19.568  1.00  0.00     0.007 A 
HETATM   25  C16 UNL     1      21.386  24.044  19.838  1.00  0.00     0.001 A 
HETATM   26  C17 UNL     1      21.778  25.053  20.710  1.00  0.00     0.000 A 
HETATM   27  C18 UNL     1      20.802  25.827  21.290  1.00  0.00     0.001 A 
HETATM   28  C19 UNL     1      19.475  25.599  21.008  1.00  0.00     0.007 A 
ENDBRANCH  22  23
ENDBRANCH   1  22
BRANCH   1  29
HETATM   29  N2  UNL     1      18.231  25.532  17.857  1.00  0.00    -0.307 N 
HETATM   30  C20 UNL     1      18.980  25.271  16.643  1.00  0.00     0.365 C 
HETATM   31  O5  UNL     1      18.812  24.172  16.059  1.00  0.00    -0.238 OA
ATOM     32  H2  UNL     1      18.368  26.426  18.331  1.00  0.00     0.170 HD
BRANCH  30  33
HETATM   33  O6  UNL     1      19.857  26.175  16.115  1.00  0.00    -0.296 OA
BRANCH  33  34
HETATM   34  C21 UNL     1      19.858  26.619  14.783  1.00  0.00     0.166 C 
HETATM   35  C22 UNL     1      18.906  27.774  14.562  1.00  0.00     0.204 C 
HETATM   36  O7  UNL     1      19.538  28.927  14.936  1.00  0.00    -0.358 OA
HETATM   37  C23 UNL     1      20.863  28.681  15.170  1.00  0.00     0.266 C 
HETATM   38  O8  UNL     1      21.052  28.515  16.530  1.00  0.00    -0.361 OA
HETATM   39  C26 UNL     1      21.201  27.332  14.568  1.00  0.00     0.075 C 
HETATM   40  C24 UNL     1      22.066  27.618  16.730  1.00  0.00     0.171 C 
HETATM   41  C25 UNL     1      22.252  26.812  15.489  1.00  0.00     0.038 C 
ENDBRANCH  33  34
ENDBRANCH  30  33
ENDBRANCH   1  29
TORSDOF 14
ENDMDL
