MODEL 5
REMARK VINA RESULT: -9.599478261      0.741      1.561
REMARK  14 active torsions:
REMARK  status: ('A' for Active; 'I' for Inactive)
REMARK    1  A    between atoms: O1_2  and  C2_3 
REMARK    2  A    between atoms: C5_6  and  S1_7 
REMARK    3  A    between atoms: S1_7  and  N1_10 
REMARK    4  A    between atoms: N1_10  and  C6_11 
REMARK    5  A    between atoms: N1_10  and  C10_15 
REMARK    6  A    between atoms: C6_11  and  C7_12 
REMARK    7  A    between atoms: C10_15  and  C11_16 
REMARK    8  A    between atoms: C11_16  and  O4_17 
REMARK    9  A    between atoms: C11_16  and  C12_19 
REMARK   10  A    between atoms: C12_19  and  C13_20 
REMARK   11  A    between atoms: C12_19  and  N2_27 
REMARK   12  A    between atoms: C13_20  and  C14_21 
REMARK       I    between atoms: N2_27  and  C20_29 
REMARK   13  A    between atoms: C20_29  and  O6_31 
REMARK   14  A    between atoms: O6_31  and  C21_32 
ROOT
HETATM    1  C12 UNL     1      13.754  22.558  17.268  1.00  0.00     0.029 C 
ENDROOT
BRANCH   1   2
HETATM    2  C11 UNL     1      14.293  23.547  18.195  1.00  0.00     0.203 C 
BRANCH   2   3
HETATM    3  C10 UNL     1      15.482  24.356  17.909  1.00  0.00     0.119 C 
BRANCH   3   4
HETATM    4  N1  UNL     1      16.744  23.745  17.799  1.00  0.00    -0.262 N 
BRANCH   4   5
HETATM    5  S1  UNL     1      17.602  23.845  16.370  1.00  0.00     0.267 S 
HETATM    6  O2  UNL     1      18.600  22.714  16.279  1.00  0.00    -0.200 OA
HETATM    7  O3  UNL     1      16.626  23.590  15.217  1.00  0.00    -0.200 OA
BRANCH   5   8
HETATM    8  C5  UNL     1      18.346  25.370  16.009  1.00  0.00     0.080 A 
HETATM    9  C4  UNL     1      19.142  25.967  16.962  1.00  0.00     0.028 A 
HETATM   10  C3  UNL     1      19.768  27.193  16.699  1.00  0.00     0.038 A 
HETATM   11  C2  UNL     1      19.604  27.818  15.501  1.00  0.00     0.068 A 
HETATM   12  C28 UNL     1      18.810  27.228  14.546  1.00  0.00     0.038 A 
HETATM   13  C27 UNL     1      18.194  26.019  14.805  1.00  0.00     0.028 A 
BRANCH  11  14
HETATM   14  O1  UNL     1      20.243  29.044  15.269  1.00  0.00    -0.356 OA
HETATM   15  C1  UNL     1      21.597  29.142  14.945  1.00  0.00     0.210 C 
ENDBRANCH  11  14
ENDBRANCH   5   8
ENDBRANCH   4   5
BRANCH   4  16
HETATM   16  C6  UNL     1      17.143  22.863  18.804  1.00  0.00     0.085 C 
BRANCH  16  17
HETATM   17  C7  UNL     1      18.221  23.230  19.740  1.00  0.00     0.017 C 
HETATM   18  C8  UNL     1      18.047  24.447  20.569  1.00  0.00     0.015 C 
HETATM   19  C9  UNL     1      18.340  22.060  20.737  1.00  0.00     0.015 C 
ENDBRANCH  16  17
ENDBRANCH   4  16
ENDBRANCH   3   4
ENDBRANCH   2   3
BRANCH   2  20
HETATM   20  O4  UNL     1      13.251  24.471  18.502  1.00  0.00    -0.385 OA
ATOM     21  H4  UNL     1      12.454  23.957  18.564  1.00  0.00     0.211 HD
ENDBRANCH   2  20
ENDBRANCH   1   2
BRANCH   1  22
HETATM   22  C13 UNL     1      13.236  23.047  15.940  1.00  0.00     0.094 C 
BRANCH  22  23
HETATM   23  C14 UNL     1      12.821  21.912  15.085  1.00  0.00    -0.053 A 
HETATM   24  C15 UNL     1      13.693  21.085  14.423  1.00  0.00     0.007 A 
HETATM   25  C16 UNL     1      13.252  20.041  13.642  1.00  0.00     0.001 A 
HETATM   26  C17 UNL     1      11.892  19.791  13.497  1.00  0.00     0.000 A 
HETATM   27  C18 UNL     1      11.006  20.611  14.154  1.00  0.00     0.001 A 
HETATM   28  C19 UNL     1      11.466  21.649  14.931  1.00  0.00     0.007 A 
ENDBRANCH  22  23
ENDBRANCH   1  22
BRANCH   1  29
HETATM   29  N2  UNL     1      12.844  21.573  17.788  1.00  0.00    -0.307 N 
HETATM   30  C20 UNL     1      13.244  20.211  18.085  1.00  0.00     0.365 C 
HETATM   31  O5  UNL     1      14.437  19.877  17.879  1.00  0.00    -0.238 OA
ATOM     32  H2  UNL     1      11.875  21.844  17.956  1.00  0.00     0.170 HD
BRANCH  30  33
HETATM   33  O6  UNL     1      12.371  19.283  18.578  1.00  0.00    -0.296 OA
BRANCH  33  34
HETATM   34  C21 UNL     1      10.987  19.272  18.345  1.00  0.00     0.166 C 
HETATM   35  C22 UNL     1      10.613  18.441  17.138  1.00  0.00     0.204 C 
HETATM   36  O7  UNL     1      10.549  17.131  17.523  1.00  0.00    -0.358 OA
HETATM   37  C23 UNL     1      10.625  17.038  18.886  1.00  0.00     0.266 C 
HETATM   38  O8  UNL     1      11.928  16.745  19.241  1.00  0.00    -0.361 OA
HETATM   39  C26 UNL     1      10.370  18.417  19.462  1.00  0.00     0.075 C 
HETATM   40  C24 UNL     1      12.201  17.330  20.447  1.00  0.00     0.171 C 
HETATM   41  C25 UNL     1      11.216  18.424  20.690  1.00  0.00     0.038 C 
ENDBRANCH  33  34
ENDBRANCH  30  33
ENDBRANCH   1  29
TORSDOF 14
ENDMDL
