MODEL 4
REMARK VINA RESULT: -9.611794237      1.047      1.209
REMARK  14 active torsions:
REMARK  status: ('A' for Active; 'I' for Inactive)
REMARK    1  A    between atoms: O1_2  and  C2_3 
REMARK    2  A    between atoms: C5_6  and  S1_7 
REMARK    3  A    between atoms: S1_7  and  N1_10 
REMARK    4  A    between atoms: N1_10  and  C6_11 
REMARK    5  A    between atoms: N1_10  and  C10_15 
REMARK    6  A    between atoms: C6_11  and  C7_12 
REMARK    7  A    between atoms: C10_15  and  C11_16 
REMARK    8  A    between atoms: C11_16  and  O4_17 
REMARK    9  A    between atoms: C11_16  and  C12_19 
REMARK   10  A    between atoms: C12_19  and  C13_20 
REMARK   11  A    between atoms: C12_19  and  N2_27 
REMARK   12  A    between atoms: C13_20  and  C14_21 
REMARK       I    between atoms: N2_27  and  C20_29 
REMARK   13  A    between atoms: C20_29  and  O6_31 
REMARK   14  A    between atoms: O6_31  and  C21_32 
ROOT
HETATM    1  C12 UNL     1      14.027  22.596  17.356  1.00  0.00     0.029 C 
ENDROOT
BRANCH   1   2
HETATM    2  C11 UNL     1      14.383  23.579  18.373  1.00  0.00     0.203 C 
BRANCH   2   3
HETATM    3  C10 UNL     1      15.519  24.498  18.243  1.00  0.00     0.119 C 
BRANCH   3   4
HETATM    4  N1  UNL     1      16.737  24.047  17.705  1.00  0.00    -0.262 N 
BRANCH   4   5
HETATM    5  S1  UNL     1      17.207  24.526  16.176  1.00  0.00     0.267 S 
HETATM    6  O2  UNL     1      17.107  23.369  15.211  1.00  0.00    -0.200 OA
HETATM    7  O3  UNL     1      16.180  25.542  15.666  1.00  0.00    -0.200 OA
BRANCH   5   8
HETATM    8  C5  UNL     1      18.742  25.324  16.044  1.00  0.00     0.080 A 
HETATM    9  C4  UNL     1      19.489  25.149  14.899  1.00  0.00     0.028 A 
HETATM   10  C3  UNL     1      20.727  25.788  14.754  1.00  0.00     0.038 A 
HETATM   11  C2  UNL     1      21.218  26.592  15.737  1.00  0.00     0.068 A 
HETATM   12  C28 UNL     1      20.478  26.770  16.883  1.00  0.00     0.038 A 
HETATM   13  C27 UNL     1      19.256  26.140  17.025  1.00  0.00     0.028 A 
BRANCH  11  14
HETATM   14  O1  UNL     1      22.461  27.217  15.562  1.00  0.00    -0.356 OA
HETATM   15  C1  UNL     1      23.640  26.726  16.124  1.00  0.00     0.210 C 
ENDBRANCH  11  14
ENDBRANCH   5   8
ENDBRANCH   4   5
BRANCH   4  16
HETATM   16  C6  UNL     1      17.408  23.014  18.361  1.00  0.00     0.085 C 
BRANCH  16  17
HETATM   17  C7  UNL     1      17.657  23.084  19.813  1.00  0.00     0.017 C 
HETATM   18  C8  UNL     1      17.986  21.829  20.529  1.00  0.00     0.015 C 
HETATM   19  C9  UNL     1      18.882  24.002  19.994  1.00  0.00     0.015 C 
ENDBRANCH  16  17
ENDBRANCH   4  16
ENDBRANCH   3   4
ENDBRANCH   2   3
BRANCH   2  20
HETATM   20  O4  UNL     1      13.238  24.396  18.611  1.00  0.00    -0.385 OA
ATOM     21  H4  UNL     1      12.513  23.798  18.752  1.00  0.00     0.211 HD
ENDBRANCH   2  20
ENDBRANCH   1   2
BRANCH   1  22
HETATM   22  C13 UNL     1      13.627  23.105  15.995  1.00  0.00     0.094 C 
BRANCH  22  23
HETATM   23  C14 UNL     1      13.100  22.006  15.154  1.00  0.00    -0.053 A 
HETATM   24  C15 UNL     1      13.886  21.125  14.455  1.00  0.00     0.007 A 
HETATM   25  C16 UNL     1      13.343  20.119  13.689  1.00  0.00     0.001 A 
HETATM   26  C17 UNL     1      11.964  19.963  13.599  1.00  0.00     0.000 A 
HETATM   27  C18 UNL     1      11.164  20.838  14.294  1.00  0.00     0.001 A 
HETATM   28  C19 UNL     1      11.726  21.838  15.055  1.00  0.00     0.007 A 
ENDBRANCH  22  23
ENDBRANCH   1  22
BRANCH   1  29
HETATM   29  N2  UNL     1      13.139  21.529  17.733  1.00  0.00    -0.307 N 
HETATM   30  C20 UNL     1      13.609  20.213  18.121  1.00  0.00     0.365 C 
HETATM   31  O5  UNL     1      14.846  19.996  18.129  1.00  0.00    -0.238 OA
ATOM     32  H2  UNL     1      12.134  21.705  17.727  1.00  0.00     0.170 HD
BRANCH  30  33
HETATM   33  O6  UNL     1      12.757  19.207  18.476  1.00  0.00    -0.296 OA
BRANCH  33  34
HETATM   34  C21 UNL     1      12.901  18.387  19.606  1.00  0.00     0.166 C 
HETATM   35  C22 UNL     1      12.450  19.074  20.876  1.00  0.00     0.204 C 
HETATM   36  O7  UNL     1      11.093  18.951  20.973  1.00  0.00    -0.358 OA
HETATM   37  C23 UNL     1      10.633  18.078  20.025  1.00  0.00     0.266 C 
HETATM   38  O8  UNL     1      10.169  18.800  18.941  1.00  0.00    -0.361 OA
HETATM   39  C26 UNL     1      11.820  17.302  19.490  1.00  0.00     0.075 C 
HETATM   40  C24 UNL     1      10.389  18.077  17.800  1.00  0.00     0.171 C 
HETATM   41  C25 UNL     1      11.441  17.054  18.070  1.00  0.00     0.038 C 
ENDBRANCH  33  34
ENDBRANCH  30  33
ENDBRANCH   1  29
TORSDOF 14
ENDMDL
