MODEL 1
REMARK VINA RESULT: -10.239506264      0.000      0.000
REMARK  14 active torsions:
REMARK  status: ('A' for Active; 'I' for Inactive)
REMARK    1  A    between atoms: O1_2  and  C2_3 
REMARK    2  A    between atoms: C5_6  and  S1_7 
REMARK    3  A    between atoms: S1_7  and  N1_10 
REMARK    4  A    between atoms: N1_10  and  C6_11 
REMARK    5  A    between atoms: N1_10  and  C10_15 
REMARK    6  A    between atoms: C6_11  and  C7_12 
REMARK    7  A    between atoms: C10_15  and  C11_16 
REMARK    8  A    between atoms: C11_16  and  O4_17 
REMARK    9  A    between atoms: C11_16  and  C12_19 
REMARK   10  A    between atoms: C12_19  and  C13_20 
REMARK   11  A    between atoms: C12_19  and  N2_27 
REMARK   12  A    between atoms: C13_20  and  C14_21 
REMARK       I    between atoms: N2_27  and  C20_29 
REMARK   13  A    between atoms: C20_29  and  O6_31 
REMARK   14  A    between atoms: O6_31  and  C21_32 
ROOT
HETATM    1  C12 UNL     1      13.781  22.467  17.266  1.00  0.00     0.029 C 
ENDROOT
BRANCH   1   2
HETATM    2  C11 UNL     1      14.245  23.425  18.262  1.00  0.00     0.203 C 
BRANCH   2   3
HETATM    3  C10 UNL     1      15.475  24.211  18.114  1.00  0.00     0.119 C 
BRANCH   3   4
HETATM    4  N1  UNL     1      16.707  23.564  17.910  1.00  0.00    -0.262 N 
BRANCH   4   5
HETATM    5  S1  UNL     1      17.508  23.725  16.454  1.00  0.00     0.267 S 
HETATM    6  O2  UNL     1      18.456  22.568  16.247  1.00  0.00    -0.200 OA
HETATM    7  O3  UNL     1      16.475  23.580  15.332  1.00  0.00    -0.200 OA
BRANCH   5   8
HETATM    8  C5  UNL     1      18.294  25.243  16.156  1.00  0.00     0.080 A 
HETATM    9  C4  UNL     1      18.139  25.845  14.927  1.00  0.00     0.028 A 
HETATM   10  C3  UNL     1      18.749  27.077  14.657  1.00  0.00     0.038 A 
HETATM   11  C2  UNL     1      19.507  27.703  15.599  1.00  0.00     0.068 A 
HETATM   12  C28 UNL     1      19.667  27.106  16.828  1.00  0.00     0.038 A 
HETATM   13  C27 UNL     1      19.063  25.892  17.094  1.00  0.00     0.028 A 
BRANCH  11  14
HETATM   14  O1  UNL     1      20.105  28.934  15.298  1.00  0.00    -0.356 OA
HETATM   15  C1  UNL     1      21.363  29.038  14.702  1.00  0.00     0.210 C 
ENDBRANCH  11  14
ENDBRANCH   5   8
ENDBRANCH   4   5
BRANCH   4  16
HETATM   16  C6  UNL     1      17.114  22.606  18.840  1.00  0.00     0.085 C 
BRANCH  16  17
HETATM   17  C7  UNL     1      18.216  22.890  19.778  1.00  0.00     0.017 C 
HETATM   18  C8  UNL     1      18.198  24.178  20.511  1.00  0.00     0.015 C 
HETATM   19  C9  UNL     1      18.152  21.793  20.859  1.00  0.00     0.015 C 
ENDBRANCH  16  17
ENDBRANCH   4  16
ENDBRANCH   3   4
ENDBRANCH   2   3
BRANCH   2  20
HETATM   20  O4  UNL     1      13.198  24.368  18.481  1.00  0.00    -0.385 OA
ATOM     21  H4  UNL     1      12.990  24.319  19.407  1.00  0.00     0.211 HD
ENDBRANCH   2  20
ENDBRANCH   1   2
BRANCH   1  22
HETATM   22  C13 UNL     1      13.209  23.008  15.981  1.00  0.00     0.094 C 
BRANCH  22  23
HETATM   23  C14 UNL     1      12.783  21.907  15.088  1.00  0.00    -0.053 A 
HETATM   24  C15 UNL     1      13.644  21.122  14.365  1.00  0.00     0.007 A 
HETATM   25  C16 UNL     1      13.193  20.109  13.550  1.00  0.00     0.001 A 
HETATM   26  C17 UNL     1      11.832  19.848  13.432  1.00  0.00     0.000 A 
HETATM   27  C18 UNL     1      10.957  20.627  14.150  1.00  0.00     0.001 A 
HETATM   28  C19 UNL     1      11.427  21.635  14.960  1.00  0.00     0.007 A 
ENDBRANCH  22  23
ENDBRANCH   1  22
BRANCH   1  29
HETATM   29  N2  UNL     1      12.963  21.372  17.714  1.00  0.00    -0.307 N 
HETATM   30  C20 UNL     1      13.495  20.050  17.984  1.00  0.00     0.365 C 
HETATM   31  O5  UNL     1      14.724  19.853  17.818  1.00  0.00    -0.238 OA
ATOM     32  H2  UNL     1      11.964  21.532  17.849  1.00  0.00     0.170 HD
BRANCH  30  33
HETATM   33  O6  UNL     1      12.708  19.018  18.408  1.00  0.00    -0.296 OA
BRANCH  33  34
HETATM   34  C21 UNL     1      12.884  18.308  19.606  1.00  0.00     0.166 C 
HETATM   35  C22 UNL     1      12.488  19.120  20.819  1.00  0.00     0.204 C 
HETATM   36  O7  UNL     1      11.133  19.027  20.975  1.00  0.00    -0.358 OA
HETATM   37  C23 UNL     1      10.629  18.074  20.132  1.00  0.00     0.266 C 
HETATM   38  O8  UNL     1      10.135  18.696  19.001  1.00  0.00    -0.361 OA
HETATM   39  C26 UNL     1      11.787  17.233  19.634  1.00  0.00     0.075 C 
HETATM   40  C24 UNL     1      10.305  17.864  17.928  1.00  0.00     0.171 C 
HETATM   41  C25 UNL     1      11.353  16.855  18.258  1.00  0.00     0.038 C 
ENDBRANCH  33  34
ENDBRANCH  30  33
ENDBRANCH   1  29
TORSDOF 14
ENDMDL
