MODEL 8
REMARK VINA RESULT: -9.299662387      2.763      9.792
REMARK  14 active torsions:
REMARK  status: ('A' for Active; 'I' for Inactive)
REMARK    1  A    between atoms: O1_2  and  C2_3 
REMARK    2  A    between atoms: C5_6  and  S1_7 
REMARK    3  A    between atoms: S1_7  and  N1_10 
REMARK    4  A    between atoms: N1_10  and  C6_11 
REMARK    5  A    between atoms: N1_10  and  C10_15 
REMARK    6  A    between atoms: C6_11  and  C7_12 
REMARK    7  A    between atoms: C10_15  and  C11_16 
REMARK    8  A    between atoms: C11_16  and  O4_17 
REMARK    9  A    between atoms: C11_16  and  C12_19 
REMARK   10  A    between atoms: C12_19  and  C13_20 
REMARK   11  A    between atoms: C12_19  and  N2_27 
REMARK   12  A    between atoms: C13_20  and  C14_21 
REMARK       I    between atoms: N2_27  and  C20_29 
REMARK   13  A    between atoms: C20_29  and  O6_31 
REMARK   14  A    between atoms: O6_31  and  C21_32 
ROOT
HETATM    1  C12 UNL     1      19.198  24.898  16.099  1.00  0.00     0.029 C 
ENDROOT
BRANCH   1   2
HETATM    2  C11 UNL     1      17.946  24.170  15.931  1.00  0.00     0.203 C 
BRANCH   2   3
HETATM    3  C10 UNL     1      16.859  24.196  16.916  1.00  0.00     0.119 C 
BRANCH   3   4
HETATM    4  N1  UNL     1      16.581  23.058  17.694  1.00  0.00    -0.262 N 
BRANCH   4   5
HETATM    5  S1  UNL     1      15.966  21.682  16.976  1.00  0.00     0.267 S 
HETATM    6  O2  UNL     1      15.733  21.920  15.503  1.00  0.00    -0.200 OA
HETATM    7  O3  UNL     1      17.051  20.602  17.024  1.00  0.00    -0.200 OA
BRANCH   5   8
HETATM    8  C5  UNL     1      14.575  20.964  17.725  1.00  0.00     0.080 A 
HETATM    9  C4  UNL     1      13.402  20.875  17.007  1.00  0.00     0.028 A 
HETATM   10  C3  UNL     1      12.263  20.290  17.576  1.00  0.00     0.038 A 
HETATM   11  C2  UNL     1      12.289  19.800  18.846  1.00  0.00     0.068 A 
HETATM   12  C28 UNL     1      13.457  19.888  19.568  1.00  0.00     0.038 A 
HETATM   13  C27 UNL     1      14.580  20.463  19.006  1.00  0.00     0.028 A 
BRANCH  11  14
HETATM   14  O1  UNL     1      11.133  19.222  19.388  1.00  0.00    -0.356 OA
HETATM   15  C1  UNL     1      11.164  18.334  20.464  1.00  0.00     0.210 C 
ENDBRANCH  11  14
ENDBRANCH   5   8
ENDBRANCH   4   5
BRANCH   4  16
HETATM   16  C6  UNL     1      16.595  23.186  19.084  1.00  0.00     0.085 C 
BRANCH  16  17
HETATM   17  C7  UNL     1      17.872  23.227  19.820  1.00  0.00     0.017 C 
HETATM   18  C8  UNL     1      18.013  24.204  20.926  1.00  0.00     0.015 C 
HETATM   19  C9  UNL     1      18.038  21.837  20.467  1.00  0.00     0.015 C 
ENDBRANCH  16  17
ENDBRANCH   4  16
ENDBRANCH   3   4
ENDBRANCH   2   3
BRANCH   2  20
HETATM   20  O4  UNL     1      17.367  24.577  14.693  1.00  0.00    -0.385 OA
ATOM     21  H4  UNL     1      16.830  23.848  14.402  1.00  0.00     0.211 HD
ENDBRANCH   2  20
ENDBRANCH   1   2
BRANCH   1  22
HETATM   22  C13 UNL     1      20.128  24.982  14.916  1.00  0.00     0.094 C 
BRANCH  22  23
HETATM   23  C14 UNL     1      20.595  26.371  14.708  1.00  0.00    -0.053 A 
HETATM   24  C15 UNL     1      19.881  27.333  14.040  1.00  0.00     0.007 A 
HETATM   25  C16 UNL     1      20.362  28.612  13.877  1.00  0.00     0.001 A 
HETATM   26  C17 UNL     1      21.604  28.972  14.391  1.00  0.00     0.000 A 
HETATM   27  C18 UNL     1      22.330  28.019  15.063  1.00  0.00     0.001 A 
HETATM   28  C19 UNL     1      21.832  26.745  15.215  1.00  0.00     0.007 A 
ENDBRANCH  22  23
ENDBRANCH   1  22
BRANCH   1  29
HETATM   29  N2  UNL     1      19.973  24.641  17.283  1.00  0.00    -0.307 N 
HETATM   30  C20 UNL     1      20.256  25.658  18.276  1.00  0.00     0.365 C 
HETATM   31  O5  UNL     1      19.803  26.816  18.094  1.00  0.00    -0.238 OA
ATOM     32  H2  UNL     1      20.341  23.700  17.430  1.00  0.00     0.170 HD
BRANCH  30  33
HETATM   33  O6  UNL     1      20.994  25.403  19.396  1.00  0.00    -0.296 OA
BRANCH  33  34
HETATM   34  C21 UNL     1      22.354  25.053  19.405  1.00  0.00     0.166 C 
HETATM   35  C22 UNL     1      23.206  26.037  18.635  1.00  0.00     0.204 C 
HETATM   36  O7  UNL     1      23.483  27.096  19.453  1.00  0.00    -0.358 OA
HETATM   37  C23 UNL     1      23.092  26.815  20.733  1.00  0.00     0.266 C 
HETATM   38  O8  UNL     1      21.850  27.381  20.955  1.00  0.00    -0.361 OA
HETATM   39  C26 UNL     1      22.856  25.321  20.832  1.00  0.00     0.075 C 
HETATM   40  C24 UNL     1      21.152  26.590  21.826  1.00  0.00     0.171 C 
HETATM   41  C25 UNL     1      21.753  25.225  21.830  1.00  0.00     0.038 C 
ENDBRANCH  33  34
ENDBRANCH  30  33
ENDBRANCH   1  29
TORSDOF 14
ENDMDL
