MODEL 4
REMARK VINA RESULT: -9.729724567      1.420      4.777
REMARK  14 active torsions:
REMARK  status: ('A' for Active; 'I' for Inactive)
REMARK    1  A    between atoms: O1_2  and  C2_3 
REMARK    2  A    between atoms: C5_6  and  S1_7 
REMARK    3  A    between atoms: S1_7  and  N1_10 
REMARK    4  A    between atoms: N1_10  and  C6_11 
REMARK    5  A    between atoms: N1_10  and  C10_15 
REMARK    6  A    between atoms: C6_11  and  C7_12 
REMARK    7  A    between atoms: C10_15  and  C11_16 
REMARK    8  A    between atoms: C11_16  and  O4_17 
REMARK    9  A    between atoms: C11_16  and  C12_19 
REMARK   10  A    between atoms: C12_19  and  C13_20 
REMARK   11  A    between atoms: C12_19  and  N2_27 
REMARK   12  A    between atoms: C13_20  and  C14_21 
REMARK       I    between atoms: N2_27  and  C20_29 
REMARK   13  A    between atoms: C20_29  and  O6_31 
REMARK   14  A    between atoms: O6_31  and  C21_32 
ROOT
HETATM    1  C12 UNL     1      14.816  22.467  18.818  1.00  0.00     0.029 C 
ENDROOT
BRANCH   1   2
HETATM    2  C11 UNL     1      14.737  23.410  17.709  1.00  0.00     0.203 C 
BRANCH   2   3
HETATM    3  C10 UNL     1      13.651  23.405  16.722  1.00  0.00     0.119 C 
BRANCH   3   4
HETATM    4  N1  UNL     1      13.800  22.705  15.511  1.00  0.00    -0.262 N 
BRANCH   4   5
HETATM    5  S1  UNL     1      15.314  22.516  14.832  1.00  0.00     0.267 S 
HETATM    6  O2  UNL     1      16.063  21.403  15.525  1.00  0.00    -0.200 OA
HETATM    7  O3  UNL     1      15.125  22.017  13.396  1.00  0.00    -0.200 OA
BRANCH   5   8
HETATM    8  C5  UNL     1      16.293  23.942  14.694  1.00  0.00     0.080 A 
HETATM    9  C4  UNL     1      17.466  24.017  15.414  1.00  0.00     0.028 A 
HETATM   10  C3  UNL     1      18.287  25.149  15.317  1.00  0.00     0.038 A 
HETATM   11  C2  UNL     1      17.946  26.194  14.514  1.00  0.00     0.068 A 
HETATM   12  C28 UNL     1      16.775  26.125  13.794  1.00  0.00     0.038 A 
HETATM   13  C27 UNL     1      15.966  25.009  13.889  1.00  0.00     0.028 A 
BRANCH  11  14
HETATM   14  O1  UNL     1      18.788  27.312  14.440  1.00  0.00    -0.356 OA
HETATM   15  C1  UNL     1      19.713  27.629  15.434  1.00  0.00     0.210 C 
ENDBRANCH  11  14
ENDBRANCH   5   8
ENDBRANCH   4   5
BRANCH   4  16
HETATM   16  C6  UNL     1      12.652  22.396  14.779  1.00  0.00     0.085 C 
BRANCH  16  17
HETATM   17  C7  UNL     1      11.824  21.230  15.140  1.00  0.00     0.017 C 
HETATM   18  C8  UNL     1      10.398  21.233  14.739  1.00  0.00     0.015 C 
HETATM   19  C9  UNL     1      12.457  20.019  14.425  1.00  0.00     0.015 C 
ENDBRANCH  16  17
ENDBRANCH   4  16
ENDBRANCH   3   4
ENDBRANCH   2   3
BRANCH   2  20
HETATM   20  O4  UNL     1      14.768  24.728  18.254  1.00  0.00    -0.385 OA
ATOM     21  H4  UNL     1      15.400  24.704  18.964  1.00  0.00     0.211 HD
ENDBRANCH   2  20
ENDBRANCH   1   2
BRANCH   1  22
HETATM   22  C13 UNL     1      16.119  21.741  19.034  1.00  0.00     0.094 C 
BRANCH  22  23
HETATM   23  C14 UNL     1      17.196  22.687  19.404  1.00  0.00    -0.053 A 
HETATM   24  C15 UNL     1      17.196  23.447  20.546  1.00  0.00     0.007 A 
HETATM   25  C16 UNL     1      18.226  24.311  20.843  1.00  0.00     0.001 A 
HETATM   26  C17 UNL     1      19.310  24.442  19.982  1.00  0.00     0.000 A 
HETATM   27  C18 UNL     1      19.323  23.687  18.833  1.00  0.00     0.001 A 
HETATM   28  C19 UNL     1      18.285  22.829  18.554  1.00  0.00     0.007 A 
ENDBRANCH  22  23
ENDBRANCH   1  22
BRANCH   1  29
HETATM   29  N2  UNL     1      13.732  21.537  18.990  1.00  0.00    -0.307 N 
HETATM   30  C20 UNL     1      13.679  20.255  18.313  1.00  0.00     0.365 C 
HETATM   31  O5  UNL     1      14.622  19.944  17.544  1.00  0.00    -0.238 OA
ATOM     32  H2  UNL     1      12.967  21.790  19.615  1.00  0.00     0.170 HD
BRANCH  30  33
HETATM   33  O6  UNL     1      12.644  19.380  18.483  1.00  0.00    -0.296 OA
BRANCH  33  34
HETATM   34  C21 UNL     1      12.627  18.317  19.400  1.00  0.00     0.166 C 
HETATM   35  C22 UNL     1      12.132  18.742  20.764  1.00  0.00     0.204 C 
HETATM   36  O7  UNL     1      10.765  18.734  20.745  1.00  0.00    -0.358 OA
HETATM   37  C23 UNL     1      10.315  18.146  19.595  1.00  0.00     0.266 C 
HETATM   38  O8  UNL     1      10.003  19.135  18.681  1.00  0.00    -0.361 OA
HETATM   39  C26 UNL     1      11.475  17.397  18.969  1.00  0.00     0.075 C 
HETATM   40  C24 UNL     1      10.257  18.669  17.420  1.00  0.00     0.171 C 
HETATM   41  C25 UNL     1      11.195  17.513  17.510  1.00  0.00     0.038 C 
ENDBRANCH  33  34
ENDBRANCH  30  33
ENDBRANCH   1  29
TORSDOF 14
ENDMDL
