MODEL 2
REMARK VINA RESULT: -9.844793566      1.411      1.867
REMARK  14 active torsions:
REMARK  status: ('A' for Active; 'I' for Inactive)
REMARK    1  A    between atoms: O1_2  and  C2_3 
REMARK    2  A    between atoms: C5_6  and  S1_7 
REMARK    3  A    between atoms: S1_7  and  N1_10 
REMARK    4  A    between atoms: N1_10  and  C6_11 
REMARK    5  A    between atoms: N1_10  and  C10_15 
REMARK    6  A    between atoms: C6_11  and  C7_12 
REMARK    7  A    between atoms: C10_15  and  C11_16 
REMARK    8  A    between atoms: C11_16  and  O4_17 
REMARK    9  A    between atoms: C11_16  and  C12_19 
REMARK   10  A    between atoms: C12_19  and  C13_20 
REMARK   11  A    between atoms: C12_19  and  N2_27 
REMARK   12  A    between atoms: C13_20  and  C14_21 
REMARK       I    between atoms: N2_27  and  C20_29 
REMARK   13  A    between atoms: C20_29  and  O6_31 
REMARK   14  A    between atoms: O6_31  and  C21_32 
ROOT
HETATM    1  C12 UNL     1      14.071  22.440  17.249  1.00  0.00     0.029 C 
ENDROOT
BRANCH   1   2
HETATM    2  C11 UNL     1      14.874  23.107  18.267  1.00  0.00     0.203 C 
BRANCH   2   3
HETATM    3  C10 UNL     1      16.336  23.007  18.334  1.00  0.00     0.119 C 
BRANCH   3   4
HETATM    4  N1  UNL     1      17.136  24.127  18.045  1.00  0.00    -0.262 N 
BRANCH   4   5
HETATM    5  S1  UNL     1      17.393  24.588  16.461  1.00  0.00     0.267 S 
HETATM    6  O2  UNL     1      17.283  23.392  15.544  1.00  0.00    -0.200 OA
HETATM    7  O3  UNL     1      16.235  25.499  16.044  1.00  0.00    -0.200 OA
BRANCH   5   8
HETATM    8  C5  UNL     1      18.832  25.500  16.135  1.00  0.00     0.080 A 
HETATM    9  C4  UNL     1      19.768  24.982  15.266  1.00  0.00     0.028 A 
HETATM   10  C3  UNL     1      20.936  25.697  14.971  1.00  0.00     0.038 A 
HETATM   11  C2  UNL     1      21.171  26.915  15.534  1.00  0.00     0.068 A 
HETATM   12  C28 UNL     1      20.241  27.437  16.402  1.00  0.00     0.038 A 
HETATM   13  C27 UNL     1      19.089  26.731  16.692  1.00  0.00     0.028 A 
BRANCH  11  14
HETATM   14  O1  UNL     1      22.350  27.605  15.219  1.00  0.00    -0.356 OA
HETATM   15  C1  UNL     1      23.483  27.578  16.033  1.00  0.00     0.210 C 
ENDBRANCH  11  14
ENDBRANCH   5   8
ENDBRANCH   4   5
BRANCH   4  16
HETATM   16  C6  UNL     1      17.896  24.682  19.076  1.00  0.00     0.085 C 
BRANCH  16  17
HETATM   17  C7  UNL     1      19.089  23.983  19.588  1.00  0.00     0.017 C 
HETATM   18  C8  UNL     1      20.409  24.637  19.425  1.00  0.00     0.015 C 
HETATM   19  C9  UNL     1      18.880  23.837  21.109  1.00  0.00     0.015 C 
ENDBRANCH  16  17
ENDBRANCH   4  16
ENDBRANCH   3   4
ENDBRANCH   2   3
BRANCH   2  20
HETATM   20  O4  UNL     1      14.576  24.501  18.215  1.00  0.00    -0.385 OA
ATOM     21  H4  UNL     1      14.442  24.775  19.115  1.00  0.00     0.211 HD
ENDBRANCH   2  20
ENDBRANCH   1   2
BRANCH   1  22
HETATM   22  C13 UNL     1      13.438  23.294  16.180  1.00  0.00     0.094 C 
BRANCH  22  23
HETATM   23  C14 UNL     1      13.915  22.898  14.836  1.00  0.00    -0.053 A 
HETATM   24  C15 UNL     1      14.498  23.757  13.940  1.00  0.00     0.007 A 
HETATM   25  C16 UNL     1      14.926  23.334  12.702  1.00  0.00     0.001 A 
HETATM   26  C17 UNL     1      14.779  22.006  12.318  1.00  0.00     0.000 A 
HETATM   27  C18 UNL     1      14.197  21.133  13.206  1.00  0.00     0.001 A 
HETATM   28  C19 UNL     1      13.775  21.575  14.439  1.00  0.00     0.007 A 
ENDBRANCH  22  23
ENDBRANCH   1  22
BRANCH   1  29
HETATM   29  N2  UNL     1      13.116  21.455  17.683  1.00  0.00    -0.307 N 
HETATM   30  C20 UNL     1      13.449  20.053  17.843  1.00  0.00     0.365 C 
HETATM   31  O5  UNL     1      14.622  19.683  17.592  1.00  0.00    -0.238 OA
ATOM     32  H2  UNL     1      12.163  21.757  17.887  1.00  0.00     0.170 HD
BRANCH  30  33
HETATM   33  O6  UNL     1      12.534  19.127  18.255  1.00  0.00    -0.296 OA
BRANCH  33  34
HETATM   34  C21 UNL     1      12.679  18.288  19.371  1.00  0.00     0.166 C 
HETATM   35  C22 UNL     1      12.277  18.972  20.660  1.00  0.00     0.204 C 
HETATM   36  O7  UNL     1      10.919  18.886  20.785  1.00  0.00    -0.358 OA
HETATM   37  C23 UNL     1      10.413  18.039  19.837  1.00  0.00     0.266 C 
HETATM   38  O8  UNL     1       9.947  18.788  18.773  1.00  0.00    -0.361 OA
HETATM   39  C26 UNL     1      11.565  17.236  19.267  1.00  0.00     0.075 C 
HETATM   40  C24 UNL     1      10.120  18.074  17.619  1.00  0.00     0.171 C 
HETATM   41  C25 UNL     1      11.147  17.018  17.852  1.00  0.00     0.038 C 
ENDBRANCH  33  34
ENDBRANCH  30  33
ENDBRANCH   1  29
TORSDOF 14
ENDMDL
