MODEL 18
REMARK VINA RESULT: -9.291616671      0.912      1.641
REMARK  14 active torsions:
REMARK  status: ('A' for Active; 'I' for Inactive)
REMARK    1  A    between atoms: O1_2  and  C2_3 
REMARK    2  A    between atoms: C5_6  and  S1_7 
REMARK    3  A    between atoms: S1_7  and  N1_10 
REMARK    4  A    between atoms: N1_10  and  C6_11 
REMARK    5  A    between atoms: N1_10  and  C10_15 
REMARK    6  A    between atoms: C6_11  and  C7_12 
REMARK    7  A    between atoms: C10_15  and  C11_16 
REMARK    8  A    between atoms: C11_16  and  O4_17 
REMARK    9  A    between atoms: C11_16  and  C12_19 
REMARK   10  A    between atoms: C12_19  and  C13_20 
REMARK   11  A    between atoms: C12_19  and  N2_27 
REMARK   12  A    between atoms: C13_20  and  C14_21 
REMARK       I    between atoms: N2_27  and  C20_29 
REMARK   13  A    between atoms: C20_29  and  O6_31 
REMARK   14  A    between atoms: O6_31  and  C21_32 
ROOT
HETATM    1  C12 UNL     1      13.778  22.423  16.927  1.00  0.00     0.029 C 
ENDROOT
BRANCH   1   2
HETATM    2  C11 UNL     1      14.374  23.435  17.790  1.00  0.00     0.203 C 
BRANCH   2   3
HETATM    3  C10 UNL     1      15.315  24.453  17.309  1.00  0.00     0.119 C 
BRANCH   3   4
HETATM    4  N1  UNL     1      16.700  24.214  17.356  1.00  0.00    -0.262 N 
BRANCH   4   5
HETATM    5  S1  UNL     1      17.614  24.302  15.961  1.00  0.00     0.267 S 
HETATM    6  O2  UNL     1      18.561  23.129  15.882  1.00  0.00    -0.200 OA
HETATM    7  O3  UNL     1      16.670  24.115  14.769  1.00  0.00    -0.200 OA
BRANCH   5   8
HETATM    8  C5  UNL     1      18.438  25.798  15.659  1.00  0.00     0.080 A 
HETATM    9  C4  UNL     1      18.236  26.441  14.457  1.00  0.00     0.028 A 
HETATM   10  C3  UNL     1      18.876  27.657  14.185  1.00  0.00     0.038 A 
HETATM   11  C2  UNL     1      19.710  28.228  15.098  1.00  0.00     0.068 A 
HETATM   12  C28 UNL     1      19.917  27.591  16.299  1.00  0.00     0.038 A 
HETATM   13  C27 UNL     1      19.284  26.392  16.568  1.00  0.00     0.028 A 
BRANCH  11  14
HETATM   14  O1  UNL     1      20.336  29.445  14.795  1.00  0.00    -0.356 OA
HETATM   15  C1  UNL     1      21.662  29.527  14.367  1.00  0.00     0.210 C 
ENDBRANCH  11  14
ENDBRANCH   5   8
ENDBRANCH   4   5
BRANCH   4  16
HETATM   16  C6  UNL     1      17.239  23.670  18.523  1.00  0.00     0.085 C 
BRANCH  16  17
HETATM   17  C7  UNL     1      18.101  24.482  19.401  1.00  0.00     0.017 C 
HETATM   18  C8  UNL     1      17.793  24.514  20.850  1.00  0.00     0.015 C 
HETATM   19  C9  UNL     1      19.516  23.881  19.288  1.00  0.00     0.015 C 
ENDBRANCH  16  17
ENDBRANCH   4  16
ENDBRANCH   3   4
ENDBRANCH   2   3
BRANCH   2  20
HETATM   20  O4  UNL     1      13.313  24.146  18.426  1.00  0.00    -0.385 OA
ATOM     21  H4  UNL     1      13.048  23.615  19.167  1.00  0.00     0.211 HD
ENDBRANCH   2  20
ENDBRANCH   1   2
BRANCH   1  22
HETATM   22  C13 UNL     1      13.229  22.867  15.595  1.00  0.00     0.094 C 
BRANCH  22  23
HETATM   23  C14 UNL     1      12.811  21.704  14.781  1.00  0.00    -0.053 A 
HETATM   24  C15 UNL     1      13.674  20.909  14.070  1.00  0.00     0.007 A 
HETATM   25  C16 UNL     1      13.231  19.837  13.330  1.00  0.00     0.001 A 
HETATM   26  C17 UNL     1      11.877  19.523  13.279  1.00  0.00     0.000 A 
HETATM   27  C18 UNL     1      11.000  20.310  13.987  1.00  0.00     0.001 A 
HETATM   28  C19 UNL     1      11.462  21.378  14.721  1.00  0.00     0.007 A 
ENDBRANCH  22  23
ENDBRANCH   1  22
BRANCH   1  29
HETATM   29  N2  UNL     1      12.859  21.488  17.520  1.00  0.00    -0.307 N 
HETATM   30  C20 UNL     1      13.232  20.132  17.872  1.00  0.00     0.365 C 
HETATM   31  O5  UNL     1      14.410  19.758  17.651  1.00  0.00    -0.238 OA
ATOM     32  H2  UNL     1      11.902  21.793  17.700  1.00  0.00     0.170 HD
BRANCH  30  33
HETATM   33  O6  UNL     1      12.351  19.253  18.434  1.00  0.00    -0.296 OA
BRANCH  33  34
HETATM   34  C21 UNL     1      10.957  19.288  18.268  1.00  0.00     0.166 C 
HETATM   35  C22 UNL     1      10.493  18.413  17.125  1.00  0.00     0.204 C 
HETATM   36  O7  UNL     1      10.396  17.128  17.580  1.00  0.00    -0.358 OA
HETATM   37  C23 UNL     1      10.535  17.102  18.941  1.00  0.00     0.266 C 
HETATM   38  O8  UNL     1      11.842  16.773  19.249  1.00  0.00    -0.361 OA
HETATM   39  C26 UNL     1      10.363  18.517  19.455  1.00  0.00     0.075 C 
HETATM   40  C24 UNL     1      12.196  17.406  20.409  1.00  0.00     0.171 C 
HETATM   41  C25 UNL     1      11.268  18.551  20.640  1.00  0.00     0.038 C 
ENDBRANCH  33  34
ENDBRANCH  30  33
ENDBRANCH   1  29
TORSDOF 14
ENDMDL
