MODEL 10
REMARK VINA RESULT: -9.496145160      1.716     10.187
REMARK  14 active torsions:
REMARK  status: ('A' for Active; 'I' for Inactive)
REMARK    1  A    between atoms: O1_2  and  C2_3 
REMARK    2  A    between atoms: C5_6  and  S1_7 
REMARK    3  A    between atoms: S1_7  and  N1_10 
REMARK    4  A    between atoms: N1_10  and  C6_11 
REMARK    5  A    between atoms: N1_10  and  C10_15 
REMARK    6  A    between atoms: C6_11  and  C7_12 
REMARK    7  A    between atoms: C10_15  and  C11_16 
REMARK    8  A    between atoms: C11_16  and  O4_17 
REMARK    9  A    between atoms: C11_16  and  C12_19 
REMARK   10  A    between atoms: C12_19  and  C13_20 
REMARK   11  A    between atoms: C12_19  and  N2_27 
REMARK   12  A    between atoms: C13_20  and  C14_21 
REMARK       I    between atoms: N2_27  and  C20_29 
REMARK   13  A    between atoms: C20_29  and  O6_31 
REMARK   14  A    between atoms: O6_31  and  C21_32 
ROOT
HETATM    1  C12 UNL     1      16.384  24.275  17.037  1.00  0.00     0.029 C 
ENDROOT
BRANCH   1   2
HETATM    2  C11 UNL     1      15.348  23.830  16.113  1.00  0.00     0.203 C 
BRANCH   2   3
HETATM    3  C10 UNL     1      13.994  23.456  16.538  1.00  0.00     0.119 C 
BRANCH   3   4
HETATM    4  N1  UNL     1      13.561  22.123  16.429  1.00  0.00    -0.262 N 
BRANCH   4   5
HETATM    5  S1  UNL     1      13.966  21.011  17.607  1.00  0.00     0.267 S 
HETATM    6  O2  UNL     1      15.390  20.546  17.419  1.00  0.00    -0.200 OA
HETATM    7  O3  UNL     1      13.973  21.737  18.955  1.00  0.00    -0.200 OA
BRANCH   5   8
HETATM    8  C5  UNL     1      12.888  19.667  17.817  1.00  0.00     0.080 A 
HETATM    9  C4  UNL     1      13.359  18.523  18.425  1.00  0.00     0.028 A 
HETATM   10  C3  UNL     1      12.513  17.424  18.622  1.00  0.00     0.038 A 
HETATM   11  C2  UNL     1      11.213  17.461  18.219  1.00  0.00     0.068 A 
HETATM   12  C28 UNL     1      10.738  18.600  17.611  1.00  0.00     0.038 A 
HETATM   13  C27 UNL     1      11.572  19.684  17.417  1.00  0.00     0.028 A 
BRANCH  11  14
HETATM   14  O1  UNL     1      10.392  16.345  18.430  1.00  0.00    -0.356 OA
HETATM   15  C1  UNL     1       9.845  15.600  17.385  1.00  0.00     0.210 C 
ENDBRANCH  11  14
ENDBRANCH   5   8
ENDBRANCH   4   5
BRANCH   4  16
HETATM   16  C6  UNL     1      13.010  21.703  15.217  1.00  0.00     0.085 C 
BRANCH  16  17
HETATM   17  C7  UNL     1      13.754  20.788  14.332  1.00  0.00     0.017 C 
HETATM   18  C8  UNL     1      12.985  19.805  13.533  1.00  0.00     0.015 C 
HETATM   19  C9  UNL     1      14.481  21.682  13.307  1.00  0.00     0.015 C 
ENDBRANCH  16  17
ENDBRANCH   4  16
ENDBRANCH   3   4
ENDBRANCH   2   3
BRANCH   2  20
HETATM   20  O4  UNL     1      15.185  24.841  15.120  1.00  0.00    -0.385 OA
ATOM     21  H4  UNL     1      15.992  24.849  14.618  1.00  0.00     0.211 HD
ENDBRANCH   2  20
ENDBRANCH   1   2
BRANCH   1  22
HETATM   22  C13 UNL     1      16.000  24.483  18.479  1.00  0.00     0.094 C 
BRANCH  22  23
HETATM   23  C14 UNL     1      17.049  23.963  19.385  1.00  0.00    -0.053 A 
HETATM   24  C15 UNL     1      17.824  24.749  20.199  1.00  0.00     0.007 A 
HETATM   25  C16 UNL     1      18.785  24.212  21.026  1.00  0.00     0.001 A 
HETATM   26  C17 UNL     1      19.003  22.838  21.059  1.00  0.00     0.000 A 
HETATM   27  C18 UNL     1      18.233  22.039  20.249  1.00  0.00     0.001 A 
HETATM   28  C19 UNL     1      17.277  22.594  19.430  1.00  0.00     0.007 A 
ENDBRANCH  22  23
ENDBRANCH   1  22
BRANCH   1  29
HETATM   29  N2  UNL     1      17.236  25.357  16.622  1.00  0.00    -0.307 N 
HETATM   30  C20 UNL     1      18.660  25.197  16.398  1.00  0.00     0.365 C 
HETATM   31  O5  UNL     1      19.171  24.063  16.573  1.00  0.00    -0.238 OA
ATOM     32  H2  UNL     1      16.821  26.278  16.480  1.00  0.00     0.170 HD
BRANCH  30  33
HETATM   33  O6  UNL     1      19.460  26.232  16.005  1.00  0.00    -0.296 OA
BRANCH  33  34
HETATM   34  C21 UNL     1      19.616  26.675  14.682  1.00  0.00     0.166 C 
HETATM   35  C22 UNL     1      18.778  27.898  14.383  1.00  0.00     0.204 C 
HETATM   36  O7  UNL     1      19.455  29.001  14.822  1.00  0.00    -0.358 OA
HETATM   37  C23 UNL     1      20.731  28.657  15.176  1.00  0.00     0.266 C 
HETATM   38  O8  UNL     1      20.780  28.477  16.546  1.00  0.00    -0.361 OA
HETATM   39  C26 UNL     1      21.023  27.287  14.598  1.00  0.00     0.075 C 
HETATM   40  C24 UNL     1      21.702  27.507  16.832  1.00  0.00     0.171 C 
HETATM   41  C25 UNL     1      21.943  26.690  15.608  1.00  0.00     0.038 C 
ENDBRANCH  33  34
ENDBRANCH  30  33
ENDBRANCH   1  29
TORSDOF 14
ENDMDL
