MODEL 5
REMARK VINA RESULT: -9.673525536      3.269     10.440
REMARK  14 active torsions:
REMARK  status: ('A' for Active; 'I' for Inactive)
REMARK    1  A    between atoms: O1_2  and  C2_3 
REMARK    2  A    between atoms: C5_6  and  S1_7 
REMARK    3  A    between atoms: S1_7  and  N1_10 
REMARK    4  A    between atoms: N1_10  and  C6_11 
REMARK    5  A    between atoms: N1_10  and  C10_15 
REMARK    6  A    between atoms: C6_11  and  C7_12 
REMARK    7  A    between atoms: C10_15  and  C11_16 
REMARK    8  A    between atoms: C11_16  and  O4_17 
REMARK    9  A    between atoms: C11_16  and  C12_19 
REMARK   10  A    between atoms: C12_19  and  C13_20 
REMARK   11  A    between atoms: C12_19  and  N2_27 
REMARK   12  A    between atoms: C13_20  and  C14_21 
REMARK       I    between atoms: N2_27  and  C20_29 
REMARK   13  A    between atoms: C20_29  and  O6_31 
REMARK   14  A    between atoms: O6_31  and  C21_32 
ROOT
HETATM    1  C12 UNL     1      19.506  25.655  16.603  1.00  0.00     0.029 C 
ENDROOT
BRANCH   1   2
HETATM    2  C11 UNL     1      18.138  25.149  16.579  1.00  0.00     0.203 C 
BRANCH   2   3
HETATM    3  C10 UNL     1      17.755  23.888  15.934  1.00  0.00     0.119 C 
BRANCH   3   4
HETATM    4  N1  UNL     1      16.624  23.182  16.378  1.00  0.00    -0.262 N 
BRANCH   4   5
HETATM    5  S1  UNL     1      16.805  21.750  17.218  1.00  0.00     0.267 S 
HETATM    6  O2  UNL     1      17.498  20.722  16.355  1.00  0.00    -0.200 OA
HETATM    7  O3  UNL     1      17.780  22.002  18.372  1.00  0.00    -0.200 OA
BRANCH   5   8
HETATM    8  C5  UNL     1      15.382  21.091  17.959  1.00  0.00     0.080 A 
HETATM    9  C4  UNL     1      14.738  20.036  17.348  1.00  0.00     0.028 A 
HETATM   10  C3  UNL     1      13.593  19.472  17.926  1.00  0.00     0.038 A 
HETATM   11  C2  UNL     1      13.092  19.952  19.098  1.00  0.00     0.068 A 
HETATM   12  C28 UNL     1      13.730  21.006  19.711  1.00  0.00     0.038 A 
HETATM   13  C27 UNL     1      14.860  21.561  19.142  1.00  0.00     0.028 A 
BRANCH  11  14
HETATM   14  O1  UNL     1      11.945  19.367  19.649  1.00  0.00    -0.356 OA
HETATM   15  C1  UNL     1      11.991  18.481  20.726  1.00  0.00     0.210 C 
ENDBRANCH  11  14
ENDBRANCH   5   8
ENDBRANCH   4   5
BRANCH   4  16
HETATM   16  C6  UNL     1      15.371  23.566  15.896  1.00  0.00     0.085 C 
BRANCH  16  17
HETATM   17  C7  UNL     1      14.704  22.786  14.838  1.00  0.00     0.017 C 
HETATM   18  C8  UNL     1      13.230  22.645  14.895  1.00  0.00     0.015 C 
HETATM   19  C9  UNL     1      15.002  23.519  13.514  1.00  0.00     0.015 C 
ENDBRANCH  16  17
ENDBRANCH   4  16
ENDBRANCH   3   4
ENDBRANCH   2   3
BRANCH   2  20
HETATM   20  O4  UNL     1      17.684  25.057  17.928  1.00  0.00    -0.385 OA
ATOM     21  H4  UNL     1      17.153  25.831  18.080  1.00  0.00     0.211 HD
ENDBRANCH   2  20
ENDBRANCH   1   2
BRANCH   1  22
HETATM   22  C13 UNL     1      20.303  25.590  15.325  1.00  0.00     0.094 C 
BRANCH  22  23
HETATM   23  C14 UNL     1      20.744  26.941  14.909  1.00  0.00    -0.053 A 
HETATM   24  C15 UNL     1      20.036  27.758  14.065  1.00  0.00     0.007 A 
HETATM   25  C16 UNL     1      20.492  29.007  13.712  1.00  0.00     0.001 A 
HETATM   26  C17 UNL     1      21.701  29.485  14.206  1.00  0.00     0.000 A 
HETATM   27  C18 UNL     1      22.422  28.677  15.053  1.00  0.00     0.001 A 
HETATM   28  C19 UNL     1      21.949  27.431  15.395  1.00  0.00     0.007 A 
ENDBRANCH  22  23
ENDBRANCH   1  22
BRANCH   1  29
HETATM   29  N2  UNL     1      20.351  25.260  17.698  1.00  0.00    -0.307 N 
HETATM   30  C20 UNL     1      20.853  26.198  18.683  1.00  0.00     0.365 C 
HETATM   31  O5  UNL     1      20.536  27.408  18.575  1.00  0.00    -0.238 OA
ATOM     32  H2  UNL     1      20.608  24.276  17.786  1.00  0.00     0.170 HD
BRANCH  30  33
HETATM   33  O6  UNL     1      21.656  25.812  19.718  1.00  0.00    -0.296 OA
BRANCH  33  34
HETATM   34  C21 UNL     1      22.979  25.361  19.591  1.00  0.00     0.166 C 
HETATM   35  C22 UNL     1      23.809  26.259  18.701  1.00  0.00     0.204 C 
HETATM   36  O7  UNL     1      24.251  27.314  19.449  1.00  0.00    -0.358 OA
HETATM   37  C23 UNL     1      23.985  27.093  20.773  1.00  0.00     0.266 C 
HETATM   38  O8  UNL     1      22.820  27.757  21.110  1.00  0.00    -0.361 OA
HETATM   39  C26 UNL     1      23.655  25.624  20.944  1.00  0.00     0.075 C 
HETATM   40  C24 UNL     1      22.167  27.041  22.077  1.00  0.00     0.171 C 
HETATM   41  C25 UNL     1      22.666  25.635  22.060  1.00  0.00     0.038 C 
ENDBRANCH  33  34
ENDBRANCH  30  33
ENDBRANCH   1  29
TORSDOF 14
ENDMDL
