MODEL 3
REMARK VINA RESULT: -9.810892645      1.073      1.481
REMARK  14 active torsions:
REMARK  status: ('A' for Active; 'I' for Inactive)
REMARK    1  A    between atoms: O1_2  and  C2_3 
REMARK    2  A    between atoms: C5_6  and  S1_7 
REMARK    3  A    between atoms: S1_7  and  N1_10 
REMARK    4  A    between atoms: N1_10  and  C6_11 
REMARK    5  A    between atoms: N1_10  and  C10_15 
REMARK    6  A    between atoms: C6_11  and  C7_12 
REMARK    7  A    between atoms: C10_15  and  C11_16 
REMARK    8  A    between atoms: C11_16  and  O4_17 
REMARK    9  A    between atoms: C11_16  and  C12_19 
REMARK   10  A    between atoms: C12_19  and  C13_20 
REMARK   11  A    between atoms: C12_19  and  N2_27 
REMARK   12  A    between atoms: C13_20  and  C14_21 
REMARK       I    between atoms: N2_27  and  C20_29 
REMARK   13  A    between atoms: C20_29  and  O6_31 
REMARK   14  A    between atoms: O6_31  and  C21_32 
ROOT
HETATM    1  C12 UNL     1      13.506  21.833  16.852  1.00  0.00     0.029 C 
ENDROOT
BRANCH   1   2
HETATM    2  C11 UNL     1      14.034  22.732  17.871  1.00  0.00     0.203 C 
BRANCH   2   3
HETATM    3  C10 UNL     1      15.465  22.861  18.169  1.00  0.00     0.119 C 
BRANCH   3   4
HETATM    4  N1  UNL     1      16.214  23.908  17.601  1.00  0.00    -0.262 N 
BRANCH   4   5
HETATM    5  S1  UNL     1      16.552  23.906  15.966  1.00  0.00     0.267 S 
HETATM    6  O2  UNL     1      16.676  22.489  15.459  1.00  0.00    -0.200 OA
HETATM    7  O3  UNL     1      15.330  24.471  15.234  1.00  0.00    -0.200 OA
BRANCH   5   8
HETATM    8  C5  UNL     1      17.888  24.881  15.442  1.00  0.00     0.080 A 
HETATM    9  C4  UNL     1      17.658  26.192  15.085  1.00  0.00     0.028 A 
HETATM   10  C3  UNL     1      18.716  27.011  14.669  1.00  0.00     0.038 A 
HETATM   11  C2  UNL     1      19.989  26.532  14.608  1.00  0.00     0.068 A 
HETATM   12  C28 UNL     1      20.225  25.223  14.963  1.00  0.00     0.038 A 
HETATM   13  C27 UNL     1      19.181  24.416  15.374  1.00  0.00     0.028 A 
BRANCH  11  14
HETATM   14  O1  UNL     1      21.026  27.376  14.187  1.00  0.00    -0.356 OA
HETATM   15  C1  UNL     1      20.815  28.703  13.813  1.00  0.00     0.210 C 
ENDBRANCH  11  14
ENDBRANCH   5   8
ENDBRANCH   4   5
BRANCH   4  16
HETATM   16  C6  UNL     1      16.865  24.796  18.458  1.00  0.00     0.085 C 
BRANCH  16  17
HETATM   17  C7  UNL     1      18.101  24.396  19.156  1.00  0.00     0.017 C 
HETATM   18  C8  UNL     1      19.331  25.187  18.914  1.00  0.00     0.015 C 
HETATM   19  C9  UNL     1      17.805  24.533  20.663  1.00  0.00     0.015 C 
ENDBRANCH  16  17
ENDBRANCH   4  16
ENDBRANCH   3   4
ENDBRANCH   2   3
BRANCH   2  20
HETATM   20  O4  UNL     1      13.572  24.048  17.574  1.00  0.00    -0.385 OA
ATOM     21  H4  UNL     1      12.994  23.960  16.824  1.00  0.00     0.211 HD
ENDBRANCH   2  20
ENDBRANCH   1   2
BRANCH   1  22
HETATM   22  C13 UNL     1      12.887  22.447  15.622  1.00  0.00     0.094 C 
BRANCH  22  23
HETATM   23  C14 UNL     1      12.263  21.410  14.771  1.00  0.00    -0.053 A 
HETATM   24  C15 UNL     1      10.909  21.220  14.653  1.00  0.00     0.007 A 
HETATM   25  C16 UNL     1      10.381  20.240  13.844  1.00  0.00     0.001 A 
HETATM   26  C17 UNL     1      11.215  19.401  13.112  1.00  0.00     0.000 A 
HETATM   27  C18 UNL     1      12.573  19.579  13.220  1.00  0.00     0.001 A 
HETATM   28  C19 UNL     1      13.082  20.565  14.034  1.00  0.00     0.007 A 
ENDBRANCH  22  23
ENDBRANCH   1  22
BRANCH   1  29
HETATM   29  N2  UNL     1      12.687  20.732  17.284  1.00  0.00    -0.307 N 
HETATM   30  C20 UNL     1      13.237  19.464  17.721  1.00  0.00     0.365 C 
HETATM   31  O5  UNL     1      14.485  19.320  17.722  1.00  0.00    -0.238 OA
ATOM     32  H2  UNL     1      11.673  20.849  17.284  1.00  0.00     0.170 HD
BRANCH  30  33
HETATM   33  O6  UNL     1      12.450  18.426  18.129  1.00  0.00    -0.296 OA
BRANCH  33  34
HETATM   34  C21 UNL     1      12.503  17.818  19.393  1.00  0.00     0.166 C 
HETATM   35  C22 UNL     1      12.286  18.808  20.516  1.00  0.00     0.204 C 
HETATM   36  O7  UNL     1      10.940  18.991  20.672  1.00  0.00    -0.358 OA
HETATM   37  C23 UNL     1      10.253  18.072  19.927  1.00  0.00     0.266 C 
HETATM   38  O8  UNL     1       9.870  18.661  18.736  1.00  0.00    -0.361 OA
HETATM   39  C26 UNL     1      11.223  16.980  19.522  1.00  0.00     0.075 C 
HETATM   40  C24 UNL     1       9.865  17.708  17.753  1.00  0.00     0.171 C 
HETATM   41  C25 UNL     1      10.707  16.557  18.189  1.00  0.00     0.038 C 
ENDBRANCH  33  34
ENDBRANCH  30  33
ENDBRANCH   1  29
TORSDOF 14
ENDMDL
