MODEL 1
REMARK VINA RESULT: -9.935206515      0.000      0.000
REMARK  14 active torsions:
REMARK  status: ('A' for Active; 'I' for Inactive)
REMARK    1  A    between atoms: O1_2  and  C2_3 
REMARK    2  A    between atoms: C5_6  and  S1_7 
REMARK    3  A    between atoms: S1_7  and  N1_10 
REMARK    4  A    between atoms: N1_10  and  C6_11 
REMARK    5  A    between atoms: N1_10  and  C10_15 
REMARK    6  A    between atoms: C6_11  and  C7_12 
REMARK    7  A    between atoms: C10_15  and  C11_16 
REMARK    8  A    between atoms: C11_16  and  O4_17 
REMARK    9  A    between atoms: C11_16  and  C12_19 
REMARK   10  A    between atoms: C12_19  and  C13_20 
REMARK   11  A    between atoms: C12_19  and  N2_27 
REMARK   12  A    between atoms: C13_20  and  C14_21 
REMARK       I    between atoms: N2_27  and  C20_29 
REMARK   13  A    between atoms: C20_29  and  O6_31 
REMARK   14  A    between atoms: O6_31  and  C21_32 
ROOT
HETATM    1  C12 UNL     1      13.807  22.460  17.037  1.00  0.00     0.029 C 
ENDROOT
BRANCH   1   2
HETATM    2  C11 UNL     1      14.271  23.471  17.980  1.00  0.00     0.203 C 
BRANCH   2   3
HETATM    3  C10 UNL     1      15.455  24.306  17.750  1.00  0.00     0.119 C 
BRANCH   3   4
HETATM    4  N1  UNL     1      16.723  23.714  17.615  1.00  0.00    -0.262 N 
BRANCH   4   5
HETATM    5  S1  UNL     1      17.556  23.833  16.172  1.00  0.00     0.267 S 
HETATM    6  O2  UNL     1      18.592  22.738  16.074  1.00  0.00    -0.200 OA
HETATM    7  O3  UNL     1      16.572  23.534  15.037  1.00  0.00    -0.200 OA
BRANCH   5   8
HETATM    8  C5  UNL     1      18.238  25.381  15.789  1.00  0.00     0.080 A 
HETATM    9  C4  UNL     1      19.037  26.008  16.721  1.00  0.00     0.028 A 
HETATM   10  C3  UNL     1      19.614  27.253  16.439  1.00  0.00     0.038 A 
HETATM   11  C2  UNL     1      19.399  27.869  15.244  1.00  0.00     0.068 A 
HETATM   12  C28 UNL     1      18.602  27.249  14.310  1.00  0.00     0.038 A 
HETATM   13  C27 UNL     1      18.034  26.020  14.588  1.00  0.00     0.028 A 
BRANCH  11  14
HETATM   14  O1  UNL     1      19.990  29.115  14.993  1.00  0.00    -0.356 OA
HETATM   15  C1  UNL     1      21.160  29.261  14.246  1.00  0.00     0.210 C 
ENDBRANCH  11  14
ENDBRANCH   5   8
ENDBRANCH   4   5
BRANCH   4  16
HETATM   16  C6  UNL     1      17.151  22.831  18.608  1.00  0.00     0.085 C 
BRANCH  16  17
HETATM   17  C7  UNL     1      18.248  23.204  19.520  1.00  0.00     0.017 C 
HETATM   18  C8  UNL     1      18.103  24.440  20.325  1.00  0.00     0.015 C 
HETATM   19  C9  UNL     1      18.367  22.053  20.540  1.00  0.00     0.015 C 
ENDBRANCH  16  17
ENDBRANCH   4  16
ENDBRANCH   3   4
ENDBRANCH   2   3
BRANCH   2  20
HETATM   20  O4  UNL     1      13.192  24.372  18.219  1.00  0.00    -0.385 OA
ATOM     21  H4  UNL     1      13.006  24.787  17.385  1.00  0.00     0.211 HD
ENDBRANCH   2  20
ENDBRANCH   1   2
BRANCH   1  22
HETATM   22  C13 UNL     1      13.323  22.925  15.687  1.00  0.00     0.094 C 
BRANCH  22  23
HETATM   23  C14 UNL     1      12.848  21.783  14.874  1.00  0.00    -0.053 A 
HETATM   24  C15 UNL     1      13.667  20.972  14.131  1.00  0.00     0.007 A 
HETATM   25  C16 UNL     1      13.172  19.921  13.393  1.00  0.00     0.001 A 
HETATM   26  C17 UNL     1      11.809  19.647  13.377  1.00  0.00     0.000 A 
HETATM   27  C18 UNL     1      10.976  20.452  14.117  1.00  0.00     0.001 A 
HETATM   28  C19 UNL     1      11.490  21.498  14.849  1.00  0.00     0.007 A 
ENDBRANCH  22  23
ENDBRANCH   1  22
BRANCH   1  29
HETATM   29  N2  UNL     1      12.915  21.442  17.525  1.00  0.00    -0.307 N 
HETATM   30  C20 UNL     1      13.351  20.094  17.830  1.00  0.00     0.365 C 
HETATM   31  O5  UNL     1      14.560  19.801  17.662  1.00  0.00    -0.238 OA
ATOM     32  H2  UNL     1      11.932  21.680  17.662  1.00  0.00     0.170 HD
BRANCH  30  33
HETATM   33  O6  UNL     1      12.494  19.135  18.292  1.00  0.00    -0.296 OA
BRANCH  33  34
HETATM   34  C21 UNL     1      12.721  18.321  19.413  1.00  0.00     0.166 C 
HETATM   35  C22 UNL     1      12.322  18.999  20.706  1.00  0.00     0.204 C 
HETATM   36  O7  UNL     1      10.976  18.840  20.876  1.00  0.00    -0.358 OA
HETATM   37  C23 UNL     1      10.489  17.953  19.955  1.00  0.00     0.266 C 
HETATM   38  O8  UNL     1       9.948  18.660  18.897  1.00  0.00    -0.361 OA
HETATM   39  C26 UNL     1      11.665  17.208  19.357  1.00  0.00     0.075 C 
HETATM   40  C24 UNL     1      10.125  17.941  17.747  1.00  0.00     0.171 C 
HETATM   41  C25 UNL     1      11.217  16.947  17.959  1.00  0.00     0.038 C 
ENDBRANCH  33  34
ENDBRANCH  30  33
ENDBRANCH   1  29
TORSDOF 14
ENDMDL
