MODEL 3
REMARK VINA RESULT: -9.199127510      2.825      3.985
REMARK  14 active torsions:
REMARK  status: ('A' for Active; 'I' for Inactive)
REMARK    1  A    between atoms: C2_2  and  C3_3 
REMARK    2  A    between atoms: C3_3  and  C4_4 
REMARK    3  A    between atoms: C4_4  and  C5_5 
REMARK    4  A    between atoms: C5_5  and  C6_6 
REMARK    5  A    between atoms: C6_6  and  C7_7 
REMARK    6  A    between atoms: C7_7  and  N1_8 
REMARK    7  A    between atoms: N1_8  and  C8_9 
REMARK    8  A    between atoms: N1_8  and  C21_25 
REMARK    9  A    between atoms: C8_9  and  C9_10 
REMARK   10  A    between atoms: C9_10  and  C10_11 
REMARK   11  A    between atoms: C13_14  and  O1_15 
REMARK   12  A    between atoms: O1_15  and  C14_16 
REMARK   13  A    between atoms: C14_16  and  C16_18 
REMARK   14  A    between atoms: C14_16  and  C18_20 
ROOT
HETATM    1  N1  UNL     1      19.553  16.587  16.304  1.00  0.00    -0.347 N 
ENDROOT
BRANCH   1   2
HETATM    2  C7  UNL     1      20.313  16.786  15.075  1.00  0.00     0.126 C 
BRANCH   2   3
HETATM    3  C6  UNL     1      21.765  16.737  15.199  1.00  0.00     0.020 C 
BRANCH   3   4
HETATM    4  C5  UNL     1      22.627  17.849  14.776  1.00  0.00     0.002 C 
BRANCH   4   5
HETATM    5  C4  UNL     1      22.979  18.060  13.357  1.00  0.00     0.000 C 
BRANCH   5   6
HETATM    6  C3  UNL     1      23.286  19.417  12.899  1.00  0.00    -0.000 C 
BRANCH   6   7
HETATM    7  C2  UNL     1      24.837  19.548  12.767  1.00  0.00    -0.005 C 
HETATM    8  C1  UNL     1      25.018  20.640  11.721  1.00  0.00     0.005 C 
ENDBRANCH   6   7
ENDBRANCH   5   6
ENDBRANCH   4   5
ENDBRANCH   3   4
ENDBRANCH   2   3
ENDBRANCH   1   2
BRANCH   1   9
HETATM    9  C8  UNL     1      18.605  15.532  16.439  1.00  0.00     0.131 C 
BRANCH   9  10
HETATM   10  C9  UNL     1      18.440  14.694  15.219  1.00  0.00     0.058 C 
BRANCH  10  11
HETATM   11  C10 UNL     1      17.439  15.280  14.281  1.00  0.00    -0.057 A 
HETATM   12  C11 UNL     1      16.121  15.306  14.661  1.00  0.00     0.010 A 
HETATM   13  C12 UNL     1      15.167  15.857  13.819  1.00  0.00     0.037 A 
HETATM   14  C13 UNL     1      15.516  16.398  12.574  1.00  0.00     0.070 A 
HETATM   15  C19 UNL     1      16.848  16.350  12.236  1.00  0.00     0.037 A 
HETATM   16  C20 UNL     1      17.821  15.791  13.084  1.00  0.00     0.010 A 
BRANCH  14  17
HETATM   17  O1  UNL     1      14.567  16.930  11.779  1.00  0.00    -0.330 OA
BRANCH  17  18
HETATM   18  C14 UNL     1      14.502  17.191  10.432  1.00  0.00     0.151 C 
HETATM   19  C15 UNL     1      15.392  16.387   9.540  1.00  0.00     0.059 C 
BRANCH  18  20
HETATM   20  C16 UNL     1      13.034  16.989  10.003  1.00  0.00     0.045 C 
HETATM   21  C17 UNL     1      12.349  16.243  11.117  1.00  0.00     0.009 C 
ENDBRANCH  18  20
BRANCH  18  22
HETATM   22  C18 UNL     1      14.758  18.648  10.203  1.00  0.00     0.209 C 
HETATM   23  O2  UNL     1      13.928  19.327   9.552  1.00  0.00    -0.646 OA
HETATM   24  O3  UNL     1      15.872  19.314  10.671  1.00  0.00    -0.646 OA
ENDBRANCH  18  22
ENDBRANCH  17  18
ENDBRANCH  14  17
ENDBRANCH  10  11
ENDBRANCH   9  10
ENDBRANCH   1   9
BRANCH   1  25
HETATM   25  C21 UNL     1      19.731  17.519  17.358  1.00  0.00     0.227 A 
HETATM   26  N2  UNL     1      20.079  18.836  17.246  1.00  0.00    -0.320 N 
HETATM   27  C22 UNL     1      20.159  19.421  18.448  1.00  0.00     0.069 A 
ATOM     28  H2  UNL     1      20.256  19.312  16.361  1.00  0.00     0.169 HD
HETATM   29  C23 UNL     1      20.461  20.684  18.905  1.00  0.00     0.032 A 
HETATM   30  C27 UNL     1      19.846  18.417  19.338  1.00  0.00     0.106 A 
HETATM   31  C24 UNL     1      20.466  21.011  20.251  1.00  0.00     0.002 A 
HETATM   32  C25 UNL     1      20.151  19.998  21.129  1.00  0.00     0.003 A 
HETATM   33  C26 UNL     1      19.847  18.729  20.692  1.00  0.00     0.040 A 
HETATM   34  O4  UNL     1      19.606  17.335  18.648  1.00  0.00    -0.277 OA
ENDBRANCH   1  25
TORSDOF 14
ENDMDL
