MODEL 2
REMARK VINA RESULT: -10.162854234      0.569      1.296
REMARK  14 active torsions:
REMARK  status: ('A' for Active; 'I' for Inactive)
REMARK    1  A    between atoms: C2_2  and  C3_3 
REMARK    2  A    between atoms: C3_3  and  C4_4 
REMARK    3  A    between atoms: C4_4  and  C5_5 
REMARK    4  A    between atoms: C5_5  and  C6_6 
REMARK    5  A    between atoms: C6_6  and  C7_7 
REMARK    6  A    between atoms: C7_7  and  N1_8 
REMARK    7  A    between atoms: N1_8  and  C8_9 
REMARK    8  A    between atoms: N1_8  and  C21_25 
REMARK    9  A    between atoms: C8_9  and  C9_10 
REMARK   10  A    between atoms: C9_10  and  C10_11 
REMARK   11  A    between atoms: C13_14  and  O1_15 
REMARK   12  A    between atoms: O1_15  and  C14_16 
REMARK   13  A    between atoms: C14_16  and  C16_18 
REMARK   14  A    between atoms: C14_16  and  C18_20 
ROOT
HETATM    1  N1  UNL     1      18.959  16.888  15.797  1.00  0.00    -0.347 N 
ENDROOT
BRANCH   1   2
HETATM    2  C7  UNL     1      19.971  16.698  14.766  1.00  0.00     0.126 C 
BRANCH   2   3
HETATM    3  C6  UNL     1      21.355  16.923  15.170  1.00  0.00     0.020 C 
BRANCH   3   4
HETATM    4  C5  UNL     1      22.402  17.294  14.209  1.00  0.00     0.002 C 
BRANCH   4   5
HETATM    5  C4  UNL     1      22.964  18.660  14.164  1.00  0.00     0.000 C 
BRANCH   5   6
HETATM    6  C3  UNL     1      23.325  19.233  12.865  1.00  0.00    -0.000 C 
BRANCH   6   7
HETATM    7  C2  UNL     1      24.846  19.583  12.892  1.00  0.00    -0.005 C 
HETATM    8  C1  UNL     1      24.995  20.627  11.794  1.00  0.00     0.005 C 
ENDBRANCH   6   7
ENDBRANCH   5   6
ENDBRANCH   4   5
ENDBRANCH   3   4
ENDBRANCH   2   3
ENDBRANCH   1   2
BRANCH   1   9
HETATM    9  C8  UNL     1      17.641  16.361  15.663  1.00  0.00     0.131 C 
BRANCH   9  10
HETATM   10  C9  UNL     1      16.854  16.951  14.546  1.00  0.00     0.058 C 
BRANCH  10  11
HETATM   11  C10 UNL     1      15.461  16.422  14.515  1.00  0.00    -0.057 A 
HETATM   12  C11 UNL     1      14.698  16.514  15.651  1.00  0.00     0.010 A 
HETATM   13  C12 UNL     1      13.394  16.044  15.652  1.00  0.00     0.037 A 
HETATM   14  C13 UNL     1      12.823  15.471  14.507  1.00  0.00     0.070 A 
HETATM   15  C19 UNL     1      13.623  15.401  13.392  1.00  0.00     0.037 A 
HETATM   16  C20 UNL     1      14.948  15.874  13.384  1.00  0.00     0.010 A 
BRANCH  14  17
HETATM   17  O1  UNL     1      11.551  15.028  14.537  1.00  0.00    -0.330 OA
BRANCH  17  18
HETATM   18  C14 UNL     1      10.988  13.784  14.689  1.00  0.00     0.151 C 
HETATM   19  C15 UNL     1      11.787  12.764  15.435  1.00  0.00     0.059 C 
BRANCH  18  20
HETATM   20  C16 UNL     1       9.631  13.984  15.394  1.00  0.00     0.045 C 
HETATM   21  C17 UNL     1       9.636  13.102  16.615  1.00  0.00     0.009 C 
ENDBRANCH  18  20
BRANCH  18  22
HETATM   22  C18 UNL     1      10.629  13.242  13.341  1.00  0.00     0.209 C 
HETATM   23  O2  UNL     1      11.398  12.427  12.777  1.00  0.00    -0.646 OA
HETATM   24  O3  UNL     1       9.481  13.586  12.657  1.00  0.00    -0.646 OA
ENDBRANCH  18  22
ENDBRANCH  17  18
ENDBRANCH  14  17
ENDBRANCH  10  11
ENDBRANCH   9  10
ENDBRANCH   1   9
BRANCH   1  25
HETATM   25  C21 UNL     1      19.295  17.675  16.928  1.00  0.00     0.227 A 
HETATM   26  N2  UNL     1      19.763  18.960  16.929  1.00  0.00    -0.320 N 
HETATM   27  C22 UNL     1      19.977  19.397  18.177  1.00  0.00     0.069 A 
ATOM     28  H2  UNL     1      19.927  19.514  16.088  1.00  0.00     0.169 HD
HETATM   29  C23 UNL     1      20.430  20.569  18.740  1.00  0.00     0.032 A 
HETATM   30  C27 UNL     1      19.626  18.332  18.977  1.00  0.00     0.106 A 
HETATM   31  C24 UNL     1      20.555  20.741  20.109  1.00  0.00     0.002 A 
HETATM   32  C25 UNL     1      20.201  19.669  20.896  1.00  0.00     0.003 A 
HETATM   33  C26 UNL     1      19.746  18.489  20.352  1.00  0.00     0.040 A 
HETATM   34  O4  UNL     1      19.237  17.361  18.197  1.00  0.00    -0.277 OA
ENDBRANCH   1  25
TORSDOF 14
ENDMDL
