MODEL 1
REMARK VINA RESULT: -10.263419529      0.000      0.000
REMARK  14 active torsions:
REMARK  status: ('A' for Active; 'I' for Inactive)
REMARK    1  A    between atoms: C2_2  and  C3_3 
REMARK    2  A    between atoms: C3_3  and  C4_4 
REMARK    3  A    between atoms: C4_4  and  C5_5 
REMARK    4  A    between atoms: C5_5  and  C6_6 
REMARK    5  A    between atoms: C6_6  and  C7_7 
REMARK    6  A    between atoms: C7_7  and  N1_8 
REMARK    7  A    between atoms: N1_8  and  C8_9 
REMARK    8  A    between atoms: N1_8  and  C21_25 
REMARK    9  A    between atoms: C8_9  and  C9_10 
REMARK   10  A    between atoms: C9_10  and  C10_11 
REMARK   11  A    between atoms: C13_14  and  O1_15 
REMARK   12  A    between atoms: O1_15  and  C14_16 
REMARK   13  A    between atoms: C14_16  and  C16_18 
REMARK   14  A    between atoms: C14_16  and  C18_20 
ROOT
HETATM    1  N1  UNL     1      18.997  16.883  15.768  1.00  0.00    -0.347 N 
ENDROOT
BRANCH   1   2
HETATM    2  C7  UNL     1      20.007  16.715  14.731  1.00  0.00     0.126 C 
BRANCH   2   3
HETATM    3  C6  UNL     1      21.397  16.765  15.170  1.00  0.00     0.020 C 
BRANCH   3   4
HETATM    4  C5  UNL     1      22.289  17.880  14.826  1.00  0.00     0.002 C 
BRANCH   4   5
HETATM    5  C4  UNL     1      22.859  18.028  13.472  1.00  0.00     0.000 C 
BRANCH   5   6
HETATM    6  C3  UNL     1      23.180  19.370  12.982  1.00  0.00    -0.000 C 
BRANCH   6   7
HETATM    7  C2  UNL     1      24.734  19.503  12.905  1.00  0.00    -0.005 C 
HETATM    8  C1  UNL     1      24.954  20.523  11.796  1.00  0.00     0.005 C 
ENDBRANCH   6   7
ENDBRANCH   5   6
ENDBRANCH   4   5
ENDBRANCH   3   4
ENDBRANCH   2   3
ENDBRANCH   1   2
BRANCH   1   9
HETATM    9  C8  UNL     1      17.690  16.327  15.642  1.00  0.00     0.131 C 
BRANCH   9  10
HETATM   10  C9  UNL     1      16.908  16.852  14.488  1.00  0.00     0.058 C 
BRANCH  10  11
HETATM   11  C10 UNL     1      15.491  16.391  14.529  1.00  0.00    -0.057 A 
HETATM   12  C11 UNL     1      14.947  15.840  13.397  1.00  0.00     0.010 A 
HETATM   13  C12 UNL     1      13.637  15.387  13.405  1.00  0.00     0.037 A 
HETATM   14  C13 UNL     1      12.840  15.476  14.556  1.00  0.00     0.070 A 
HETATM   15  C19 UNL     1      13.427  16.035  15.666  1.00  0.00     0.037 A 
HETATM   16  C20 UNL     1      14.756  16.497  15.665  1.00  0.00     0.010 A 
BRANCH  14  17
HETATM   17  O1  UNL     1      11.571  15.024  14.534  1.00  0.00    -0.330 OA
BRANCH  17  18
HETATM   18  C14 UNL     1      11.011  13.778  14.682  1.00  0.00     0.151 C 
HETATM   19  C15 UNL     1      11.815  12.754  15.417  1.00  0.00     0.059 C 
BRANCH  18  20
HETATM   20  C16 UNL     1       9.658  13.972  15.396  1.00  0.00     0.045 C 
HETATM   21  C17 UNL     1       9.669  13.077  16.607  1.00  0.00     0.009 C 
ENDBRANCH  18  20
BRANCH  18  22
HETATM   22  C18 UNL     1      10.644  13.245  13.332  1.00  0.00     0.209 C 
HETATM   23  O2  UNL     1      11.419  12.447  12.750  1.00  0.00    -0.646 OA
HETATM   24  O3  UNL     1       9.483  13.578  12.665  1.00  0.00    -0.646 OA
ENDBRANCH  18  22
ENDBRANCH  17  18
ENDBRANCH  14  17
ENDBRANCH  10  11
ENDBRANCH   9  10
ENDBRANCH   1   9
BRANCH   1  25
HETATM   25  C21 UNL     1      19.322  17.678  16.897  1.00  0.00     0.227 A 
HETATM   26  N2  UNL     1      19.257  17.310  18.212  1.00  0.00    -0.320 N 
HETATM   27  C22 UNL     1      19.637  18.313  19.015  1.00  0.00     0.069 A 
ATOM     28  H2  UNL     1      18.958  16.392  18.539  1.00  0.00     0.169 HD
HETATM   29  C23 UNL     1      19.757  18.486  20.376  1.00  0.00     0.032 A 
HETATM   30  C27 UNL     1      19.947  19.342  18.153  1.00  0.00     0.106 A 
HETATM   31  C24 UNL     1      20.188  19.674  20.943  1.00  0.00     0.002 A 
HETATM   32  C25 UNL     1      20.496  20.694  20.070  1.00  0.00     0.003 A 
HETATM   33  C26 UNL     1      20.381  20.540  18.707  1.00  0.00     0.040 A 
HETATM   34  O4  UNL     1      19.747  18.916  16.937  1.00  0.00    -0.277 OA
ENDBRANCH   1  25
TORSDOF 14
ENDMDL
