MODEL 1
REMARK VINA RESULT: -9.147690409      0.000      0.000
REMARK  3 active torsions:
REMARK  status: ('A' for Active; 'I' for Inactive)
REMARK    1  A    between atoms: C3_4  and  N1_5 
REMARK    2  A    between atoms: C10_18  and  O2_19 
REMARK    3  A    between atoms: C11_21  and  O3_22 
ROOT
HETATM    1  N1  UNL     1       8.649 -19.816  21.743  1.00  0.00    -0.311 N 
HETATM    2  C4  UNL     1       8.245 -20.419  22.871  1.00  0.00     0.114 A 
HETATM    3  C5  UNL     1       8.098 -21.750  22.644  1.00  0.00     0.039 A 
HETATM    4  I1  UNL     1       7.491 -23.195  24.031  1.00  0.00    -0.042 I 
HETATM    5  C6  UNL     1       8.415 -21.997  21.340  1.00  0.00     0.067 A 
HETATM    6  C7  UNL     1       8.444 -23.155  20.569  1.00  0.00     0.132 A 
HETATM    7  N2  UNL     1       8.085 -24.404  21.163  1.00  0.00    -0.082 NA
HETATM    8  N3  UNL     1       8.812 -23.052  19.282  1.00  0.00    -0.340 N 
ATOM      9  H3  UNL     1       8.837 -23.891  18.702  1.00  0.00     0.167 HD
HETATM   10  C8  UNL     1       9.148 -21.863  18.739  1.00  0.00     0.183 A 
HETATM   11  N4  UNL     1       9.117 -20.749  19.489  1.00  0.00    -0.338 N 
ATOM     12  H4  UNL     1       9.374 -19.860  19.060  1.00  0.00     0.168 HD
HETATM   13  C9  UNL     1       8.758 -20.763  20.795  1.00  0.00     0.125 A 
ENDROOT
BRANCH   1  14
HETATM   14  C3  UNL     1       8.907 -18.423  21.598  1.00  0.00     0.260 C 
HETATM   15  O1  UNL     1       9.722 -17.908  22.604  1.00  0.00    -0.356 OA
HETATM   16  C2  UNL     1       9.497 -16.561  22.532  1.00  0.00     0.151 C 
HETATM   17  C1  UNL     1      10.117 -15.770  23.648  1.00  0.00     0.042 C 
HETATM   18  C11 UNL     1       7.965 -16.527  22.622  1.00  0.00     0.179 C 
HETATM   19  C10 UNL     1       7.670 -17.579  21.544  1.00  0.00     0.198 C 
BRANCH  18  20
HETATM   20  O3  UNL     1       7.477 -15.291  22.278  1.00  0.00    -0.390 OA
ATOM     21  H3  UNL     1       6.588 -15.354  21.952  1.00  0.00     0.210 HD
ENDBRANCH  18  20
BRANCH  19  22
HETATM   22  O2  UNL     1       7.583 -16.843  20.341  1.00  0.00    -0.388 OA
ATOM     23  H2  UNL     1       6.683 -16.652  20.104  1.00  0.00     0.210 HD
ENDBRANCH  19  22
ENDBRANCH   1  14
TORSDOF 3
ENDMDL
