MODEL 6
REMARK VINA RESULT: -5.678433010      4.208      6.177
REMARK  3 active torsions:
REMARK  status: ('A' for Active; 'I' for Inactive)
REMARK    1  A    between atoms: C3_4  and  N1_5 
REMARK    2  A    between atoms: C10_18  and  O2_19 
REMARK    3  A    between atoms: C11_21  and  O3_22 
ROOT
HETATM    1  N1  UNL     1      11.304 -18.263  23.243  1.00  0.00    -0.311 N 
HETATM    2  C4  UNL     1      10.630 -19.354  22.849  1.00  0.00     0.114 A 
HETATM    3  C5  UNL     1       9.352 -19.012  22.548  1.00  0.00     0.039 A 
HETATM    4  I1  UNL     1       7.839 -20.294  21.878  1.00  0.00    -0.042 I 
HETATM    5  C6  UNL     1       9.209 -17.670  22.757  1.00  0.00     0.067 A 
HETATM    6  C7  UNL     1       8.140 -16.792  22.615  1.00  0.00     0.132 A 
HETATM    7  N2  UNL     1       6.878 -17.288  22.163  1.00  0.00    -0.082 NA
HETATM    8  N3  UNL     1       8.337 -15.498  22.913  1.00  0.00    -0.340 N 
ATOM      9  H3  UNL     1       7.564 -14.841  22.815  1.00  0.00     0.167 HD
HETATM   10  C8  UNL     1       9.537 -15.048  23.338  1.00  0.00     0.183 A 
HETATM   11  N4  UNL     1      10.565 -15.903  23.473  1.00  0.00    -0.338 N 
ATOM     12  H4  UNL     1      11.463 -15.544  23.796  1.00  0.00     0.168 HD
HETATM   13  C9  UNL     1      10.452 -17.223  23.194  1.00  0.00     0.125 A 
ENDROOT
BRANCH   1  14
HETATM   14  C3  UNL     1      12.671 -18.234  23.639  1.00  0.00     0.260 C 
HETATM   15  O1  UNL     1      13.495 -19.009  22.825  1.00  0.00    -0.356 OA
HETATM   16  C2  UNL     1      14.614 -19.188  23.590  1.00  0.00     0.151 C 
HETATM   17  C1  UNL     1      15.605 -20.162  23.018  1.00  0.00     0.042 C 
HETATM   18  C11 UNL     1      13.988 -19.738  24.879  1.00  0.00     0.179 C 
HETATM   19  C10 UNL     1      12.902 -18.667  25.055  1.00  0.00     0.198 C 
BRANCH  18  20
HETATM   20  O3  UNL     1      14.892 -19.723  25.911  1.00  0.00    -0.390 OA
ATOM     21  H3  UNL     1      15.779 -19.835  25.590  1.00  0.00     0.210 HD
ENDBRANCH  18  20
BRANCH  19  22
HETATM   22  O2  UNL     1      13.519 -17.654  25.824  1.00  0.00    -0.388 OA
ATOM     23  H2  UNL     1      12.886 -17.045  26.184  1.00  0.00     0.210 HD
ENDBRANCH  19  22
ENDBRANCH   1  14
TORSDOF 3
ENDMDL
