MODEL 7
REMARK VINA RESULT: -5.478211464      3.372      6.297
REMARK  3 active torsions:
REMARK  status: ('A' for Active; 'I' for Inactive)
REMARK    1  A    between atoms: C3_4  and  N1_5 
REMARK    2  A    between atoms: C10_18  and  O2_19 
REMARK    3  A    between atoms: C11_21  and  O3_22 
ROOT
HETATM    1  N1  UNL     1       8.033 -18.027  22.467  1.00  0.00    -0.311 N 
HETATM    2  C4  UNL     1       6.719 -17.977  22.734  1.00  0.00     0.114 A 
HETATM    3  C5  UNL     1       6.378 -16.713  23.091  1.00  0.00     0.039 A 
HETATM    4  I1  UNL     1       4.469 -16.035  23.619  1.00  0.00    -0.042 I 
HETATM    5  C6  UNL     1       7.503 -15.940  23.051  1.00  0.00     0.067 A 
HETATM    6  C7  UNL     1       7.745 -14.596  23.312  1.00  0.00     0.132 A 
HETATM    7  N2  UNL     1       6.665 -13.752  23.716  1.00  0.00    -0.082 NA
HETATM    8  N3  UNL     1       8.999 -14.139  23.174  1.00  0.00    -0.340 N 
ATOM      9  H3  UNL     1       9.196 -13.156  23.363  1.00  0.00     0.167 HD
HETATM   10  C8  UNL     1      10.007 -14.951  22.790  1.00  0.00     0.183 A 
HETATM   11  N4  UNL     1       9.765 -16.249  22.540  1.00  0.00    -0.338 N 
ATOM     12  H4  UNL     1      10.540 -16.847  22.252  1.00  0.00     0.168 HD
HETATM   13  C9  UNL     1       8.530 -16.792  22.655  1.00  0.00     0.125 A 
ENDROOT
BRANCH   1  14
HETATM   14  C3  UNL     1       8.750 -19.188  22.061  1.00  0.00     0.260 C 
HETATM   15  O1  UNL     1       8.800 -19.347  20.678  1.00  0.00    -0.356 OA
HETATM   16  C2  UNL     1       9.127 -20.667  20.525  1.00  0.00     0.151 C 
HETATM   17  C1  UNL     1       9.061 -21.160  19.107  1.00  0.00     0.042 C 
HETATM   18  C11 UNL     1       8.041 -21.326  21.385  1.00  0.00     0.179 C 
HETATM   19  C10 UNL     1       8.218 -20.463  22.642  1.00  0.00     0.198 C 
BRANCH  18  20
HETATM   20  O3  UNL     1       8.335 -22.645  21.625  1.00  0.00    -0.390 OA
ATOM     21  H3  UNL     1       8.369 -22.823  22.557  1.00  0.00     0.210 HD
ENDBRANCH  18  20
BRANCH  19  22
HETATM   22  O2  UNL     1       9.193 -21.143  23.408  1.00  0.00    -0.388 OA
ATOM     23  H2  UNL     1       9.944 -20.593  23.598  1.00  0.00     0.210 HD
ENDBRANCH  19  22
ENDBRANCH   1  14
TORSDOF 3
ENDMDL
