MODEL 4
REMARK VINA RESULT: -6.714135698      1.330      1.967
REMARK  3 active torsions:
REMARK  status: ('A' for Active; 'I' for Inactive)
REMARK    1  A    between atoms: C3_4  and  N1_5 
REMARK    2  A    between atoms: C10_18  and  O2_19 
REMARK    3  A    between atoms: C11_21  and  O3_22 
ROOT
HETATM    1  N1  UNL     1       8.367 -20.402  22.535  1.00  0.00    -0.311 N 
HETATM    2  C4  UNL     1       8.005 -21.393  23.364  1.00  0.00     0.114 A 
HETATM    3  C5  UNL     1       7.993 -22.568  22.684  1.00  0.00     0.039 A 
HETATM    4  I1  UNL     1       7.507 -24.452  23.454  1.00  0.00    -0.042 I 
HETATM    5  C6  UNL     1       8.355 -22.317  21.392  1.00  0.00     0.067 A 
HETATM    6  C7  UNL     1       8.510 -23.126  20.272  1.00  0.00     0.132 A 
HETATM    7  N2  UNL     1       8.265 -24.530  20.379  1.00  0.00    -0.082 NA
HETATM    8  N3  UNL     1       8.888 -22.550  19.120  1.00  0.00    -0.340 N 
ATOM      9  H3  UNL     1       9.006 -23.128  18.288  1.00  0.00     0.167 HD
HETATM   10  C8  UNL     1       9.115 -21.221  19.038  1.00  0.00     0.183 A 
HETATM   11  N4  UNL     1       8.963 -20.446  20.125  1.00  0.00    -0.338 N 
ATOM     12  H4  UNL     1       9.138 -19.444  20.043  1.00  0.00     0.168 HD
HETATM   13  C9  UNL     1       8.585 -20.946  21.326  1.00  0.00     0.125 A 
ENDROOT
BRANCH   1  14
HETATM   14  C3  UNL     1       8.490 -19.029  22.894  1.00  0.00     0.260 C 
HETATM   15  O1  UNL     1       7.865 -18.168  21.994  1.00  0.00    -0.356 OA
HETATM   16  C2  UNL     1       8.442 -16.958  22.265  1.00  0.00     0.151 C 
HETATM   17  C1  UNL     1       8.082 -15.870  21.294  1.00  0.00     0.042 C 
HETATM   18  C11 UNL     1       9.928 -17.324  22.150  1.00  0.00     0.179 C 
HETATM   19  C10 UNL     1       9.906 -18.567  23.050  1.00  0.00     0.198 C 
BRANCH  18  20
HETATM   20  O3  UNL     1      10.723 -16.332  22.667  1.00  0.00    -0.390 OA
ATOM     21  H3  UNL     1      11.124 -15.820  21.975  1.00  0.00     0.210 HD
ENDBRANCH  18  20
BRANCH  19  22
HETATM   22  O2  UNL     1      10.162 -18.072  24.349  1.00  0.00    -0.388 OA
ATOM     23  H2  UNL     1      10.354 -17.141  24.344  1.00  0.00     0.210 HD
ENDBRANCH  19  22
ENDBRANCH   1  14
TORSDOF 3
ENDMDL
