MODEL 5
REMARK VINA RESULT: -6.110903553      3.382      5.837
REMARK  3 active torsions:
REMARK  status: ('A' for Active; 'I' for Inactive)
REMARK    1  A    between atoms: C3_4  and  N1_5 
REMARK    2  A    between atoms: C10_18  and  O2_19 
REMARK    3  A    between atoms: C11_21  and  O3_22 
ROOT
HETATM    1  N1  UNL     1       7.937 -18.679  21.874  1.00  0.00    -0.311 N 
HETATM    2  C4  UNL     1       7.015 -17.748  22.166  1.00  0.00     0.114 A 
HETATM    3  C5  UNL     1       7.600 -16.732  22.851  1.00  0.00     0.039 A 
HETATM    4  I1  UNL     1       6.661 -15.006  23.569  1.00  0.00    -0.042 I 
HETATM    5  C6  UNL     1       8.925 -17.026  22.999  1.00  0.00     0.067 A 
HETATM    6  C7  UNL     1       9.986 -16.360  23.603  1.00  0.00     0.132 A 
HETATM    7  N2  UNL     1       9.757 -15.099  24.234  1.00  0.00    -0.082 NA
HETATM    8  N3  UNL     1      11.198 -16.937  23.572  1.00  0.00    -0.340 N 
ATOM      9  H3  UNL     1      11.987 -16.464  24.011  1.00  0.00     0.167 HD
HETATM   10  C8  UNL     1      11.395 -18.130  22.970  1.00  0.00     0.183 A 
HETATM   11  N4  UNL     1      10.364 -18.766  22.389  1.00  0.00    -0.338 N 
ATOM     12  H4  UNL     1      10.533 -19.668  21.941  1.00  0.00     0.168 HD
HETATM   13  C9  UNL     1       9.110 -18.256  22.375  1.00  0.00     0.125 A 
ENDROOT
BRANCH   1  14
HETATM   14  C3  UNL     1       7.692 -19.888  21.163  1.00  0.00     0.260 C 
HETATM   15  O1  UNL     1       7.639 -21.009  21.989  1.00  0.00    -0.356 OA
HETATM   16  C2  UNL     1       7.827 -22.049  21.120  1.00  0.00     0.151 C 
HETATM   17  C1  UNL     1       8.005 -23.385  21.784  1.00  0.00     0.042 C 
HETATM   18  C11 UNL     1       9.122 -21.605  20.427  1.00  0.00     0.179 C 
HETATM   19  C10 UNL     1       8.693 -20.171  20.085  1.00  0.00     0.198 C 
BRANCH  18  20
HETATM   20  O3  UNL     1       9.360 -22.351  19.300  1.00  0.00    -0.390 OA
ATOM     21  H3  UNL     1       8.619 -22.318  18.707  1.00  0.00     0.210 HD
ENDBRANCH  18  20
BRANCH  19  22
HETATM   22  O2  UNL     1       8.086 -20.274  18.812  1.00  0.00    -0.388 OA
ATOM     23  H2  UNL     1       8.666 -20.669  18.172  1.00  0.00     0.210 HD
ENDBRANCH  19  22
ENDBRANCH   1  14
TORSDOF 3
ENDMDL
