MODEL 2
REMARK VINA RESULT: -8.326540088      0.610      1.305
REMARK  5 active torsions:
REMARK  status: ('A' for Active; 'I' for Inactive)
REMARK    1  A    between atoms: N1_2  and  C3_4 
REMARK    2  A    between atoms: C6_7  and  C7_8 
REMARK    3  A    between atoms: C10_16  and  C11_17 
REMARK    4  A    between atoms: C12_18  and  C13_19 
REMARK    5  A    between atoms: C16_22  and  N5_23 
ROOT
HETATM    1  C7  UNL     1       5.820  -3.014  27.145  1.00  0.00     0.051 A 
HETATM    2  C8  UNL     1       6.739  -3.000  28.172  1.00  0.00     0.131 A 
HETATM    3  N2  UNL     1       8.108  -2.964  27.858  1.00  0.00    -0.082 NA
HETATM    4  N3  UNL     1       6.338  -3.022  29.475  1.00  0.00    -0.340 N 
ATOM      5  H3  UNL     1       7.034  -3.012  30.222  1.00  0.00     0.167 HD
HETATM    6  C9  UNL     1       5.034  -3.057  29.779  1.00  0.00     0.182 A 
HETATM    7  N4  UNL     1       4.138  -3.070  28.784  1.00  0.00    -0.344 N 
ATOM      8  H4  UNL     1       3.146  -3.096  29.021  1.00  0.00     0.167 HD
HETATM    9  C10 UNL     1       4.489  -3.050  27.487  1.00  0.00     0.102 A 
ENDROOT
BRANCH   9  10
HETATM   10  C11 UNL     1       3.513  -3.064  26.432  1.00  0.00    -0.042 C 
HETATM   11  C12 UNL     1       2.694  -3.060  25.529  1.00  0.00    -0.059 C 
BRANCH  11  12
HETATM   12  C13 UNL     1       1.732  -3.080  24.457  1.00  0.00     0.033 A 
HETATM   13  C14 UNL     1       2.171  -3.180  23.155  1.00  0.00     0.026 A 
HETATM   14  C15 UNL     1       1.229  -3.200  22.117  1.00  0.00     0.050 A 
HETATM   15  C16 UNL     1      -0.117  -3.124  22.346  1.00  0.00     0.103 A 
HETATM   16  N6  UNL     1      -0.516  -3.026  23.647  1.00  0.00    -0.351 N 
HETATM   17  C21 UNL     1       0.376  -3.006  24.648  1.00  0.00     0.110 A 
ATOM     18  H6  UNL     1      -1.511  -2.967  23.862  1.00  0.00     0.166 HD
BRANCH  15  19
HETATM   19  N5  UNL     1      -1.096  -3.145  21.315  1.00  0.00    -0.363 N 
HETATM   20  C17 UNL     1      -1.006  -2.344  20.123  1.00  0.00     0.150 C 
HETATM   21  C18 UNL     1      -1.259  -3.259  18.939  1.00  0.00     0.187 C 
HETATM   22  O1  UNL     1      -2.431  -3.967  19.020  1.00  0.00    -0.388 OA
HETATM   23  C19 UNL     1      -3.122  -3.761  20.198  1.00  0.00     0.187 C 
HETATM   24  C20 UNL     1      -2.278  -4.003  21.420  1.00  0.00     0.150 C 
ENDBRANCH  15  19
ENDBRANCH  11  12
ENDBRANCH   9  10
BRANCH   1  25
HETATM   25  C6  UNL     1       6.165  -2.993  25.731  1.00  0.00    -0.020 A 
HETATM   26  C5  UNL     1       6.311  -4.165  25.008  1.00  0.00     0.014 A 
HETATM   27  C4  UNL     1       6.640  -4.158  23.666  1.00  0.00     0.030 A 
HETATM   28  C3  UNL     1       6.839  -2.978  22.980  1.00  0.00     0.029 A 
HETATM   29  C23 UNL     1       6.693  -1.808  23.697  1.00  0.00     0.030 A 
HETATM   30  C22 UNL     1       6.365  -1.817  25.038  1.00  0.00     0.014 A 
BRANCH  28  31
HETATM   31  N1  UNL     1       7.176  -2.985  21.598  1.00  0.00    -0.390 N 
HETATM   32  C1  UNL     1       6.597  -3.916  20.654  1.00  0.00     0.149 C 
HETATM   33  C2  UNL     1       8.140  -2.021  21.110  1.00  0.00     0.149 C 
ENDBRANCH  28  31
ENDBRANCH   1  25
TORSDOF 5
ENDMDL
