MODEL 3
REMARK VINA RESULT: -8.158842106      0.840      1.468
REMARK  5 active torsions:
REMARK  status: ('A' for Active; 'I' for Inactive)
REMARK    1  A    between atoms: N1_2  and  C3_4 
REMARK    2  A    between atoms: C6_7  and  C7_8 
REMARK    3  A    between atoms: C10_16  and  C11_17 
REMARK    4  A    between atoms: C12_18  and  C13_19 
REMARK    5  A    between atoms: C16_22  and  N5_23 
ROOT
HETATM    1  C7  UNL     1       5.829  -3.027  27.104  1.00  0.00     0.051 A 
HETATM    2  C8  UNL     1       6.739  -3.016  28.138  1.00  0.00     0.131 A 
HETATM    3  N2  UNL     1       8.111  -2.982  27.835  1.00  0.00    -0.082 NA
HETATM    4  N3  UNL     1       6.328  -3.038  29.438  1.00  0.00    -0.340 N 
ATOM      5  H3  UNL     1       7.018  -3.029  30.190  1.00  0.00     0.167 HD
HETATM    6  C9  UNL     1       5.021  -3.070  29.731  1.00  0.00     0.182 A 
HETATM    7  N4  UNL     1       4.134  -3.081  28.729  1.00  0.00    -0.344 N 
ATOM      8  H4  UNL     1       3.140  -3.105  28.959  1.00  0.00     0.167 HD
HETATM    9  C10 UNL     1       4.494  -3.061  27.435  1.00  0.00     0.102 A 
ENDROOT
BRANCH   9  10
HETATM   10  C11 UNL     1       3.527  -3.073  26.373  1.00  0.00    -0.042 C 
HETATM   11  C12 UNL     1       2.713  -3.065  25.465  1.00  0.00    -0.059 C 
BRANCH  11  12
HETATM   12  C13 UNL     1       1.760  -3.080  24.385  1.00  0.00     0.033 A 
HETATM   13  C14 UNL     1       0.413  -3.021  24.669  1.00  0.00     0.026 A 
HETATM   14  C15 UNL     1      -0.508  -3.035  23.613  1.00  0.00     0.050 A 
HETATM   15  C16 UNL     1      -0.122  -3.105  22.304  1.00  0.00     0.103 A 
HETATM   16  N6  UNL     1       1.219  -3.161  22.059  1.00  0.00    -0.351 N 
HETATM   17  C21 UNL     1       2.109  -3.148  23.060  1.00  0.00     0.110 A 
ATOM     18  H6  UNL     1       1.549  -3.213  21.095  1.00  0.00     0.166 HD
BRANCH  15  19
HETATM   19  N5  UNL     1      -1.033  -3.118  21.211  1.00  0.00    -0.363 N 
HETATM   20  C17 UNL     1      -0.825  -2.367  20.000  1.00  0.00     0.150 C 
HETATM   21  C18 UNL     1      -1.047  -3.313  18.835  1.00  0.00     0.187 C 
HETATM   22  O1  UNL     1      -2.255  -3.961  18.862  1.00  0.00    -0.388 OA
HETATM   23  C19 UNL     1      -3.010  -3.678  19.983  1.00  0.00     0.187 C 
HETATM   24  C20 UNL     1      -2.260  -3.914  21.266  1.00  0.00     0.150 C 
ENDBRANCH  15  19
ENDBRANCH  11  12
ENDBRANCH   9  10
BRANCH   1  25
HETATM   25  C6  UNL     1       6.184  -3.007  25.693  1.00  0.00    -0.020 A 
HETATM   26  C5  UNL     1       6.319  -1.815  25.001  1.00  0.00     0.014 A 
HETATM   27  C4  UNL     1       6.654  -1.783  23.661  1.00  0.00     0.030 A 
HETATM   28  C3  UNL     1       6.871  -2.943  22.945  1.00  0.00     0.029 A 
HETATM   29  C23 UNL     1       6.738  -4.133  23.631  1.00  0.00     0.030 A 
HETATM   30  C22 UNL     1       6.403  -4.163  24.970  1.00  0.00     0.014 A 
BRANCH  28  31
HETATM   31  N1  UNL     1       7.216  -2.895  21.566  1.00  0.00    -0.390 N 
HETATM   32  C1  UNL     1       8.152  -1.935  21.024  1.00  0.00     0.149 C 
HETATM   33  C2  UNL     1       6.607  -3.849  20.662  1.00  0.00     0.149 C 
ENDBRANCH  28  31
ENDBRANCH   1  25
TORSDOF 5
ENDMDL
