MODEL 7
REMARK VINA RESULT: -7.509250424      4.233      6.485
REMARK  5 active torsions:
REMARK  status: ('A' for Active; 'I' for Inactive)
REMARK    1  A    between atoms: N1_2  and  C3_4 
REMARK    2  A    between atoms: C6_7  and  C7_8 
REMARK    3  A    between atoms: C10_16  and  C11_17 
REMARK    4  A    between atoms: C12_18  and  C13_19 
REMARK    5  A    between atoms: C16_22  and  N5_23 
ROOT
HETATM    1  C7  UNL     1       4.174  -3.014  26.072  1.00  0.00     0.051 A 
HETATM    2  C8  UNL     1       3.589  -3.179  27.308  1.00  0.00     0.131 A 
HETATM    3  N2  UNL     1       4.395  -3.550  28.398  1.00  0.00    -0.082 NA
HETATM    4  N3  UNL     1       2.250  -2.987  27.485  1.00  0.00    -0.340 N 
ATOM      5  H3  UNL     1       1.835  -3.115  28.409  1.00  0.00     0.167 HD
HETATM    6  C9  UNL     1       1.478  -2.633  26.449  1.00  0.00     0.182 A 
HETATM    7  N4  UNL     1       2.043  -2.472  25.246  1.00  0.00    -0.344 N 
ATOM      8  H4  UNL     1       1.449  -2.202  24.461  1.00  0.00     0.167 HD
HETATM    9  C10 UNL     1       3.357  -2.651  25.028  1.00  0.00     0.102 A 
ENDROOT
BRANCH   9  10
HETATM   10  C11 UNL     1       3.945  -2.473  23.729  1.00  0.00    -0.042 C 
HETATM   11  C12 UNL     1       4.434  -2.304  22.625  1.00  0.00    -0.059 C 
BRANCH  11  12
HETATM   12  C13 UNL     1       5.035  -2.108  21.331  1.00  0.00     0.033 A 
HETATM   13  C14 UNL     1       5.367  -3.204  20.565  1.00  0.00     0.026 A 
HETATM   14  C15 UNL     1       5.952  -3.006  19.306  1.00  0.00     0.050 A 
HETATM   15  C16 UNL     1       6.206  -1.759  18.805  1.00  0.00     0.103 A 
HETATM   16  N6  UNL     1       5.864  -0.697  19.589  1.00  0.00    -0.351 N 
HETATM   17  C21 UNL     1       5.306  -0.875  20.795  1.00  0.00     0.110 A 
ATOM     18  H6  UNL     1       6.037   0.250  19.252  1.00  0.00     0.166 HD
BRANCH  15  19
HETATM   19  N5  UNL     1       6.795  -1.526  17.531  1.00  0.00    -0.363 N 
HETATM   20  C17 UNL     1       7.584  -0.361  17.226  1.00  0.00     0.150 C 
HETATM   21  C18 UNL     1       8.862  -0.838  16.562  1.00  0.00     0.187 C 
HETATM   22  O1  UNL     1       8.658  -1.645  15.472  1.00  0.00    -0.388 OA
HETATM   23  C19 UNL     1       7.327  -1.924  15.231  1.00  0.00     0.187 C 
HETATM   24  C20 UNL     1       6.620  -2.482  16.437  1.00  0.00     0.150 C 
ENDBRANCH  15  19
ENDBRANCH  11  12
ENDBRANCH   9  10
BRANCH   1  25
HETATM   25  C6  UNL     1       5.591  -3.199  25.800  1.00  0.00    -0.020 A 
HETATM   26  C5  UNL     1       6.094  -4.425  25.398  1.00  0.00     0.014 A 
HETATM   27  C4  UNL     1       7.438  -4.613  25.139  1.00  0.00     0.030 A 
HETATM   28  C3  UNL     1       8.348  -3.584  25.270  1.00  0.00     0.029 A 
HETATM   29  C23 UNL     1       7.851  -2.360  25.671  1.00  0.00     0.030 A 
HETATM   30  C22 UNL     1       6.508  -2.174  25.929  1.00  0.00     0.014 A 
BRANCH  28  31
HETATM   31  N1  UNL     1       9.729  -3.792  24.999  1.00  0.00    -0.390 N 
HETATM   32  C1  UNL     1      10.782  -3.164  25.766  1.00  0.00     0.149 C 
HETATM   33  C2  UNL     1      10.101  -4.671  23.910  1.00  0.00     0.149 C 
ENDBRANCH  28  31
ENDBRANCH   1  25
TORSDOF 5
ENDMDL
