MODEL 6
REMARK VINA RESULT: -7.548474148      4.720      9.472
REMARK  5 active torsions:
REMARK  status: ('A' for Active; 'I' for Inactive)
REMARK    1  A    between atoms: N1_2  and  C3_4 
REMARK    2  A    between atoms: C6_7  and  C7_8 
REMARK    3  A    between atoms: C10_16  and  C11_17 
REMARK    4  A    between atoms: C12_18  and  C13_19 
REMARK    5  A    between atoms: C16_22  and  N5_23 
ROOT
HETATM    1  C7  UNL     1       3.169  -2.814  25.089  1.00  0.00     0.051 A 
HETATM    2  C8  UNL     1       1.827  -2.868  24.785  1.00  0.00     0.131 A 
HETATM    3  N2  UNL     1       1.429  -2.761  23.442  1.00  0.00    -0.082 NA
HETATM    4  N3  UNL     1       0.889  -3.023  25.764  1.00  0.00    -0.340 N 
ATOM      5  H3  UNL     1      -0.101  -3.061  25.518  1.00  0.00     0.167 HD
HETATM    6  C9  UNL     1       1.264  -3.126  27.045  1.00  0.00     0.182 A 
HETATM    7  N4  UNL     1       2.567  -3.074  27.345  1.00  0.00    -0.344 N 
ATOM      8  H4  UNL     1       2.846  -3.153  28.323  1.00  0.00     0.167 HD
HETATM    9  C10 UNL     1       3.524  -2.922  26.413  1.00  0.00     0.102 A 
ENDROOT
BRANCH   9  10
HETATM   10  C11 UNL     1       4.919  -2.868  26.754  1.00  0.00    -0.042 C 
HETATM   11  C12 UNL     1       6.097  -2.815  27.062  1.00  0.00    -0.059 C 
BRANCH  11  12
HETATM   12  C13 UNL     1       7.493  -2.779  27.419  1.00  0.00     0.033 A 
HETATM   13  C14 UNL     1       8.420  -2.370  26.485  1.00  0.00     0.026 A 
HETATM   14  C15 UNL     1       9.775  -2.336  26.839  1.00  0.00     0.050 A 
HETATM   15  C16 UNL     1      10.218  -2.694  28.082  1.00  0.00     0.103 A 
HETATM   16  N6  UNL     1       9.273  -3.092  28.981  1.00  0.00    -0.351 N 
HETATM   17  C21 UNL     1       7.974  -3.129  28.654  1.00  0.00     0.110 A 
ATOM     18  H6  UNL     1       9.561  -3.367  29.921  1.00  0.00     0.166 HD
BRANCH  15  19
HETATM   19  N5  UNL     1      11.586  -2.667  28.472  1.00  0.00    -0.363 N 
HETATM   20  C17 UNL     1      12.476  -1.581  28.157  1.00  0.00     0.150 C 
HETATM   21  C18 UNL     1      13.191  -1.192  29.437  1.00  0.00     0.187 C 
HETATM   22  O1  UNL     1      13.822  -2.236  30.064  1.00  0.00    -0.388 OA
HETATM   23  C19 UNL     1      13.627  -3.454  29.444  1.00  0.00     0.187 C 
HETATM   24  C20 UNL     1      12.172  -3.773  29.230  1.00  0.00     0.150 C 
ENDBRANCH  15  19
ENDBRANCH  11  12
ENDBRANCH   9  10
BRANCH   1  25
HETATM   25  C6  UNL     1       4.230  -2.650  24.107  1.00  0.00    -0.020 A 
HETATM   26  C5  UNL     1       4.900  -3.741  23.580  1.00  0.00     0.014 A 
HETATM   27  C4  UNL     1       5.910  -3.598  22.649  1.00  0.00     0.030 A 
HETATM   28  C3  UNL     1       6.302  -2.354  22.197  1.00  0.00     0.029 A 
HETATM   29  C23 UNL     1       5.637  -1.263  22.719  1.00  0.00     0.030 A 
HETATM   30  C22 UNL     1       4.628  -1.409  23.650  1.00  0.00     0.014 A 
BRANCH  28  31
HETATM   31  N1  UNL     1       7.343  -2.221  21.237  1.00  0.00    -0.390 N 
HETATM   32  C1  UNL     1       8.736  -2.089  21.604  1.00  0.00     0.149 C 
HETATM   33  C2  UNL     1       6.998  -2.218  19.831  1.00  0.00     0.149 C 
ENDBRANCH  28  31
ENDBRANCH   1  25
TORSDOF 5
ENDMDL
