MODEL 4
REMARK VINA RESULT: -7.760473338      4.380      6.968
REMARK  5 active torsions:
REMARK  status: ('A' for Active; 'I' for Inactive)
REMARK    1  A    between atoms: N1_2  and  C3_4 
REMARK    2  A    between atoms: C6_7  and  C7_8 
REMARK    3  A    between atoms: C10_16  and  C11_17 
REMARK    4  A    between atoms: C12_18  and  C13_19 
REMARK    5  A    between atoms: C16_22  and  N5_23 
ROOT
HETATM    1  C7  UNL     1       4.476  -2.983  26.269  1.00  0.00     0.051 A 
HETATM    2  C8  UNL     1       3.790  -3.276  27.427  1.00  0.00     0.131 A 
HETATM    3  N2  UNL     1       4.504  -3.759  28.536  1.00  0.00    -0.082 NA
HETATM    4  N3  UNL     1       2.439  -3.103  27.508  1.00  0.00    -0.340 N 
ATOM      5  H3  UNL     1       1.949  -3.326  28.374  1.00  0.00     0.167 HD
HETATM    6  C9  UNL     1       1.755  -2.642  26.453  1.00  0.00     0.182 A 
HETATM    7  N4  UNL     1       2.418  -2.356  25.326  1.00  0.00    -0.344 N 
ATOM      8  H4  UNL     1       1.891  -2.005  24.525  1.00  0.00     0.167 HD
HETATM    9  C10 UNL     1       3.747  -2.512  25.202  1.00  0.00     0.102 A 
ENDROOT
BRANCH   9  10
HETATM   10  C11 UNL     1       4.442  -2.199  23.984  1.00  0.00    -0.042 C 
HETATM   11  C12 UNL     1       5.019  -1.918  22.947  1.00  0.00    -0.059 C 
BRANCH  11  12
HETATM   12  C13 UNL     1       5.723  -1.585  21.736  1.00  0.00     0.033 A 
HETATM   13  C14 UNL     1       5.615  -0.314  21.216  1.00  0.00     0.026 A 
HETATM   14  C15 UNL     1       6.304   0.003  20.038  1.00  0.00     0.050 A 
HETATM   15  C16 UNL     1       7.085  -0.905  19.379  1.00  0.00     0.103 A 
HETATM   16  N6  UNL     1       7.170  -2.154  19.921  1.00  0.00    -0.351 N 
HETATM   17  C21 UNL     1       6.515  -2.468  21.047  1.00  0.00     0.110 A 
ATOM     18  H6  UNL     1       7.743  -2.861  19.460  1.00  0.00     0.166 HD
BRANCH  15  19
HETATM   19  N5  UNL     1       7.798  -0.613  18.183  1.00  0.00    -0.363 N 
HETATM   20  C17 UNL     1       9.032   0.129  18.159  1.00  0.00     0.150 C 
HETATM   21  C18 UNL     1      10.017  -0.653  17.312  1.00  0.00     0.187 C 
HETATM   22  O1  UNL     1       9.555  -0.962  16.058  1.00  0.00    -0.388 OA
HETATM   23  C19 UNL     1       8.254  -0.560  15.833  1.00  0.00     0.187 C 
HETATM   24  C20 UNL     1       7.298  -1.061  16.882  1.00  0.00     0.150 C 
ENDBRANCH  15  19
ENDBRANCH  11  12
ENDBRANCH   9  10
BRANCH   1  25
HETATM   25  C6  UNL     1       5.913  -3.140  26.101  1.00  0.00    -0.020 A 
HETATM   26  C5  UNL     1       6.461  -4.333  25.664  1.00  0.00     0.014 A 
HETATM   27  C4  UNL     1       7.824  -4.495  25.502  1.00  0.00     0.030 A 
HETATM   28  C3  UNL     1       8.707  -3.468  25.771  1.00  0.00     0.029 A 
HETATM   29  C23 UNL     1       8.165  -2.277  26.207  1.00  0.00     0.030 A 
HETATM   30  C22 UNL     1       6.803  -2.118  26.367  1.00  0.00     0.014 A 
BRANCH  28  31
HETATM   31  N1  UNL     1      10.108  -3.648  25.600  1.00  0.00    -0.390 N 
HETATM   32  C1  UNL     1      11.053  -3.536  26.689  1.00  0.00     0.149 C 
HETATM   33  C2  UNL     1      10.615  -3.958  24.279  1.00  0.00     0.149 C 
ENDBRANCH  28  31
ENDBRANCH   1  25
TORSDOF 5
ENDMDL
