MODEL 1
REMARK VINA RESULT: -8.429110224      0.000      0.000
REMARK  5 active torsions:
REMARK  status: ('A' for Active; 'I' for Inactive)
REMARK    1  A    between atoms: N1_2  and  C3_4 
REMARK    2  A    between atoms: C6_7  and  C7_8 
REMARK    3  A    between atoms: C10_16  and  C11_17 
REMARK    4  A    between atoms: C12_18  and  C13_19 
REMARK    5  A    between atoms: C16_22  and  N5_23 
ROOT
HETATM    1  C7  UNL     1       5.729  -3.014  26.936  1.00  0.00     0.051 A 
HETATM    2  C8  UNL     1       6.673  -2.988  27.938  1.00  0.00     0.131 A 
HETATM    3  N2  UNL     1       8.034  -2.960  27.589  1.00  0.00    -0.082 NA
HETATM    4  N3  UNL     1       6.306  -2.990  29.252  1.00  0.00    -0.340 N 
ATOM      5  H3  UNL     1       7.021  -2.971  29.980  1.00  0.00     0.167 HD
HETATM    6  C9  UNL     1       5.010  -3.016  29.589  1.00  0.00     0.182 A 
HETATM    7  N4  UNL     1       4.089  -3.041  28.617  1.00  0.00    -0.344 N 
ATOM      8  H4  UNL     1       3.103  -3.061  28.880  1.00  0.00     0.167 HD
HETATM    9  C10 UNL     1       4.407  -3.041  27.311  1.00  0.00     0.102 A 
ENDROOT
BRANCH   9  10
HETATM   10  C11 UNL     1       3.404  -3.068  26.282  1.00  0.00    -0.042 C 
HETATM   11  C12 UNL     1       2.564  -3.076  25.399  1.00  0.00    -0.059 C 
BRANCH  11  12
HETATM   12  C13 UNL     1       1.574  -3.112  24.353  1.00  0.00     0.033 A 
HETATM   13  C14 UNL     1       1.979  -3.188  23.039  1.00  0.00     0.026 A 
HETATM   14  C15 UNL     1       1.011  -3.223  22.026  1.00  0.00     0.050 A 
HETATM   15  C16 UNL     1      -0.329  -3.186  22.293  1.00  0.00     0.103 A 
HETATM   16  N6  UNL     1      -0.696  -3.112  23.605  1.00  0.00    -0.351 N 
HETATM   17  C21 UNL     1       0.222  -3.076  24.581  1.00  0.00     0.110 A 
ATOM     18  H6  UNL     1      -1.686  -3.082  23.847  1.00  0.00     0.166 HD
BRANCH  15  19
HETATM   19  N5  UNL     1      -1.336  -3.223  21.288  1.00  0.00    -0.363 N 
HETATM   20  C17 UNL     1      -2.051  -4.420  20.930  1.00  0.00     0.150 C 
HETATM   21  C18 UNL     1      -3.530  -4.081  20.917  1.00  0.00     0.187 C 
HETATM   22  O1  UNL     1      -3.851  -3.008  20.125  1.00  0.00    -0.388 OA
HETATM   23  C19 UNL     1      -2.755  -2.401  19.544  1.00  0.00     0.187 C 
HETATM   24  C20 UNL     1      -1.701  -2.015  20.547  1.00  0.00     0.150 C 
ENDBRANCH  15  19
ENDBRANCH  11  12
ENDBRANCH   9  10
BRANCH   1  25
HETATM   25  C6  UNL     1       6.037  -3.015  25.513  1.00  0.00    -0.020 A 
HETATM   26  C5  UNL     1       6.169  -1.834  24.804  1.00  0.00     0.014 A 
HETATM   27  C4  UNL     1       6.459  -1.822  23.453  1.00  0.00     0.030 A 
HETATM   28  C3  UNL     1       6.632  -2.993  22.744  1.00  0.00     0.029 A 
HETATM   29  C23 UNL     1       6.502  -4.173  23.447  1.00  0.00     0.030 A 
HETATM   30  C22 UNL     1       6.212  -4.182  24.797  1.00  0.00     0.014 A 
BRANCH  28  31
HETATM   31  N1  UNL     1       6.931  -2.966  21.353  1.00  0.00    -0.390 N 
HETATM   32  C1  UNL     1       6.289  -3.839  20.395  1.00  0.00     0.149 C 
HETATM   33  C2  UNL     1       7.920  -2.025  20.871  1.00  0.00     0.149 C 
ENDBRANCH  28  31
ENDBRANCH   1  25
TORSDOF 5
ENDMDL
