MODEL 4
REMARK VINA RESULT: -8.115140766      0.843      1.789
REMARK  4 active torsions:
REMARK  status: ('A' for Active; 'I' for Inactive)
REMARK    1  A    between atoms: C2_2  and  C4_4 
REMARK    2  A    between atoms: C2_2  and  C5_6 
REMARK       I    between atoms: C5_6  and  N1_8 
REMARK    3  A    between atoms: N1_8  and  C6_10 
REMARK    4  A    between atoms: C9_13  and  C10_14 
ROOT
HETATM    1  C6  UNL     1      34.433   3.853  25.793  1.00  0.00     0.034 A 
HETATM    2  C7  UNL     1      34.417   3.218  26.980  1.00  0.00     0.030 A 
HETATM    3  C8  UNL     1      34.648   1.834  27.005  1.00  0.00     0.018 A 
HETATM    4  C9  UNL     1      34.882   1.120  25.875  1.00  0.00     0.048 A 
HETATM    5  C11 UNL     1      34.897   1.787  24.668  1.00  0.00     0.018 A 
HETATM    6  C12 UNL     1      34.679   3.132  24.607  1.00  0.00     0.030 A 
ENDROOT
BRANCH   1   7
HETATM    7  N1  UNL     1      34.154   5.247  25.560  1.00  0.00    -0.327 N 
HETATM    8  C5  UNL     1      35.228   6.124  25.404  1.00  0.00     0.231 C 
HETATM    9  O1  UNL     1      36.393   5.627  25.452  1.00  0.00    -0.272 OA
ATOM     10  H1  UNL     1      33.194   5.585  25.510  1.00  0.00     0.169 HD
BRANCH   8  11
HETATM   11  C2  UNL     1      35.030   7.558  25.206  1.00  0.00     0.046 C 
HETATM   12  C1  UNL     1      34.149   7.819  24.026  1.00  0.00     0.026 C 
HETATM   13  C3  UNL     1      36.384   8.244  25.076  1.00  0.00     0.026 C 
BRANCH  11  14
HETATM   14  C4  UNL     1      34.420   8.110  26.491  1.00  0.00     0.133 C 
HETATM   15 CL1  UNL     1      35.645   8.514  27.705  1.00  0.00    -0.129 Cl
ENDBRANCH  11  14
ENDBRANCH   8  11
ENDBRANCH   1   7
BRANCH   4  16
HETATM   16  C10 UNL     1      35.122  -0.352  25.822  1.00  0.00     0.417 C 
HETATM   17  F1  UNL     1      34.274  -0.836  24.802  1.00  0.00    -0.166 F 
HETATM   18  F2  UNL     1      34.910  -0.972  26.989  1.00  0.00    -0.166 F 
HETATM   19  F3  UNL     1      36.399  -0.529  25.302  1.00  0.00    -0.166 F 
ENDBRANCH   4  16
TORSDOF 4
ENDMDL
