MODEL 3
REMARK VINA RESULT: -8.197204109      1.109      1.834
REMARK  4 active torsions:
REMARK  status: ('A' for Active; 'I' for Inactive)
REMARK    1  A    between atoms: C2_2  and  C4_4 
REMARK    2  A    between atoms: C2_2  and  C5_6 
REMARK       I    between atoms: C5_6  and  N1_8 
REMARK    3  A    between atoms: N1_8  and  C6_10 
REMARK    4  A    between atoms: C9_13  and  C10_14 
ROOT
HETATM    1  C6  UNL     1      34.460   3.920  25.959  1.00  0.00     0.034 A 
HETATM    2  C7  UNL     1      34.439   3.095  27.023  1.00  0.00     0.030 A 
HETATM    3  C8  UNL     1      34.618   1.720  26.811  1.00  0.00     0.018 A 
HETATM    4  C9  UNL     1      34.808   1.198  25.572  1.00  0.00     0.048 A 
HETATM    5  C11 UNL     1      34.829   2.058  24.494  1.00  0.00     0.018 A 
HETATM    6  C12 UNL     1      34.661   3.401  24.664  1.00  0.00     0.030 A 
ENDROOT
BRANCH   1   7
HETATM    7  N1  UNL     1      34.230   5.342  25.969  1.00  0.00    -0.327 N 
HETATM    8  C5  UNL     1      35.312   6.194  25.742  1.00  0.00     0.231 C 
HETATM    9  O1  UNL     1      36.435   5.654  25.513  1.00  0.00    -0.272 OA
ATOM     10  H1  UNL     1      33.297   5.718  26.139  1.00  0.00     0.169 HD
BRANCH   8  11
HETATM   11  C2  UNL     1      35.170   7.647  25.777  1.00  0.00     0.046 C 
HETATM   12  C1  UNL     1      36.217   8.308  24.939  1.00  0.00     0.026 C 
HETATM   13  C3  UNL     1      35.203   8.126  27.223  1.00  0.00     0.026 C 
BRANCH  11  14
HETATM   14  C4  UNL     1      33.766   7.974  25.277  1.00  0.00     0.133 C 
HETATM   15 CL1  UNL     1      33.547   7.582  23.563  1.00  0.00    -0.129 Cl
ENDBRANCH  11  14
ENDBRANCH   8  11
ENDBRANCH   1   7
BRANCH   4  16
HETATM   16  C10 UNL     1      34.992  -0.251  25.268  1.00  0.00     0.417 C 
HETATM   17  F1  UNL     1      33.921  -0.596  24.415  1.00  0.00    -0.166 F 
HETATM   18  F2  UNL     1      35.036  -1.026  26.358  1.00  0.00    -0.166 F 
HETATM   19  F3  UNL     1      36.112  -0.347  24.450  1.00  0.00    -0.166 F 
ENDBRANCH   4  16
TORSDOF 4
ENDMDL
