MODEL 7
REMARK VINA RESULT: -6.905782452      4.674      6.792
REMARK  4 active torsions:
REMARK  status: ('A' for Active; 'I' for Inactive)
REMARK    1  A    between atoms: C2_2  and  C4_4 
REMARK    2  A    between atoms: C2_2  and  C5_6 
REMARK       I    between atoms: C5_6  and  N1_8 
REMARK    3  A    between atoms: N1_8  and  C6_10 
REMARK    4  A    between atoms: C9_13  and  C10_14 
ROOT
HETATM    1  C6  UNL     1      34.743   4.529  25.411  1.00  0.00     0.034 A 
HETATM    2  C7  UNL     1      34.163   5.343  24.508  1.00  0.00     0.030 A 
HETATM    3  C8  UNL     1      34.688   6.632  24.331  1.00  0.00     0.018 A 
HETATM    4  C9  UNL     1      35.754   7.082  25.040  1.00  0.00     0.048 A 
HETATM    5  C11 UNL     1      36.337   6.234  25.958  1.00  0.00     0.018 A 
HETATM    6  C12 UNL     1      35.855   4.973  26.154  1.00  0.00     0.030 A 
ENDROOT
BRANCH   1   7
HETATM    7  N1  UNL     1      34.310   3.205  25.778  1.00  0.00    -0.327 N 
HETATM    8  C5  UNL     1      34.666   2.135  24.956  1.00  0.00     0.231 C 
HETATM    9  O1  UNL     1      35.380   2.397  23.941  1.00  0.00    -0.272 OA
ATOM     10  H1  UNL     1      33.755   3.053  26.619  1.00  0.00     0.169 HD
BRANCH   8  11
HETATM   11  C2  UNL     1      34.232   0.769  25.236  1.00  0.00     0.046 C 
HETATM   12  C1  UNL     1      34.576  -0.145  24.104  1.00  0.00     0.026 C 
HETATM   13  C3  UNL     1      32.741   0.764  25.546  1.00  0.00     0.026 C 
BRANCH  11  14
HETATM   14  C4  UNL     1      34.915   0.337  26.530  1.00  0.00     0.133 C 
HETATM   15 CL1  UNL     1      36.680   0.289  26.384  1.00  0.00    -0.129 Cl
ENDBRANCH  11  14
ENDBRANCH   8  11
ENDBRANCH   1   7
BRANCH   4  16
HETATM   16  C10 UNL     1      36.357   8.441  24.916  1.00  0.00     0.417 C 
HETATM   17  F1  UNL     1      37.746   8.227  24.781  1.00  0.00    -0.166 F 
HETATM   18  F2  UNL     1      36.071   9.251  25.942  1.00  0.00    -0.166 F 
HETATM   19  F3  UNL     1      35.976   8.934  23.673  1.00  0.00    -0.166 F 
ENDBRANCH   4  16
TORSDOF 4
ENDMDL
