MODEL 6
REMARK VINA RESULT: -6.975513525      4.847      6.883
REMARK  4 active torsions:
REMARK  status: ('A' for Active; 'I' for Inactive)
REMARK    1  A    between atoms: C2_2  and  C4_4 
REMARK    2  A    between atoms: C2_2  and  C5_6 
REMARK       I    between atoms: C5_6  and  N1_8 
REMARK    3  A    between atoms: N1_8  and  C6_10 
REMARK    4  A    between atoms: C9_13  and  C10_14 
ROOT
HETATM    1  C6  UNL     1      34.955   4.820  24.891  1.00  0.00     0.034 A 
HETATM    2  C7  UNL     1      34.156   5.819  24.469  1.00  0.00     0.030 A 
HETATM    3  C8  UNL     1      34.325   7.095  25.027  1.00  0.00     0.018 A 
HETATM    4  C9  UNL     1      35.262   7.352  25.975  1.00  0.00     0.048 A 
HETATM    5  C11 UNL     1      36.072   6.317  26.393  1.00  0.00     0.018 A 
HETATM    6  C12 UNL     1      35.938   5.064  25.871  1.00  0.00     0.030 A 
ENDROOT
BRANCH   1   7
HETATM    7  N1  UNL     1      34.889   3.439  24.487  1.00  0.00    -0.327 N 
HETATM    8  C5  UNL     1      34.401   2.501  25.397  1.00  0.00     0.231 C 
HETATM    9  O1  UNL     1      34.017   2.934  26.525  1.00  0.00    -0.272 OA
ATOM     10  H1  UNL     1      35.193   3.153  23.557  1.00  0.00     0.169 HD
BRANCH   8  11
HETATM   11  C2  UNL     1      34.341   1.076  25.079  1.00  0.00     0.046 C 
HETATM   12  C1  UNL     1      32.947   0.553  25.224  1.00  0.00     0.026 C 
HETATM   13  C3  UNL     1      35.333   0.319  25.953  1.00  0.00     0.026 C 
BRANCH  11  14
HETATM   14  C4  UNL     1      34.854   0.912  23.652  1.00  0.00     0.133 C 
HETATM   15 CL1  UNL     1      36.449   0.145  23.587  1.00  0.00    -0.129 Cl
ENDBRANCH  11  14
ENDBRANCH   8  11
ENDBRANCH   1   7
BRANCH   4  16
HETATM   16  C10 UNL     1      35.490   8.677  26.623  1.00  0.00     0.417 C 
HETATM   17  F1  UNL     1      34.204   9.188  26.899  1.00  0.00    -0.166 F 
HETATM   18  F2  UNL     1      36.217   9.519  25.879  1.00  0.00    -0.166 F 
HETATM   19  F3  UNL     1      36.021   8.418  27.882  1.00  0.00    -0.166 F 
ENDBRANCH   4  16
TORSDOF 4
ENDMDL
