MODEL 5
REMARK VINA RESULT: -7.600052444      4.680      6.779
REMARK  4 active torsions:
REMARK  status: ('A' for Active; 'I' for Inactive)
REMARK    1  A    between atoms: C2_2  and  C4_4 
REMARK    2  A    between atoms: C2_2  and  C5_6 
REMARK       I    between atoms: C5_6  and  N1_8 
REMARK    3  A    between atoms: N1_8  and  C6_10 
REMARK    4  A    between atoms: C9_13  and  C10_14 
ROOT
HETATM    1  C6  UNL     1      35.045   4.433  24.708  1.00  0.00     0.034 A 
HETATM    2  C7  UNL     1      34.232   5.383  24.208  1.00  0.00     0.030 A 
HETATM    3  C8  UNL     1      34.211   6.642  24.827  1.00  0.00     0.018 A 
HETATM    4  C9  UNL     1      34.979   6.929  25.909  1.00  0.00     0.048 A 
HETATM    5  C11 UNL     1      35.807   5.945  26.405  1.00  0.00     0.018 A 
HETATM    6  C12 UNL     1      35.855   4.710  25.827  1.00  0.00     0.030 A 
ENDROOT
BRANCH   1   7
HETATM    7  N1  UNL     1      35.154   3.070  24.253  1.00  0.00    -0.327 N 
HETATM    8  C5  UNL     1      34.587   2.060  25.030  1.00  0.00     0.231 C 
HETATM    9  O1  UNL     1      33.980   2.413  26.086  1.00  0.00    -0.272 OA
ATOM     10  H1  UNL     1      35.637   2.849  23.382  1.00  0.00     0.169 HD
BRANCH   8  11
HETATM   11  C2  UNL     1      34.690   0.651  24.660  1.00  0.00     0.046 C 
HETATM   12  C1  UNL     1      35.755   0.445  23.630  1.00  0.00     0.026 C 
HETATM   13  C3  UNL     1      33.332   0.148  24.190  1.00  0.00     0.026 C 
BRANCH  11  14
HETATM   14  C4  UNL     1      34.990  -0.129  25.936  1.00  0.00     0.133 C 
HETATM   15 CL1  UNL     1      36.655   0.098  26.496  1.00  0.00    -0.129 Cl
ENDBRANCH  11  14
ENDBRANCH   8  11
ENDBRANCH   1   7
BRANCH   4  16
HETATM   16  C10 UNL     1      35.000   8.238  26.626  1.00  0.00     0.417 C 
HETATM   17  F1  UNL     1      35.689   7.994  27.834  1.00  0.00    -0.166 F 
HETATM   18  F2  UNL     1      33.784   8.754  26.835  1.00  0.00    -0.166 F 
HETATM   19  F3  UNL     1      35.862   9.067  25.916  1.00  0.00    -0.166 F 
ENDBRANCH   4  16
TORSDOF 4
ENDMDL
