MODEL 1
REMARK VINA RESULT: -8.324192799      0.000      0.000
REMARK  4 active torsions:
REMARK  status: ('A' for Active; 'I' for Inactive)
REMARK    1  A    between atoms: C2_2  and  C4_4 
REMARK    2  A    between atoms: C2_2  and  C5_6 
REMARK       I    between atoms: C5_6  and  N1_8 
REMARK    3  A    between atoms: N1_8  and  C6_10 
REMARK    4  A    between atoms: C9_13  and  C10_14 
ROOT
HETATM    1  C6  UNL     1      34.460   4.086  25.764  1.00  0.00     0.034 A 
HETATM    2  C7  UNL     1      34.600   3.519  24.550  1.00  0.00     0.030 A 
HETATM    3  C8  UNL     1      34.779   2.129  24.475  1.00  0.00     0.018 A 
HETATM    4  C9  UNL     1      34.820   1.344  25.581  1.00  0.00     0.048 A 
HETATM    5  C11 UNL     1      34.673   1.942  26.816  1.00  0.00     0.018 A 
HETATM    6  C12 UNL     1      34.493   3.290  26.926  1.00  0.00     0.030 A 
ENDROOT
BRANCH   1   7
HETATM    7  N1  UNL     1      34.333   5.493  26.046  1.00  0.00    -0.327 N 
HETATM    8  C5  UNL     1      35.446   6.314  25.859  1.00  0.00     0.231 C 
HETATM    9  O1  UNL     1      36.502   5.766  25.422  1.00  0.00    -0.272 OA
ATOM     10  H1  UNL     1      33.449   5.880  26.375  1.00  0.00     0.169 HD
BRANCH   8  11
HETATM   11  C2  UNL     1      35.410   7.742  26.161  1.00  0.00     0.046 C 
HETATM   12  C1  UNL     1      36.212   8.520  25.167  1.00  0.00     0.026 C 
HETATM   13  C3  UNL     1      35.886   7.971  27.589  1.00  0.00     0.026 C 
BRANCH  11  14
HETATM   14  C4  UNL     1      33.944   8.167  26.152  1.00  0.00     0.133 C 
HETATM   15 CL1  UNL     1      33.504   9.118  27.580  1.00  0.00    -0.129 Cl
ENDBRANCH  11  14
ENDBRANCH   8  11
ENDBRANCH   1   7
BRANCH   4  16
HETATM   16  C10 UNL     1      35.021  -0.134  25.580  1.00  0.00     0.417 C 
HETATM   17  F1  UNL     1      36.370  -0.331  25.215  1.00  0.00    -0.166 F 
HETATM   18  F2  UNL     1      34.181  -0.789  24.770  1.00  0.00    -0.166 F 
HETATM   19  F3  UNL     1      34.974  -0.543  26.908  1.00  0.00    -0.166 F 
ENDBRANCH   4  16
TORSDOF 4
ENDMDL
