MODEL 2
REMARK VINA RESULT: -8.278956322      1.102      1.291
REMARK  4 active torsions:
REMARK  status: ('A' for Active; 'I' for Inactive)
REMARK    1  A    between atoms: C2_2  and  C4_4 
REMARK    2  A    between atoms: C2_2  and  C5_6 
REMARK       I    between atoms: C5_6  and  N1_8 
REMARK    3  A    between atoms: N1_8  and  C6_10 
REMARK    4  A    between atoms: C9_13  and  C10_14 
ROOT
HETATM    1  C6  UNL     1      34.455   3.655  25.226  1.00  0.00     0.034 A 
HETATM    2  C7  UNL     1      34.870   2.780  24.290  1.00  0.00     0.030 A 
HETATM    3  C8  UNL     1      35.147   1.461  24.681  1.00  0.00     0.018 A 
HETATM    4  C9  UNL     1      35.014   1.044  25.966  1.00  0.00     0.048 A 
HETATM    5  C11 UNL     1      34.586   1.954  26.910  1.00  0.00     0.018 A 
HETATM    6  C12 UNL     1      34.304   3.244  26.565  1.00  0.00     0.030 A 
ENDROOT
BRANCH   1   7
HETATM    7  N1  UNL     1      34.187   5.058  25.031  1.00  0.00    -0.327 N 
HETATM    8  C5  UNL     1      35.242   5.962  25.155  1.00  0.00     0.231 C 
HETATM    9  O1  UNL     1      36.388   5.483  25.407  1.00  0.00    -0.272 OA
ATOM     10  H1  UNL     1      33.246   5.382  24.808  1.00  0.00     0.169 HD
BRANCH   8  11
HETATM   11  C2  UNL     1      35.044   7.402  25.013  1.00  0.00     0.046 C 
HETATM   12  C1  UNL     1      34.186   7.711  23.827  1.00  0.00     0.026 C 
HETATM   13  C3  UNL     1      36.398   8.096  24.939  1.00  0.00     0.026 C 
BRANCH  11  14
HETATM   14  C4  UNL     1      34.407   7.898  26.307  1.00  0.00     0.133 C 
HETATM   15 CL1  UNL     1      35.598   8.168  27.591  1.00  0.00    -0.129 Cl
ENDBRANCH  11  14
ENDBRANCH   8  11
ENDBRANCH   1   7
BRANCH   4  16
HETATM   16  C10 UNL     1      35.303  -0.335  26.458  1.00  0.00     0.417 C 
HETATM   17  F1  UNL     1      36.702  -0.489  26.346  1.00  0.00    -0.166 F 
HETATM   18  F2  UNL     1      34.637  -1.290  25.798  1.00  0.00    -0.166 F 
HETATM   19  F3  UNL     1      35.079  -0.323  27.830  1.00  0.00    -0.166 F 
ENDBRANCH   4  16
TORSDOF 4
ENDMDL
