MODEL 8
REMARK VINA RESULT: -8.602482183      3.426      7.734
REMARK  13 active torsions:
REMARK  status: ('A' for Active; 'I' for Inactive)
REMARK    1  A    between atoms: C2_2  and  C4_4 
REMARK    2  A    between atoms: C4_4  and  N1_5 
REMARK    3  A    between atoms: N1_5  and  C5_6 
REMARK    4  A    between atoms: N1_5  and  S1_31 
REMARK    5  A    between atoms: C5_6  and  C6_7 
REMARK    6  A    between atoms: C6_7  and  O1_8 
REMARK    7  A    between atoms: C6_7  and  C7_10 
REMARK    8  A    between atoms: C7_10  and  C8_11 
REMARK    9  A    between atoms: C7_10  and  N2_18 
REMARK   10  A    between atoms: C8_11  and  C9_12 
REMARK       I    between atoms: N2_18  and  C15_20 
REMARK   11  A    between atoms: C15_20  and  O3_22 
REMARK   12  A    between atoms: O3_22  and  C16_23 
REMARK   13  A    between atoms: S1_31  and  C22_34 
ROOT
HETATM    1  C7  UNL     1      19.652  29.562  15.075  1.00  0.00     0.029 C 
ENDROOT
BRANCH   1   2
HETATM    2  C6  UNL     1      19.924  30.361  16.324  1.00  0.00     0.203 C 
BRANCH   2   3
HETATM    3  C5  UNL     1      18.871  31.321  16.703  1.00  0.00     0.119 C 
BRANCH   3   4
HETATM    4  N1  UNL     1      19.102  32.679  16.445  1.00  0.00    -0.262 N 
BRANCH   4   5
HETATM    5  C4  UNL     1      20.358  33.158  16.070  1.00  0.00     0.085 C 
BRANCH   5   6
HETATM    6  C2  UNL     1      21.133  33.895  17.155  1.00  0.00     0.017 C 
HETATM    7  C1  UNL     1      22.472  33.283  17.453  1.00  0.00     0.015 C 
HETATM    8  C3  UNL     1      21.296  35.361  16.828  1.00  0.00     0.015 C 
ENDBRANCH   5   6
ENDBRANCH   4   5
BRANCH   4   9
HETATM    9  S1  UNL     1      17.730  33.572  16.024  1.00  0.00     0.267 S 
HETATM   10  O6  UNL     1      17.900  34.041  14.587  1.00  0.00    -0.200 OA
HETATM   11  O7  UNL     1      16.454  32.747  16.114  1.00  0.00    -0.200 OA
BRANCH   9  12
HETATM   12  C22 UNL     1      17.490  35.008  17.013  1.00  0.00     0.080 A 
HETATM   13  C23 UNL     1      17.827  35.070  18.349  1.00  0.00     0.027 A 
HETATM   14  C24 UNL     1      17.624  36.208  19.107  1.00  0.00     0.028 A 
HETATM   15  C25 UNL     1      17.069  37.339  18.547  1.00  0.00     0.046 A 
HETATM   16  N3  UNL     1      16.855  38.525  19.334  1.00  0.00    -0.102 NA
HETATM   17  C26 UNL     1      16.726  37.293  17.214  1.00  0.00     0.028 A 
HETATM   18  C27 UNL     1      16.931  36.158  16.464  1.00  0.00     0.027 A 
ENDBRANCH   9  12
ENDBRANCH   4   9
ENDBRANCH   3   4
ENDBRANCH   2   3
BRANCH   2  19
HETATM   19  O1  UNL     1      20.041  29.408  17.366  1.00  0.00    -0.385 OA
ATOM     20  H1  UNL     1      20.541  28.672  17.034  1.00  0.00     0.211 HD
ENDBRANCH   2  19
ENDBRANCH   1   2
BRANCH   1  21
HETATM   21  C8  UNL     1      18.207  29.176  14.926  1.00  0.00     0.094 C 
BRANCH  21  22
HETATM   22  C9  UNL     1      17.843  28.571  13.644  1.00  0.00    -0.053 A 
HETATM   23  C10 UNL     1      17.181  29.355  12.698  1.00  0.00     0.007 A 
HETATM   24  C11 UNL     1      16.765  28.890  11.480  1.00  0.00     0.001 A 
HETATM   25  C12 UNL     1      17.010  27.568  11.157  1.00  0.00     0.000 A 
HETATM   26  C13 UNL     1      17.658  26.758  12.056  1.00  0.00     0.001 A 
HETATM   27  C14 UNL     1      18.068  27.276  13.296  1.00  0.00     0.007 A 
ENDBRANCH  21  22
ENDBRANCH   1  21
BRANCH   1  28
HETATM   28  N2  UNL     1      20.639  28.617  14.730  1.00  0.00    -0.307 N 
HETATM   29  C15 UNL     1      21.712  28.850  13.835  1.00  0.00     0.365 C 
HETATM   30  O2  UNL     1      21.828  29.950  13.284  1.00  0.00    -0.238 OA
ATOM     31  H2  UNL     1      20.576  27.694  15.159  1.00  0.00     0.170 HD
BRANCH  29  32
HETATM   32  O3  UNL     1      22.649  27.849  13.559  1.00  0.00    -0.296 OA
BRANCH  32  33
HETATM   33  C16 UNL     1      23.269  27.750  12.287  1.00  0.00     0.166 C 
HETATM   34  C17 UNL     1      24.466  26.858  12.312  1.00  0.00     0.204 C 
HETATM   35  O4  UNL     1      24.445  26.043  11.212  1.00  0.00    -0.358 OA
HETATM   36  C18 UNL     1      23.323  26.326  10.451  1.00  0.00     0.266 C 
HETATM   37  O5  UNL     1      22.664  25.185  10.011  1.00  0.00    -0.361 OA
HETATM   38  C21 UNL     1      22.326  26.977  11.388  1.00  0.00     0.075 C 
HETATM   39  C19 UNL     1      21.951  24.655  11.059  1.00  0.00     0.171 C 
HETATM   40  C20 UNL     1      21.698  25.795  12.051  1.00  0.00     0.038 C 
ENDBRANCH  32  33
ENDBRANCH  29  32
ENDBRANCH   1  28
TORSDOF 13
ENDMDL
