MODEL 1
REMARK VINA RESULT: -8.991377007      0.000      0.000
REMARK  13 active torsions:
REMARK  status: ('A' for Active; 'I' for Inactive)
REMARK    1  A    between atoms: C2_2  and  C4_4 
REMARK    2  A    between atoms: C4_4  and  N1_5 
REMARK    3  A    between atoms: N1_5  and  C5_6 
REMARK    4  A    between atoms: N1_5  and  S1_31 
REMARK    5  A    between atoms: C5_6  and  C6_7 
REMARK    6  A    between atoms: C6_7  and  O1_8 
REMARK    7  A    between atoms: C6_7  and  C7_10 
REMARK    8  A    between atoms: C7_10  and  C8_11 
REMARK    9  A    between atoms: C7_10  and  N2_18 
REMARK   10  A    between atoms: C8_11  and  C9_12 
REMARK       I    between atoms: N2_18  and  C15_20 
REMARK   11  A    between atoms: C15_20  and  O3_22 
REMARK   12  A    between atoms: O3_22  and  C16_23 
REMARK   13  A    between atoms: S1_31  and  C22_34 
ROOT
HETATM    1  C7  UNL     1      21.072  35.384  18.834  1.00  0.00     0.029 C 
ENDROOT
BRANCH   1   2
HETATM    2  C6  UNL     1      19.762  35.386  19.580  1.00  0.00     0.203 C 
BRANCH   2   3
HETATM    3  C5  UNL     1      18.628  34.765  18.870  1.00  0.00     0.119 C 
BRANCH   3   4
HETATM    4  N1  UNL     1      17.687  35.615  18.274  1.00  0.00    -0.262 N 
BRANCH   4   5
HETATM    5  C4  UNL     1      18.049  36.833  17.697  1.00  0.00     0.085 C 
BRANCH   5   6
HETATM    6  C2  UNL     1      17.570  38.078  18.434  1.00  0.00     0.017 C 
HETATM    7  C1  UNL     1      18.685  38.871  19.054  1.00  0.00     0.015 C 
HETATM    8  C3  UNL     1      16.737  38.970  17.542  1.00  0.00     0.015 C 
ENDBRANCH   5   6
ENDBRANCH   4   5
BRANCH   4   9
HETATM    9  S1  UNL     1      16.265  34.860  17.758  1.00  0.00     0.267 S 
HETATM   10  O6  UNL     1      15.577  34.274  18.982  1.00  0.00    -0.200 OA
HETATM   11  O7  UNL     1      15.306  35.833  17.086  1.00  0.00    -0.200 OA
BRANCH   9  12
HETATM   12  C22 UNL     1      16.536  33.537  16.631  1.00  0.00     0.080 A 
HETATM   13  C23 UNL     1      15.778  32.385  16.622  1.00  0.00     0.027 A 
HETATM   14  C24 UNL     1      16.013  31.356  15.729  1.00  0.00     0.028 A 
HETATM   15  C25 UNL     1      17.028  31.446  14.801  1.00  0.00     0.046 A 
HETATM   16  N3  UNL     1      17.275  30.376  13.870  1.00  0.00    -0.102 NA
HETATM   17  C26 UNL     1      17.794  32.589  14.796  1.00  0.00     0.028 A 
HETATM   18  C27 UNL     1      17.555  33.611  15.687  1.00  0.00     0.027 A 
ENDBRANCH   9  12
ENDBRANCH   4   9
ENDBRANCH   3   4
ENDBRANCH   2   3
BRANCH   2  19
HETATM   19  O1  UNL     1      19.997  34.641  20.761  1.00  0.00    -0.385 OA
ATOM     20  H1  UNL     1      20.044  35.252  21.487  1.00  0.00     0.211 HD
ENDBRANCH   2  19
ENDBRANCH   1   2
BRANCH   1  21
HETATM   21  C8  UNL     1      21.771  36.715  18.869  1.00  0.00     0.094 C 
BRANCH  21  22
HETATM   22  C9  UNL     1      23.003  36.761  19.657  1.00  0.00    -0.053 A 
HETATM   23  C10 UNL     1      23.229  35.762  20.604  1.00  0.00     0.007 A 
HETATM   24  C11 UNL     1      24.328  35.717  21.420  1.00  0.00     0.001 A 
HETATM   25  C12 UNL     1      25.277  36.718  21.305  1.00  0.00     0.000 A 
HETATM   26  C13 UNL     1      25.097  37.723  20.387  1.00  0.00     0.001 A 
HETATM   27  C14 UNL     1      23.954  37.729  19.571  1.00  0.00     0.007 A 
ENDBRANCH  21  22
ENDBRANCH   1  21
BRANCH   1  28
HETATM   28  N2  UNL     1      21.088  34.649  17.632  1.00  0.00    -0.307 N 
HETATM   29  C15 UNL     1      22.107  33.745  17.244  1.00  0.00     0.365 C 
HETATM   30  O2  UNL     1      23.081  33.559  17.982  1.00  0.00    -0.238 OA
ATOM     31  H2  UNL     1      20.304  34.777  16.992  1.00  0.00     0.170 HD
BRANCH  29  32
HETATM   32  O3  UNL     1      22.032  33.052  16.032  1.00  0.00    -0.296 OA
BRANCH  32  33
HETATM   33  C16 UNL     1      22.026  31.634  15.991  1.00  0.00     0.166 C 
HETATM   34  C17 UNL     1      20.681  31.067  16.303  1.00  0.00     0.204 C 
HETATM   35  O4  UNL     1      20.400  30.058  15.420  1.00  0.00    -0.358 OA
HETATM   36  C18 UNL     1      21.461  29.908  14.542  1.00  0.00     0.266 C 
HETATM   37  O5  UNL     1      21.055  29.761  13.221  1.00  0.00    -0.361 OA
HETATM   38  C21 UNL     1      22.206  31.227  14.543  1.00  0.00     0.075 C 
HETATM   39  C19 UNL     1      20.687  30.991  12.733  1.00  0.00     0.171 C 
HETATM   40  C20 UNL     1      21.402  32.044  13.586  1.00  0.00     0.038 C 
ENDBRANCH  32  33
ENDBRANCH  29  32
ENDBRANCH   1  28
TORSDOF 13
ENDMDL
