MODEL 3
REMARK VINA RESULT: -8.867417534      3.330      8.217
REMARK  13 active torsions:
REMARK  status: ('A' for Active; 'I' for Inactive)
REMARK    1  A    between atoms: C2_2  and  C4_4 
REMARK    2  A    between atoms: C4_4  and  N1_5 
REMARK    3  A    between atoms: N1_5  and  C5_6 
REMARK    4  A    between atoms: N1_5  and  S1_31 
REMARK    5  A    between atoms: C5_6  and  C6_7 
REMARK    6  A    between atoms: C6_7  and  O1_8 
REMARK    7  A    between atoms: C6_7  and  C7_10 
REMARK    8  A    between atoms: C7_10  and  C8_11 
REMARK    9  A    between atoms: C7_10  and  N2_18 
REMARK   10  A    between atoms: C8_11  and  C9_12 
REMARK       I    between atoms: N2_18  and  C15_20 
REMARK   11  A    between atoms: C15_20  and  O3_22 
REMARK   12  A    between atoms: O3_22  and  C16_23 
REMARK   13  A    between atoms: S1_31  and  C22_34 
ROOT
HETATM    1  C7  UNL     1      17.270  31.115  15.689  1.00  0.00     0.029 C 
ENDROOT
BRANCH   1   2
HETATM    2  C6  UNL     1      17.362  30.054  14.623  1.00  0.00     0.203 C 
BRANCH   2   3
HETATM    3  C5  UNL     1      18.119  30.433  13.416  1.00  0.00     0.119 C 
BRANCH   3   4
HETATM    4  N1  UNL     1      18.928  29.456  12.819  1.00  0.00    -0.262 N 
BRANCH   4   5
HETATM    5  C4  UNL     1      18.507  28.724  11.708  1.00  0.00     0.085 C 
BRANCH   5   6
HETATM    6  C2  UNL     1      17.279  27.849  11.924  1.00  0.00     0.017 C 
HETATM    7  C1  UNL     1      15.990  28.524  11.547  1.00  0.00     0.015 C 
HETATM    8  C3  UNL     1      17.400  26.528  11.200  1.00  0.00     0.015 C 
ENDBRANCH   5   6
ENDBRANCH   4   5
BRANCH   4   9
HETATM    9  S1  UNL     1      20.586  29.628  13.100  1.00  0.00     0.267 S 
HETATM   10  O6  UNL     1      21.085  30.793  12.258  1.00  0.00    -0.200 OA
HETATM   11  O7  UNL     1      20.896  29.923  14.561  1.00  0.00    -0.200 OA
BRANCH   9  12
HETATM   12  C22 UNL     1      21.531  28.216  12.645  1.00  0.00     0.080 A 
HETATM   13  C23 UNL     1      20.970  26.985  12.378  1.00  0.00     0.027 A 
HETATM   14  C24 UNL     1      21.734  25.888  12.027  1.00  0.00     0.028 A 
HETATM   15  C25 UNL     1      23.105  25.986  11.929  1.00  0.00     0.046 A 
HETATM   16  N3  UNL     1      23.904  24.845  11.564  1.00  0.00    -0.102 NA
HETATM   17  C26 UNL     1      23.682  27.208  12.192  1.00  0.00     0.028 A 
HETATM   18  C27 UNL     1      22.916  28.297  12.541  1.00  0.00     0.027 A 
ENDBRANCH   9  12
ENDBRANCH   4   9
ENDBRANCH   3   4
ENDBRANCH   2   3
BRANCH   2  19
HETATM   19  O1  UNL     1      18.028  28.962  15.232  1.00  0.00    -0.385 OA
ATOM     20  H1  UNL     1      18.646  29.311  15.863  1.00  0.00     0.211 HD
ENDBRANCH   2  19
ENDBRANCH   1   2
BRANCH   1  21
HETATM   21  C8  UNL     1      15.930  31.797  15.727  1.00  0.00     0.094 C 
BRANCH  21  22
HETATM   22  C9  UNL     1      15.926  33.154  16.272  1.00  0.00    -0.053 A 
HETATM   23  C10 UNL     1      15.471  33.350  17.576  1.00  0.00     0.007 A 
HETATM   24  C11 UNL     1      15.393  34.576  18.181  1.00  0.00     0.001 A 
HETATM   25  C12 UNL     1      15.785  35.692  17.465  1.00  0.00     0.000 A 
HETATM   26  C13 UNL     1      16.240  35.549  16.178  1.00  0.00     0.001 A 
HETATM   27  C14 UNL     1      16.303  34.273  15.596  1.00  0.00     0.007 A 
ENDBRANCH  21  22
ENDBRANCH   1  21
BRANCH   1  28
HETATM   28  N2  UNL     1      18.427  31.898  15.871  1.00  0.00    -0.307 N 
HETATM   29  C15 UNL     1      19.472  31.607  16.781  1.00  0.00     0.365 C 
HETATM   30  O2  UNL     1      19.405  30.602  17.498  1.00  0.00    -0.238 OA
ATOM     31  H2  UNL     1      18.519  32.740  15.302  1.00  0.00     0.170 HD
BRANCH  29  32
HETATM   32  O3  UNL     1      20.589  32.443  16.886  1.00  0.00    -0.296 OA
BRANCH  32  33
HETATM   33  C16 UNL     1      20.543  33.793  16.452  1.00  0.00     0.166 C 
HETATM   34  C17 UNL     1      19.635  34.625  17.294  1.00  0.00     0.204 C 
HETATM   35  O4  UNL     1      20.243  35.821  17.568  1.00  0.00    -0.358 OA
HETATM   36  C18 UNL     1      21.491  35.850  16.968  1.00  0.00     0.266 C 
HETATM   37  O5  UNL     1      22.483  36.349  17.804  1.00  0.00    -0.361 OA
HETATM   38  C21 UNL     1      21.895  34.406  16.754  1.00  0.00     0.075 C 
HETATM   39  C19 UNL     1      22.825  35.376  18.712  1.00  0.00     0.171 C 
HETATM   40  C20 UNL     1      22.439  34.029  18.093  1.00  0.00     0.038 C 
ENDBRANCH  32  33
ENDBRANCH  29  32
ENDBRANCH   1  28
TORSDOF 13
ENDMDL
