MODEL 2
REMARK VINA RESULT: -6.951198162      1.376      5.428
REMARK  14 active torsions:
REMARK  status: ('A' for Active; 'I' for Inactive)
REMARK    1  A    between atoms: C2_2  and  C3_3 
REMARK    2  A    between atoms: C3_3  and  C4_4 
REMARK    3  A    between atoms: C4_4  and  C5_5 
REMARK    4  A    between atoms: C5_5  and  C6_6 
REMARK    5  A    between atoms: C6_6  and  C7_7 
REMARK    6  A    between atoms: C7_7  and  C8_8 
REMARK    7  A    between atoms: C8_8  and  C9_9 
REMARK    8  A    between atoms: C9_9  and  C10_10 
REMARK    9  A    between atoms: C10_10  and  C11_11 
REMARK   10  A    between atoms: C11_11  and  C12_12 
REMARK   11  A    between atoms: C12_12  and  C13_13 
REMARK   12  A    between atoms: C13_13  and  C14_14 
REMARK   13  A    between atoms: C14_14  and  C15_15 
REMARK   14  A    between atoms: C15_15  and  C16_16 
ROOT
HETATM    1  C9  UNL     1      20.679   4.649   8.481  1.00  0.00     0.000 C 
ENDROOT
BRANCH   1   2
HETATM    2  C8  UNL     1      20.313   4.229   9.863  1.00  0.00     0.000 C 
BRANCH   2   3
HETATM    3  C7  UNL     1      20.591   5.242  10.924  1.00  0.00     0.000 C 
BRANCH   3   4
HETATM    4  C6  UNL     1      21.222   4.694  12.161  1.00  0.00     0.000 C 
BRANCH   4   5
HETATM    5  C5  UNL     1      20.886   5.549  13.389  1.00  0.00     0.000 C 
BRANCH   5   6
HETATM    6  C4  UNL     1      19.957   6.657  12.953  1.00  0.00     0.000 C 
BRANCH   6   7
HETATM    7  C3  UNL     1      20.428   8.010  13.428  1.00  0.00    -0.000 C 
BRANCH   7   8
HETATM    8  C2  UNL     1      20.804   7.993  14.895  1.00  0.00    -0.005 C 
HETATM    9  C1  UNL     1      21.545   9.269  15.259  1.00  0.00     0.005 C 
ENDBRANCH   7   8
ENDBRANCH   6   7
ENDBRANCH   5   6
ENDBRANCH   4   5
ENDBRANCH   3   4
ENDBRANCH   2   3
ENDBRANCH   1   2
BRANCH   1  10
HETATM   10  C10 UNL     1      19.427   4.599   7.628  1.00  0.00     0.000 C 
BRANCH  10  11
HETATM   11  C11 UNL     1      19.356   5.783   6.685  1.00  0.00     0.000 C 
BRANCH  11  12
HETATM   12  C12 UNL     1      20.434   6.785   6.948  1.00  0.00     0.000 C 
BRANCH  12  13
HETATM   13  C13 UNL     1      20.037   8.203   6.701  1.00  0.00     0.001 C 
BRANCH  13  14
HETATM   14  C14 UNL     1      20.471   9.071   7.835  1.00  0.00     0.010 C 
BRANCH  14  15
HETATM   15  C15 UNL     1      20.309   8.334   9.171  1.00  0.00     0.113 C 
BRANCH  15  16
HETATM   16  C16 UNL     1      19.451   9.127  10.084  1.00  0.00     0.172 C 
HETATM   17  O1  UNL     1      18.320   8.672  10.386  1.00  0.00    -0.648 OA
HETATM   18  O2  UNL     1      19.834  10.340  10.619  1.00  0.00    -0.648 OA
ENDBRANCH  15  16
ENDBRANCH  14  15
ENDBRANCH  13  14
ENDBRANCH  12  13
ENDBRANCH  11  12
ENDBRANCH  10  11
ENDBRANCH   1  10
TORSDOF 14
ENDMDL
