MODEL 1
REMARK VINA RESULT: -6.953107551      0.000      0.000
REMARK  14 active torsions:
REMARK  status: ('A' for Active; 'I' for Inactive)
REMARK    1  A    between atoms: C2_2  and  C3_3 
REMARK    2  A    between atoms: C3_3  and  C4_4 
REMARK    3  A    between atoms: C4_4  and  C5_5 
REMARK    4  A    between atoms: C5_5  and  C6_6 
REMARK    5  A    between atoms: C6_6  and  C7_7 
REMARK    6  A    between atoms: C7_7  and  C8_8 
REMARK    7  A    between atoms: C8_8  and  C9_9 
REMARK    8  A    between atoms: C9_9  and  C10_10 
REMARK    9  A    between atoms: C10_10  and  C11_11 
REMARK   10  A    between atoms: C11_11  and  C12_12 
REMARK   11  A    between atoms: C12_12  and  C13_13 
REMARK   12  A    between atoms: C13_13  and  C14_14 
REMARK   13  A    between atoms: C14_14  and  C15_15 
REMARK   14  A    between atoms: C15_15  and  C16_16 
ROOT
HETATM    1  C9  UNL     1      20.544   7.920  14.825  1.00  0.00     0.000 C 
ENDROOT
BRANCH   1   2
HETATM    2  C8  UNL     1      21.178   6.624  14.447  1.00  0.00     0.000 C 
BRANCH   2   3
HETATM    3  C7  UNL     1      20.400   5.804  13.473  1.00  0.00     0.000 C 
BRANCH   3   4
HETATM    4  C6  UNL     1      21.200   5.255  12.338  1.00  0.00     0.000 C 
BRANCH   4   5
HETATM    5  C5  UNL     1      20.432   5.348  11.013  1.00  0.00     0.000 C 
BRANCH   5   6
HETATM    6  C4  UNL     1      20.681   4.078  10.233  1.00  0.00     0.000 C 
BRANCH   6   7
HETATM    7  C3  UNL     1      20.509   4.284   8.748  1.00  0.00    -0.000 C 
BRANCH   7   8
HETATM    8  C2  UNL     1      20.482   5.754   8.382  1.00  0.00    -0.005 C 
HETATM    9  C1  UNL     1      20.056   5.923   6.933  1.00  0.00     0.005 C 
ENDBRANCH   7   8
ENDBRANCH   6   7
ENDBRANCH   5   6
ENDBRANCH   4   5
ENDBRANCH   3   4
ENDBRANCH   2   3
ENDBRANCH   1   2
BRANCH   1  10
HETATM   10  C10 UNL     1      21.649   8.906  15.146  1.00  0.00     0.000 C 
BRANCH  10  11
HETATM   11  C11 UNL     1      22.703   8.925  14.057  1.00  0.00     0.000 C 
BRANCH  11  12
HETATM   12  C12 UNL     1      22.244   9.657  12.835  1.00  0.00     0.000 C 
BRANCH  12  13
HETATM   13  C13 UNL     1      22.678   9.043  11.546  1.00  0.00     0.001 C 
BRANCH  13  14
HETATM   14  C14 UNL     1      21.496   8.757  10.681  1.00  0.00     0.010 C 
BRANCH  14  15
HETATM   15  C15 UNL     1      20.193   9.056  11.434  1.00  0.00     0.113 C 
BRANCH  15  16
HETATM   16  C16 UNL     1      19.050   9.041  10.490  1.00  0.00     0.172 C 
HETATM   17  O1  UNL     1      19.205   9.560   9.357  1.00  0.00    -0.648 OA
HETATM   18  O2  UNL     1      17.824   8.484  10.795  1.00  0.00    -0.648 OA
ENDBRANCH  15  16
ENDBRANCH  14  15
ENDBRANCH  13  14
ENDBRANCH  12  13
ENDBRANCH  11  12
ENDBRANCH  10  11
ENDBRANCH   1  10
TORSDOF 14
ENDMDL
