MODEL 5
REMARK VINA RESULT: -9.458128845      2.328      4.451
REMARK  17 active torsions:
REMARK  status: ('A' for Active; 'I' for Inactive)
REMARK       I    between atoms: C2_2  and  N1_4 
REMARK    1  A    between atoms: N1_4  and  C3_6 
REMARK    2  A    between atoms: C4_7  and  O2_8 
REMARK    3  A    between atoms: C6_12  and  O3_13 
REMARK    4  A    between atoms: C6_12  and  C16_37 
REMARK    5  A    between atoms: O3_13  and  P1_14 
REMARK    6  A    between atoms: P1_14  and  O6_17 
REMARK    7  A    between atoms: O6_17  and  C7_18 
REMARK    8  A    between atoms: C7_18  and  C8_19 
REMARK    9  A    between atoms: C9_21  and  N2_22 
REMARK   10  A    between atoms: C14_31  and  O9_32 
REMARK   11  A    between atoms: C15_34  and  O10_35 
REMARK   12  A    between atoms: C17_41  and  C18_42 
REMARK   13  A    between atoms: C18_42  and  O14_43 
REMARK   14  A    between atoms: C18_42  and  C19_45 
REMARK   15  A    between atoms: C19_45  and  O15_46 
REMARK   16  A    between atoms: C19_45  and  C20_48 
REMARK   17  A    between atoms: C20_48  and  O16_49 
ROOT
HETATM    1  C3  UNL     1      10.993   3.389   0.745  1.00  0.00     0.147 C 
HETATM    2  C4  UNL     1      11.963   2.526   1.601  1.00  0.00     0.183 C 
HETATM    3  C5  UNL     1      11.066   1.728   2.548  1.00  0.00     0.275 C 
HETATM    4  F1  UNL     1      11.046   2.531   3.707  1.00  0.00    -0.240 F 
HETATM    5  C6  UNL     1       9.756   1.405   2.031  1.00  0.00     0.299 C 
HETATM    6  O13 UNL     1       9.580   1.489   0.653  1.00  0.00    -0.334 OA
HETATM    7  C17 UNL     1      10.284   2.422  -0.038  1.00  0.00     0.182 C 
ENDROOT
BRANCH   5   8
HETATM    8  O3  UNL     1       9.358   0.091   2.292  1.00  0.00    -0.238 OA
BRANCH   8   9
HETATM    9  P1  UNL     1      10.289  -0.945   3.000  1.00  0.00     0.411 P 
HETATM   10  O4  UNL     1       9.622  -2.558   3.308  1.00  0.00    -0.624 OA
HETATM   11  O5  UNL     1       9.986  -0.630   4.430  1.00  0.00    -0.624 OA
BRANCH   9  12
HETATM   12  O6  UNL     1      11.924  -0.999   3.159  1.00  0.00    -0.287 OA
BRANCH  12  13
HETATM   13  C7  UNL     1      12.405  -1.997   4.022  1.00  0.00     0.216 C 
BRANCH  13  14
HETATM   14  C8  UNL     1      12.434  -3.296   3.332  1.00  0.00     0.180 C 
HETATM   15  O7  UNL     1      12.281  -3.449   1.993  1.00  0.00    -0.353 OA
HETATM   16  C9  UNL     1      12.196  -4.895   2.002  1.00  0.00     0.263 C 
HETATM   17  C14 UNL     1      13.555  -5.212   2.581  1.00  0.00     0.198 C 
HETATM   18  C15 UNL     1      13.640  -4.109   3.669  1.00  0.00     0.182 C 
BRANCH  16  19
HETATM   19  N2  UNL     1      11.926  -5.414   0.714  1.00  0.00    -0.280 N 
HETATM   20  C10 UNL     1      11.691  -4.565  -0.295  1.00  0.00     0.102 A 
HETATM   21  C11 UNL     1      11.436  -4.952  -1.586  1.00  0.00     0.062 A 
HETATM   22  C12 UNL     1      11.427  -6.328  -1.824  1.00  0.00     0.121 A 
HETATM   23  N3  UNL     1      11.179  -6.869  -3.121  1.00  0.00    -0.083 NA
HETATM   24  N4  UNL     1      11.672  -7.128  -0.788  1.00  0.00    -0.297 N 
HETATM   25  C13 UNL     1      11.920  -6.723   0.473  1.00  0.00     0.329 A 
ATOM     26  H4  UNL     1      11.673  -8.132  -0.963  1.00  0.00     0.171 HD
HETATM   27  O8  UNL     1      12.129  -7.599   1.352  1.00  0.00    -0.246 OA
ENDBRANCH  16  19
BRANCH  17  28
HETATM   28  O9  UNL     1      13.634  -6.394   3.267  1.00  0.00    -0.388 OA
ATOM     29  H9  UNL     1      14.418  -6.504   3.794  1.00  0.00     0.210 HD
ENDBRANCH  17  28
BRANCH  18  30
HETATM   30  O10 UNL     1      13.533  -4.688   4.942  1.00  0.00    -0.390 OA
ATOM     31  H10 UNL     1      14.255  -4.432   5.504  1.00  0.00     0.210 HD
ENDBRANCH  18  30
ENDBRANCH  13  14
ENDBRANCH  12  13
ENDBRANCH   9  12
ENDBRANCH   8   9
ENDBRANCH   5   8
BRANCH   5  32
HETATM   32  C16 UNL     1       8.708   2.253   2.657  1.00  0.00     0.242 C 
HETATM   33  O11 UNL     1       7.995   1.865   3.603  1.00  0.00    -0.644 OA
HETATM   34  O12 UNL     1       8.407   3.579   2.265  1.00  0.00    -0.644 OA
ENDBRANCH   5  32
BRANCH   2  35
HETATM   35  O2  UNL     1      12.825   3.314   2.343  1.00  0.00    -0.390 OA
ATOM     36  H2  UNL     1      13.336   2.795   2.952  1.00  0.00     0.210 HD
ENDBRANCH   2  35
BRANCH   7  37
HETATM   37  C18 UNL     1       9.469   2.845  -1.254  1.00  0.00     0.180 C 
BRANCH  37  38
HETATM   38  O14 UNL     1       8.621   3.867  -0.871  1.00  0.00    -0.390 OA
ATOM     39  H14 UNL     1       9.150   4.595  -0.569  1.00  0.00     0.210 HD
ENDBRANCH  37  38
BRANCH  37  40
HETATM   40  C19 UNL     1       8.699   1.684  -1.828  1.00  0.00     0.173 C 
BRANCH  40  41
HETATM   41  O15 UNL     1       9.512   0.593  -1.893  1.00  0.00    -0.391 OA
ATOM     42  H15 UNL     1       9.801   0.364  -1.017  1.00  0.00     0.210 HD
ENDBRANCH  40  41
BRANCH  40  43
HETATM   43  C20 UNL     1       8.003   2.058  -3.099  1.00  0.00     0.198 C 
BRANCH  43  44
HETATM   44  O16 UNL     1       6.929   2.929  -2.832  1.00  0.00    -0.398 OA
ATOM     45  H16 UNL     1       6.815   3.542  -3.548  1.00  0.00     0.209 HD
ENDBRANCH  43  44
ENDBRANCH  40  43
ENDBRANCH  37  40
ENDBRANCH   7  37
BRANCH   1  46
HETATM   46  N1  UNL     1      11.690   4.460   0.082  1.00  0.00    -0.352 N 
HETATM   47  C2  UNL     1      11.289   5.788  -0.016  1.00  0.00     0.214 C 
HETATM   48  C1  UNL     1      12.073   6.823  -0.775  1.00  0.00     0.117 C 
HETATM   49  O1  UNL     1      10.225   6.158   0.550  1.00  0.00    -0.274 OA
ATOM     50  H1  UNL     1      12.575   4.217  -0.366  1.00  0.00     0.163 HD
ENDBRANCH   1  46
TORSDOF 17
ENDMDL
