MODEL 13
REMARK VINA RESULT: -9.196768102      2.055      3.892
REMARK  17 active torsions:
REMARK  status: ('A' for Active; 'I' for Inactive)
REMARK       I    between atoms: C2_2  and  N1_4 
REMARK    1  A    between atoms: N1_4  and  C3_6 
REMARK    2  A    between atoms: C4_7  and  O2_8 
REMARK    3  A    between atoms: C6_12  and  O3_13 
REMARK    4  A    between atoms: C6_12  and  C16_37 
REMARK    5  A    between atoms: O3_13  and  P1_14 
REMARK    6  A    between atoms: P1_14  and  O6_17 
REMARK    7  A    between atoms: O6_17  and  C7_18 
REMARK    8  A    between atoms: C7_18  and  C8_19 
REMARK    9  A    between atoms: C9_21  and  N2_22 
REMARK   10  A    between atoms: C14_31  and  O9_32 
REMARK   11  A    between atoms: C15_34  and  O10_35 
REMARK   12  A    between atoms: C17_41  and  C18_42 
REMARK   13  A    between atoms: C18_42  and  O14_43 
REMARK   14  A    between atoms: C18_42  and  C19_45 
REMARK   15  A    between atoms: C19_45  and  O15_46 
REMARK   16  A    between atoms: C19_45  and  C20_48 
REMARK   17  A    between atoms: C20_48  and  O16_49 
ROOT
HETATM    1  C3  UNL     1      10.238   3.176  -3.233  1.00  0.00     0.147 C 
HETATM    2  C4  UNL     1      11.443   4.159  -3.235  1.00  0.00     0.183 C 
HETATM    3  C5  UNL     1      11.450   4.793  -1.844  1.00  0.00     0.275 C 
HETATM    4  F1  UNL     1      10.714   5.980  -2.039  1.00  0.00    -0.240 F 
HETATM    5  C6  UNL     1      10.946   3.954  -0.781  1.00  0.00     0.299 C 
HETATM    6  O13 UNL     1      10.881   2.587  -1.030  1.00  0.00    -0.334 OA
HETATM    7  C17 UNL     1      10.630   2.166  -2.296  1.00  0.00     0.182 C 
ENDROOT
BRANCH   5   8
HETATM    8  O3  UNL     1      11.718   3.998   0.383  1.00  0.00    -0.238 OA
BRANCH   8   9
HETATM    9  P1  UNL     1      11.720   2.843   1.435  1.00  0.00     0.411 P 
HETATM   10  O4  UNL     1      10.651   3.020   2.837  1.00  0.00    -0.624 OA
HETATM   11  O5  UNL     1      12.833   3.303   2.323  1.00  0.00    -0.624 OA
BRANCH   9  12
HETATM   12  O6  UNL     1      12.204   1.276   1.322  1.00  0.00    -0.287 OA
BRANCH  12  13
HETATM   13  C7  UNL     1      12.105   0.535   2.510  1.00  0.00     0.216 C 
BRANCH  13  14
HETATM   14  C8  UNL     1      11.469  -0.765   2.249  1.00  0.00     0.180 C 
HETATM   15  O7  UNL     1      12.145  -1.937   2.156  1.00  0.00    -0.353 OA
HETATM   16  C9  UNL     1      11.027  -2.736   1.698  1.00  0.00     0.263 C 
HETATM   17  C14 UNL     1      10.107  -2.563   2.885  1.00  0.00     0.198 C 
HETATM   18  C15 UNL     1      10.336  -1.057   3.177  1.00  0.00     0.182 C 
BRANCH  16  19
HETATM   19  N2  UNL     1      11.417  -4.061   1.393  1.00  0.00    -0.280 N 
HETATM   20  C10 UNL     1      11.493  -4.961   2.382  1.00  0.00     0.102 A 
HETATM   21  C11 UNL     1      11.842  -6.276   2.203  1.00  0.00     0.062 A 
HETATM   22  C12 UNL     1      12.131  -6.662   0.892  1.00  0.00     0.121 A 
HETATM   23  N3  UNL     1      12.504  -7.999   0.563  1.00  0.00    -0.083 NA
HETATM   24  N4  UNL     1      12.035  -5.728  -0.053  1.00  0.00    -0.297 N 
HETATM   25  C13 UNL     1      11.690  -4.442   0.148  1.00  0.00     0.329 A 
ATOM     26  H4  UNL     1      12.239  -6.012  -1.012  1.00  0.00     0.171 HD
HETATM   27  O8  UNL     1      11.647  -3.672  -0.847  1.00  0.00    -0.246 OA
ENDBRANCH  16  19
BRANCH  17  28
HETATM   28  O9  UNL     1       8.771  -2.673   2.607  1.00  0.00    -0.388 OA
ATOM     29  H9  UNL     1       8.216  -2.854   3.356  1.00  0.00     0.210 HD
ENDBRANCH  17  28
BRANCH  18  30
HETATM   30  O10 UNL     1       9.188  -0.327   2.835  1.00  0.00    -0.390 OA
ATOM     31  H10 UNL     1       8.777  -0.670   2.050  1.00  0.00     0.210 HD
ENDBRANCH  18  30
ENDBRANCH  13  14
ENDBRANCH  12  13
ENDBRANCH   9  12
ENDBRANCH   8   9
ENDBRANCH   5   8
BRANCH   5  32
HETATM   32  C16 UNL     1       9.589   4.385  -0.355  1.00  0.00     0.242 C 
HETATM   33  O11 UNL     1       9.390   5.352   0.406  1.00  0.00    -0.644 OA
HETATM   34  O12 UNL     1       8.384   3.763  -0.761  1.00  0.00    -0.644 OA
ENDBRANCH   5  32
BRANCH   2  35
HETATM   35  O2  UNL     1      11.290   5.150  -4.189  1.00  0.00    -0.390 OA
ATOM     36  H2  UNL     1      11.726   4.924  -5.002  1.00  0.00     0.210 HD
ENDBRANCH   2  35
BRANCH   7  37
HETATM   37  C18 UNL     1       9.895   0.833  -2.230  1.00  0.00     0.180 C 
BRANCH  37  38
HETATM   38  O14 UNL     1       9.029   0.870  -1.153  1.00  0.00    -0.390 OA
ATOM     39  H14 UNL     1       8.838  -0.023  -0.895  1.00  0.00     0.210 HD
ENDBRANCH  37  38
BRANCH  37  40
HETATM   40  C19 UNL     1      10.859  -0.319  -2.114  1.00  0.00     0.173 C 
BRANCH  40  41
HETATM   41  O15 UNL     1      11.970   0.091  -1.440  1.00  0.00    -0.391 OA
ATOM     42  H15 UNL     1      12.513  -0.664  -1.243  1.00  0.00     0.210 HD
ENDBRANCH  40  41
BRANCH  40  43
HETATM   43  C20 UNL     1      11.101  -0.971  -3.440  1.00  0.00     0.198 C 
BRANCH  43  44
HETATM   44  O16 UNL     1      10.902  -2.361  -3.346  1.00  0.00    -0.398 OA
ATOM     45  H16 UNL     1       9.982  -2.571  -3.456  1.00  0.00     0.209 HD
ENDBRANCH  43  44
ENDBRANCH  40  43
ENDBRANCH  37  40
ENDBRANCH   7  37
BRANCH   1  46
HETATM   46  N1  UNL     1       9.872   2.793  -4.571  1.00  0.00    -0.352 N 
HETATM   47  C2  UNL     1       8.927   3.403  -5.390  1.00  0.00     0.214 C 
HETATM   48  C1  UNL     1       8.586   2.893  -6.763  1.00  0.00     0.117 C 
HETATM   49  O1  UNL     1       8.321   4.429  -4.978  1.00  0.00    -0.274 OA
ATOM     50  H1  UNL     1      10.359   1.986  -4.962  1.00  0.00     0.163 HD
ENDBRANCH   1  46
TORSDOF 17
ENDMDL
