MODEL 2
REMARK VINA RESULT: -9.698162889      2.601      4.123
REMARK  17 active torsions:
REMARK  status: ('A' for Active; 'I' for Inactive)
REMARK       I    between atoms: C2_2  and  N1_4 
REMARK    1  A    between atoms: N1_4  and  C3_6 
REMARK    2  A    between atoms: C4_7  and  O2_8 
REMARK    3  A    between atoms: C6_12  and  O3_13 
REMARK    4  A    between atoms: C6_12  and  C16_37 
REMARK    5  A    between atoms: O3_13  and  P1_14 
REMARK    6  A    between atoms: P1_14  and  O6_17 
REMARK    7  A    between atoms: O6_17  and  C7_18 
REMARK    8  A    between atoms: C7_18  and  C8_19 
REMARK    9  A    between atoms: C9_21  and  N2_22 
REMARK   10  A    between atoms: C14_31  and  O9_32 
REMARK   11  A    between atoms: C15_34  and  O10_35 
REMARK   12  A    between atoms: C17_41  and  C18_42 
REMARK   13  A    between atoms: C18_42  and  O14_43 
REMARK   14  A    between atoms: C18_42  and  C19_45 
REMARK   15  A    between atoms: C19_45  and  O15_46 
REMARK   16  A    between atoms: C19_45  and  C20_48 
REMARK   17  A    between atoms: C20_48  and  O16_49 
ROOT
HETATM    1  C3  UNL     1      10.984   3.605  -4.038  1.00  0.00     0.147 C 
HETATM    2  C4  UNL     1      10.537   5.070  -3.772  1.00  0.00     0.183 C 
HETATM    3  C5  UNL     1       9.307   4.959  -2.869  1.00  0.00     0.275 C 
HETATM    4  F1  UNL     1       8.241   4.992  -3.791  1.00  0.00    -0.240 F 
HETATM    5  C6  UNL     1       9.290   3.814  -1.987  1.00  0.00     0.299 C 
HETATM    6  O13 UNL     1      10.503   3.172  -1.759  1.00  0.00    -0.334 OA
HETATM    7  C17 UNL     1      11.426   3.149  -2.754  1.00  0.00     0.182 C 
ENDROOT
BRANCH   5   8
HETATM    8  O3  UNL     1       8.872   4.113  -0.688  1.00  0.00    -0.238 OA
BRANCH   8   9
HETATM    9  P1  UNL     1       9.405   3.344   0.564  1.00  0.00     0.411 P 
HETATM   10  O4  UNL     1       9.060   1.608   0.657  1.00  0.00    -0.624 OA
HETATM   11  O5  UNL     1       8.255   3.544   1.499  1.00  0.00    -0.624 OA
BRANCH   9  12
HETATM   12  O6  UNL     1      10.591   3.715   1.639  1.00  0.00    -0.287 OA
BRANCH  12  13
HETATM   13  C7  UNL     1      11.649   2.795   1.700  1.00  0.00     0.216 C 
BRANCH  13  14
HETATM   14  C8  UNL     1      11.221   1.571   2.394  1.00  0.00     0.180 C 
HETATM   15  O7  UNL     1      11.974   0.446   2.483  1.00  0.00    -0.353 OA
HETATM   16  C9  UNL     1      10.945  -0.394   3.062  1.00  0.00     0.263 C 
HETATM   17  C14 UNL     1      10.699   0.375   4.340  1.00  0.00     0.198 C 
HETATM   18  C15 UNL     1      10.755   1.824   3.790  1.00  0.00     0.182 C 
BRANCH  16  19
HETATM   19  N2  UNL     1      11.379  -1.732   3.209  1.00  0.00    -0.280 N 
HETATM   20  C10 UNL     1      12.635  -1.970   3.608  1.00  0.00     0.102 A 
HETATM   21  C11 UNL     1      13.159  -3.224   3.800  1.00  0.00     0.062 A 
HETATM   22  C12 UNL     1      12.297  -4.294   3.552  1.00  0.00     0.121 A 
HETATM   23  N3  UNL     1      12.711  -5.650   3.716  1.00  0.00    -0.083 NA
HETATM   24  N4  UNL     1      11.058  -4.002   3.162  1.00  0.00    -0.297 N 
HETATM   25  C13 UNL     1      10.566  -2.761   2.979  1.00  0.00     0.329 A 
ATOM     26  H4  UNL     1      10.427  -4.784   2.987  1.00  0.00     0.171 HD
HETATM   27  O8  UNL     1       9.372  -2.642   2.601  1.00  0.00    -0.246 OA
ENDBRANCH  16  19
BRANCH  17  28
HETATM   28  O9  UNL     1       9.443   0.242   4.867  1.00  0.00    -0.388 OA
ATOM     29  H9  UNL     1       9.403   0.217   5.816  1.00  0.00     0.210 HD
ENDBRANCH  17  28
BRANCH  18  30
HETATM   30  O10 UNL     1       9.472   2.389   3.809  1.00  0.00    -0.390 OA
ATOM     31  H10 UNL     1       9.225   2.664   4.685  1.00  0.00     0.210 HD
ENDBRANCH  18  30
ENDBRANCH  13  14
ENDBRANCH  12  13
ENDBRANCH   9  12
ENDBRANCH   8   9
ENDBRANCH   5   8
BRANCH   5  32
HETATM   32  C16 UNL     1       8.334   2.782  -2.468  1.00  0.00     0.242 C 
HETATM   33  O11 UNL     1       7.105   2.976  -2.543  1.00  0.00    -0.644 OA
HETATM   34  O12 UNL     1       8.701   1.484  -2.895  1.00  0.00    -0.644 OA
ENDBRANCH   5  32
BRANCH   2  35
HETATM   35  O2  UNL     1      10.187   5.717  -4.944  1.00  0.00    -0.390 OA
ATOM     36  H2  UNL     1      10.585   6.578  -5.000  1.00  0.00     0.210 HD
ENDBRANCH   2  35
BRANCH   7  37
HETATM   37  C18 UNL     1      12.256   1.879  -2.618  1.00  0.00     0.180 C 
BRANCH  37  38
HETATM   38  O14 UNL     1      11.636   0.877  -3.340  1.00  0.00    -0.390 OA
ATOM     39  H14 UNL     1      12.108   0.067  -3.190  1.00  0.00     0.210 HD
ENDBRANCH  37  38
BRANCH  37  40
HETATM   40  C19 UNL     1      12.423   1.486  -1.173  1.00  0.00     0.173 C 
BRANCH  40  41
HETATM   41  O15 UNL     1      13.702   1.742  -0.781  1.00  0.00    -0.391 OA
ATOM     42  H15 UNL     1      14.082   2.395  -1.359  1.00  0.00     0.210 HD
ENDBRANCH  40  41
BRANCH  40  43
HETATM   43  C20 UNL     1      11.926   0.097  -0.918  1.00  0.00     0.198 C 
BRANCH  43  44
HETATM   44  O16 UNL     1      10.522   0.056  -0.996  1.00  0.00    -0.398 OA
ATOM     45  H16 UNL     1      10.232   0.295  -1.869  1.00  0.00     0.209 HD
ENDBRANCH  43  44
ENDBRANCH  40  43
ENDBRANCH  37  40
ENDBRANCH   7  37
BRANCH   1  46
HETATM   46  N1  UNL     1      11.882   3.527  -5.161  1.00  0.00    -0.352 N 
HETATM   47  C2  UNL     1      11.537   3.438  -6.505  1.00  0.00     0.214 C 
HETATM   48  C1  UNL     1      12.557   3.315  -7.603  1.00  0.00     0.117 C 
HETATM   49  O1  UNL     1      10.320   3.460  -6.836  1.00  0.00    -0.274 OA
ATOM     50  H1  UNL     1      12.879   3.538  -4.947  1.00  0.00     0.163 HD
ENDBRANCH   1  46
TORSDOF 17
ENDMDL
