MODEL 8
REMARK VINA RESULT: -9.255325815      2.167      3.465
REMARK  17 active torsions:
REMARK  status: ('A' for Active; 'I' for Inactive)
REMARK       I    between atoms: C2_2  and  N1_4 
REMARK    1  A    between atoms: N1_4  and  C3_6 
REMARK    2  A    between atoms: C4_7  and  O2_8 
REMARK    3  A    between atoms: C6_12  and  O3_13 
REMARK    4  A    between atoms: C6_12  and  C16_37 
REMARK    5  A    between atoms: O3_13  and  P1_14 
REMARK    6  A    between atoms: P1_14  and  O6_17 
REMARK    7  A    between atoms: O6_17  and  C7_18 
REMARK    8  A    between atoms: C7_18  and  C8_19 
REMARK    9  A    between atoms: C9_21  and  N2_22 
REMARK   10  A    between atoms: C14_31  and  O9_32 
REMARK   11  A    between atoms: C15_34  and  O10_35 
REMARK   12  A    between atoms: C17_41  and  C18_42 
REMARK   13  A    between atoms: C18_42  and  O14_43 
REMARK   14  A    between atoms: C18_42  and  C19_45 
REMARK   15  A    between atoms: C19_45  and  O15_46 
REMARK   16  A    between atoms: C19_45  and  C20_48 
REMARK   17  A    between atoms: C20_48  and  O16_49 
ROOT
HETATM    1  C3  UNL     1      10.786   3.520  -3.843  1.00  0.00     0.147 C 
HETATM    2  C4  UNL     1      10.245   4.946  -3.540  1.00  0.00     0.183 C 
HETATM    3  C5  UNL     1       9.057   4.736  -2.600  1.00  0.00     0.275 C 
HETATM    4  F1  UNL     1       7.961   4.705  -3.487  1.00  0.00    -0.240 F 
HETATM    5  C6  UNL     1       9.150   3.582  -1.736  1.00  0.00     0.299 C 
HETATM    6  O13 UNL     1      10.413   3.025  -1.556  1.00  0.00    -0.334 OA
HETATM    7  C17 UNL     1      11.301   3.080  -2.582  1.00  0.00     0.182 C 
ENDROOT
BRANCH   5   8
HETATM    8  O3  UNL     1       8.757   3.833  -0.419  1.00  0.00    -0.238 OA
BRANCH   8   9
HETATM    9  P1  UNL     1       9.290   3.002   0.791  1.00  0.00     0.411 P 
HETATM   10  O4  UNL     1       9.079   3.695   2.409  1.00  0.00    -0.624 OA
HETATM   11  O5  UNL     1      10.700   3.499   0.846  1.00  0.00    -0.624 OA
BRANCH   9  12
HETATM   12  O6  UNL     1       9.648   1.404   0.934  1.00  0.00    -0.287 OA
BRANCH  12  13
HETATM   13  C7  UNL     1       9.322   0.829   2.173  1.00  0.00     0.216 C 
BRANCH  13  14
HETATM   14  C8  UNL     1      10.179  -0.337   2.435  1.00  0.00     0.180 C 
HETATM   15  O7  UNL     1      10.301  -1.394   1.594  1.00  0.00    -0.353 OA
HETATM   16  C9  UNL     1      11.070  -2.231   2.493  1.00  0.00     0.263 C 
HETATM   17  C14 UNL     1      12.282  -1.345   2.668  1.00  0.00     0.198 C 
HETATM   18  C15 UNL     1      11.584   0.035   2.778  1.00  0.00     0.182 C 
BRANCH  16  19
HETATM   19  N2  UNL     1      11.304  -3.514   1.947  1.00  0.00    -0.280 N 
HETATM   20  C10 UNL     1      11.201  -3.687   0.622  1.00  0.00     0.102 A 
HETATM   21  C11 UNL     1      11.421  -4.880  -0.019  1.00  0.00     0.062 A 
HETATM   22  C12 UNL     1      11.772  -5.959   0.794  1.00  0.00     0.121 A 
HETATM   23  N3  UNL     1      12.034  -7.255   0.258  1.00  0.00    -0.083 NA
HETATM   24  N4  UNL     1      11.866  -5.731   2.103  1.00  0.00    -0.297 N 
HETATM   25  C13 UNL     1      11.644  -4.550   2.710  1.00  0.00     0.329 A 
ATOM     26  H4  UNL     1      12.130  -6.518   2.696  1.00  0.00     0.171 HD
HETATM   27  O8  UNL     1      11.766  -4.489   3.962  1.00  0.00    -0.246 OA
ENDBRANCH  16  19
BRANCH  17  28
HETATM   28  O9  UNL     1      12.950  -1.501   3.852  1.00  0.00    -0.388 OA
ATOM     29  H9  UNL     1      13.800  -1.077   3.895  1.00  0.00     0.210 HD
ENDBRANCH  17  28
BRANCH  18  30
HETATM   30  O10 UNL     1      11.683   0.515   4.092  1.00  0.00    -0.390 OA
ATOM     31  H10 UNL     1      12.443   1.076   4.203  1.00  0.00     0.210 HD
ENDBRANCH  18  30
ENDBRANCH  13  14
ENDBRANCH  12  13
ENDBRANCH   9  12
ENDBRANCH   8   9
ENDBRANCH   5   8
BRANCH   5  32
HETATM   32  C16 UNL     1       8.254   2.490  -2.201  1.00  0.00     0.242 C 
HETATM   33  O11 UNL     1       7.038   2.655  -2.419  1.00  0.00    -0.644 OA
HETATM   34  O12 UNL     1       8.671   1.161  -2.452  1.00  0.00    -0.644 OA
ENDBRANCH   5  32
BRANCH   2  35
HETATM   35  O2  UNL     1       9.812   5.582  -4.690  1.00  0.00    -0.390 OA
ATOM     36  H2  UNL     1       9.712   6.517  -4.557  1.00  0.00     0.210 HD
ENDBRANCH   2  35
BRANCH   7  37
HETATM   37  C18 UNL     1      12.224   1.871  -2.492  1.00  0.00     0.180 C 
BRANCH  37  38
HETATM   38  O14 UNL     1      11.698   0.866  -3.281  1.00  0.00    -0.390 OA
ATOM     39  H14 UNL     1      12.310   0.140  -3.284  1.00  0.00     0.210 HD
ENDBRANCH  37  38
BRANCH  37  40
HETATM   40  C19 UNL     1      12.390   1.414  -1.065  1.00  0.00     0.173 C 
BRANCH  40  41
HETATM   41  O15 UNL     1      13.638   1.741  -0.630  1.00  0.00    -0.391 OA
ATOM     42  H15 UNL     1      14.272   1.525  -1.304  1.00  0.00     0.210 HD
ENDBRANCH  40  41
BRANCH  40  43
HETATM   43  C20 UNL     1      11.993  -0.020  -0.896  1.00  0.00     0.198 C 
BRANCH  43  44
HETATM   44  O16 UNL     1      10.601  -0.164  -1.044  1.00  0.00    -0.398 OA
ATOM     45  H16 UNL     1      10.397  -0.985  -1.474  1.00  0.00     0.209 HD
ENDBRANCH  43  44
ENDBRANCH  40  43
ENDBRANCH  37  40
ENDBRANCH   7  37
BRANCH   1  46
HETATM   46  N1  UNL     1      11.649   3.521  -4.996  1.00  0.00    -0.352 N 
HETATM   47  C2  UNL     1      11.269   3.387  -6.327  1.00  0.00     0.214 C 
HETATM   48  C1  UNL     1      12.260   3.355  -7.459  1.00  0.00     0.117 C 
HETATM   49  O1  UNL     1      10.046   3.286  -6.616  1.00  0.00    -0.274 OA
ATOM     50  H1  UNL     1      12.647   3.632  -4.816  1.00  0.00     0.163 HD
ENDBRANCH   1  46
TORSDOF 17
ENDMDL
