MODEL 3
REMARK VINA RESULT: -9.328734603      2.487      8.531
REMARK  17 active torsions:
REMARK  status: ('A' for Active; 'I' for Inactive)
REMARK       I    between atoms: C2_2  and  N1_4 
REMARK    1  A    between atoms: N1_4  and  C3_6 
REMARK    2  A    between atoms: C4_7  and  O2_8 
REMARK    3  A    between atoms: C6_12  and  O3_13 
REMARK    4  A    between atoms: C6_12  and  C16_37 
REMARK    5  A    between atoms: O3_13  and  P1_14 
REMARK    6  A    between atoms: P1_14  and  O6_17 
REMARK    7  A    between atoms: O6_17  and  C7_18 
REMARK    8  A    between atoms: C7_18  and  C8_19 
REMARK    9  A    between atoms: C9_21  and  N2_22 
REMARK   10  A    between atoms: C14_31  and  O9_32 
REMARK   11  A    between atoms: C15_34  and  O10_35 
REMARK   12  A    between atoms: C17_41  and  C18_42 
REMARK   13  A    between atoms: C18_42  and  O14_43 
REMARK   14  A    between atoms: C18_42  and  C19_45 
REMARK   15  A    between atoms: C19_45  and  O15_46 
REMARK   16  A    between atoms: C19_45  and  C20_48 
REMARK   17  A    between atoms: C20_48  and  O16_49 
ROOT
HETATM    1  C3  UNL     1      11.672  -1.344   3.451  1.00  0.00     0.147 C 
HETATM    2  C4  UNL     1      11.566  -0.017   4.188  1.00  0.00     0.183 C 
HETATM    3  C5  UNL     1      10.185   0.534   3.973  1.00  0.00     0.275 C 
HETATM    4  F1  UNL     1      10.214   1.890   4.311  1.00  0.00    -0.240 F 
HETATM    5  C6  UNL     1       9.929   0.514   2.454  1.00  0.00     0.299 C 
HETATM    6  O13 UNL     1       9.846  -0.772   2.000  1.00  0.00    -0.334 OA
HETATM    7  C17 UNL     1      10.349  -1.713   2.846  1.00  0.00     0.182 C 
ENDROOT
BRANCH   5   8
HETATM    8  O3  UNL     1      11.093   1.118   1.956  1.00  0.00    -0.238 OA
BRANCH   8   9
HETATM    9  P1  UNL     1      11.258   0.997   0.355  1.00  0.00     0.411 P 
HETATM   10  O4  UNL     1       9.987   0.465  -0.349  1.00  0.00    -0.624 OA
HETATM   11  O5  UNL     1      12.457  -0.167  -0.019  1.00  0.00    -0.624 OA
BRANCH   9  12
HETATM   12  O6  UNL     1      11.625   2.453  -0.431  1.00  0.00    -0.287 OA
BRANCH  12  13
HETATM   13  C7  UNL     1      11.947   2.033  -1.817  1.00  0.00     0.216 C 
BRANCH  13  14
HETATM   14  C8  UNL     1      11.154   2.985  -2.563  1.00  0.00     0.180 C 
HETATM   15  O7  UNL     1       9.915   2.650  -3.098  1.00  0.00    -0.353 OA
HETATM   16  C9  UNL     1       9.898   3.688  -4.075  1.00  0.00     0.263 C 
HETATM   17  C14 UNL     1      10.325   4.959  -3.301  1.00  0.00     0.198 C 
HETATM   18  C15 UNL     1      10.785   4.310  -1.968  1.00  0.00     0.182 C 
BRANCH  16  19
HETATM   19  N2  UNL     1       8.574   3.996  -4.534  1.00  0.00    -0.280 N 
HETATM   20  C10 UNL     1       7.604   4.139  -3.590  1.00  0.00     0.102 A 
HETATM   21  C11 UNL     1       6.362   4.567  -3.970  1.00  0.00     0.062 A 
HETATM   22  C12 UNL     1       6.158   4.834  -5.315  1.00  0.00     0.121 A 
HETATM   23  N3  UNL     1       4.900   5.343  -5.740  1.00  0.00    -0.083 NA
HETATM   24  N4  UNL     1       7.132   4.683  -6.259  1.00  0.00    -0.297 N 
HETATM   25  C13 UNL     1       8.330   4.259  -5.815  1.00  0.00     0.329 A 
ATOM     26  H4  UNL     1       6.962   4.879  -7.246  1.00  0.00     0.171 HD
HETATM   27  O8  UNL     1       9.253   4.111  -6.658  1.00  0.00    -0.246 OA
ENDBRANCH  16  19
BRANCH  17  28
HETATM   28  O9  UNL     1      11.432   5.477  -3.906  1.00  0.00    -0.388 OA
ATOM     29  H9  UNL     1      11.263   6.390  -4.105  1.00  0.00     0.210 HD
ENDBRANCH  17  28
BRANCH  18  30
HETATM   30  O10 UNL     1      11.787   5.009  -1.371  1.00  0.00    -0.390 OA
ATOM     31  H10 UNL     1      11.547   5.536  -0.619  1.00  0.00     0.210 HD
ENDBRANCH  18  30
ENDBRANCH  13  14
ENDBRANCH  12  13
ENDBRANCH   9  12
ENDBRANCH   8   9
ENDBRANCH   5   8
BRANCH   5  32
HETATM   32  C16 UNL     1       8.703   1.260   2.241  1.00  0.00     0.242 C 
HETATM   33  O11 UNL     1       7.581   0.679   2.443  1.00  0.00    -0.644 OA
HETATM   34  O12 UNL     1       8.590   2.572   1.833  1.00  0.00    -0.644 OA
ENDBRANCH   5  32
BRANCH   2  35
HETATM   35  O2  UNL     1      12.479   0.840   3.551  1.00  0.00    -0.390 OA
ATOM     36  H2  UNL     1      12.331   1.697   3.932  1.00  0.00     0.210 HD
ENDBRANCH   2  35
BRANCH   7  37
HETATM   37  C18 UNL     1      10.432  -3.076   2.246  1.00  0.00     0.180 C 
BRANCH  37  38
HETATM   38  O14 UNL     1      10.482  -4.099   3.179  1.00  0.00    -0.390 OA
ATOM     39  H14 UNL     1      10.920  -4.884   2.869  1.00  0.00     0.210 HD
ENDBRANCH  37  38
BRANCH  37  40
HETATM   40  C19 UNL     1      11.397  -3.275   1.128  1.00  0.00     0.173 C 
BRANCH  40  41
HETATM   41  O15 UNL     1      11.145  -2.637  -0.048  1.00  0.00    -0.391 OA
ATOM     42  H15 UNL     1      11.261  -3.129  -0.853  1.00  0.00     0.210 HD
ENDBRANCH  40  41
BRANCH  40  43
HETATM   43  C20 UNL     1      11.724  -4.755   0.950  1.00  0.00     0.198 C 
BRANCH  43  44
HETATM   44  O16 UNL     1      12.902  -5.104   1.621  1.00  0.00    -0.398 OA
ATOM     45  H16 UNL     1      13.311  -4.347   2.023  1.00  0.00     0.209 HD
ENDBRANCH  43  44
ENDBRANCH  40  43
ENDBRANCH  37  40
ENDBRANCH   7  37
BRANCH   1  46
HETATM   46  N1  UNL     1      12.013  -2.415   4.368  1.00  0.00    -0.352 N 
HETATM   47  C2  UNL     1      13.238  -3.124   4.300  1.00  0.00     0.214 C 
HETATM   48  C1  UNL     1      13.537  -4.237   5.268  1.00  0.00     0.117 C 
HETATM   49  O1  UNL     1      14.099  -2.833   3.429  1.00  0.00    -0.274 OA
ATOM     50  H1  UNL     1      11.342  -2.668   5.094  1.00  0.00     0.163 HD
ENDBRANCH   1  46
TORSDOF 17
ENDMDL
