MODEL 4
REMARK VINA RESULT: -9.324991923      2.533      3.950
REMARK  17 active torsions:
REMARK  status: ('A' for Active; 'I' for Inactive)
REMARK       I    between atoms: C2_2  and  N1_4 
REMARK    1  A    between atoms: N1_4  and  C3_6 
REMARK    2  A    between atoms: C4_7  and  O2_8 
REMARK    3  A    between atoms: C6_12  and  O3_13 
REMARK    4  A    between atoms: C6_12  and  C16_37 
REMARK    5  A    between atoms: O3_13  and  P1_14 
REMARK    6  A    between atoms: P1_14  and  O6_17 
REMARK    7  A    between atoms: O6_17  and  C7_18 
REMARK    8  A    between atoms: C7_18  and  C8_19 
REMARK    9  A    between atoms: C9_21  and  N2_22 
REMARK   10  A    between atoms: C14_31  and  O9_32 
REMARK   11  A    between atoms: C15_34  and  O10_35 
REMARK   12  A    between atoms: C17_41  and  C18_42 
REMARK   13  A    between atoms: C18_42  and  O14_43 
REMARK   14  A    between atoms: C18_42  and  C19_45 
REMARK   15  A    between atoms: C19_45  and  O15_46 
REMARK   16  A    between atoms: C19_45  and  C20_48 
REMARK   17  A    between atoms: C20_48  and  O16_49 
ROOT
HETATM    1  C3  UNL     1      10.664   4.175  -2.979  1.00  0.00     0.147 C 
HETATM    2  C4  UNL     1      11.863   3.628  -2.216  1.00  0.00     0.183 C 
HETATM    3  C5  UNL     1      11.911   2.139  -2.415  1.00  0.00     0.275 C 
HETATM    4  F1  UNL     1      12.749   1.608  -1.431  1.00  0.00    -0.240 F 
HETATM    5  C6  UNL     1      10.509   1.599  -2.069  1.00  0.00     0.299 C 
HETATM    6  O13 UNL     1       9.592   2.026  -2.988  1.00  0.00    -0.334 OA
HETATM    7  C17 UNL     1       9.993   3.079  -3.753  1.00  0.00     0.182 C 
ENDROOT
BRANCH   5   8
HETATM    8  O3  UNL     1      10.260   2.210  -0.832  1.00  0.00    -0.238 OA
BRANCH   8   9
HETATM    9  P1  UNL     1       8.727   2.089  -0.341  1.00  0.00     0.411 P 
HETATM   10  O4  UNL     1       7.740   1.803  -1.497  1.00  0.00    -0.624 OA
HETATM   11  O5  UNL     1       8.200   3.590   0.294  1.00  0.00    -0.624 OA
BRANCH   9  12
HETATM   12  O6  UNL     1       8.443   0.867   0.799  1.00  0.00    -0.287 OA
BRANCH  12  13
HETATM   13  C7  UNL     1       8.851   1.484   2.085  1.00  0.00     0.216 C 
BRANCH  13  14
HETATM   14  C8  UNL     1       9.909   0.578   2.477  1.00  0.00     0.180 C 
HETATM   15  O7  UNL     1       9.727  -0.800   2.492  1.00  0.00    -0.353 OA
HETATM   16  C9  UNL     1      10.795  -1.072   3.398  1.00  0.00     0.263 C 
HETATM   17  C14 UNL     1      11.985  -0.242   2.858  1.00  0.00     0.198 C 
HETATM   18  C15 UNL     1      11.244   0.617   1.799  1.00  0.00     0.182 C 
BRANCH  16  19
HETATM   19  N2  UNL     1      11.258  -2.427   3.316  1.00  0.00    -0.280 N 
HETATM   20  C10 UNL     1      10.757  -3.199   2.312  1.00  0.00     0.102 A 
HETATM   21  C11 UNL     1      11.273  -4.450   2.111  1.00  0.00     0.062 A 
HETATM   22  C12 UNL     1      12.291  -4.868   2.955  1.00  0.00     0.121 A 
HETATM   23  N3  UNL     1      12.896  -6.135   2.738  1.00  0.00    -0.083 NA
HETATM   24  N4  UNL     1      12.785  -4.094   3.965  1.00  0.00    -0.297 N 
HETATM   25  C13 UNL     1      12.233  -2.874   4.104  1.00  0.00     0.329 A 
ATOM     26  H4  UNL     1      13.532  -4.421   4.579  1.00  0.00     0.171 HD
HETATM   27  O8  UNL     1      12.666  -2.131   5.024  1.00  0.00    -0.246 OA
ENDBRANCH  16  19
BRANCH  17  28
HETATM   28  O9  UNL     1      12.402   0.600   3.847  1.00  0.00    -0.388 OA
ATOM     29  H9  UNL     1      13.335   0.742   3.744  1.00  0.00     0.210 HD
ENDBRANCH  17  28
BRANCH  18  30
HETATM   30  O10 UNL     1      11.810   1.843   1.638  1.00  0.00    -0.390 OA
ATOM     31  H10 UNL     1      12.728   1.858   1.395  1.00  0.00     0.210 HD
ENDBRANCH  18  30
ENDBRANCH  13  14
ENDBRANCH  12  13
ENDBRANCH   9  12
ENDBRANCH   8   9
ENDBRANCH   5   8
BRANCH   5  32
HETATM   32  C16 UNL     1      10.632   0.154  -2.036  1.00  0.00     0.242 C 
HETATM   33  O11 UNL     1      10.350  -0.518  -3.088  1.00  0.00    -0.644 OA
HETATM   34  O12 UNL     1      11.033  -0.620  -0.967  1.00  0.00    -0.644 OA
ENDBRANCH   5  32
BRANCH   2  35
HETATM   35  O2  UNL     1      11.589   3.875  -0.861  1.00  0.00    -0.390 OA
ATOM     36  H2  UNL     1      12.376   3.622  -0.393  1.00  0.00     0.210 HD
ENDBRANCH   2  35
BRANCH   7  37
HETATM   37  C18 UNL     1       8.907   3.653  -4.601  1.00  0.00     0.180 C 
BRANCH  37  38
HETATM   38  O14 UNL     1       7.646   3.563  -4.035  1.00  0.00    -0.390 OA
ATOM     39  H14 UNL     1       7.652   3.323  -3.115  1.00  0.00     0.210 HD
ENDBRANCH  37  38
BRANCH  37  40
HETATM   40  C19 UNL     1       8.911   3.301  -6.048  1.00  0.00     0.173 C 
BRANCH  40  41
HETATM   41  O15 UNL     1       8.071   2.313  -6.463  1.00  0.00    -0.391 OA
ATOM     42  H15 UNL     1       8.417   1.662  -7.063  1.00  0.00     0.210 HD
ENDBRANCH  40  41
BRANCH  40  43
HETATM   43  C20 UNL     1      10.339   3.131  -6.561  1.00  0.00     0.198 C 
BRANCH  43  44
HETATM   44  O16 UNL     1      10.917   4.364  -6.886  1.00  0.00    -0.398 OA
ATOM     45  H16 UNL     1      11.863   4.336  -6.806  1.00  0.00     0.209 HD
ENDBRANCH  43  44
ENDBRANCH  40  43
ENDBRANCH  37  40
ENDBRANCH   7  37
BRANCH   1  46
HETATM   46  N1  UNL     1      11.084   5.164  -3.953  1.00  0.00    -0.352 N 
HETATM   47  C2  UNL     1      11.239   6.537  -3.637  1.00  0.00     0.214 C 
HETATM   48  C1  UNL     1      11.663   7.525  -4.689  1.00  0.00     0.117 C 
HETATM   49  O1  UNL     1      11.025   6.952  -2.468  1.00  0.00    -0.274 OA
ATOM     50  H1  UNL     1      11.277   4.859  -4.907  1.00  0.00     0.163 HD
ENDBRANCH   1  46
TORSDOF 17
ENDMDL
