MODEL 2
REMARK VINA RESULT: -9.403577741      2.359      8.477
REMARK  17 active torsions:
REMARK  status: ('A' for Active; 'I' for Inactive)
REMARK       I    between atoms: C2_2  and  N1_4 
REMARK    1  A    between atoms: N1_4  and  C3_6 
REMARK    2  A    between atoms: C4_7  and  O2_8 
REMARK    3  A    between atoms: C6_12  and  O3_13 
REMARK    4  A    between atoms: C6_12  and  C16_37 
REMARK    5  A    between atoms: O3_13  and  P1_14 
REMARK    6  A    between atoms: P1_14  and  O6_17 
REMARK    7  A    between atoms: O6_17  and  C7_18 
REMARK    8  A    between atoms: C7_18  and  C8_19 
REMARK    9  A    between atoms: C9_21  and  N2_22 
REMARK   10  A    between atoms: C14_31  and  O9_32 
REMARK   11  A    between atoms: C15_34  and  O10_35 
REMARK   12  A    between atoms: C17_41  and  C18_42 
REMARK   13  A    between atoms: C18_42  and  O14_43 
REMARK   14  A    between atoms: C18_42  and  C19_45 
REMARK   15  A    between atoms: C19_45  and  O15_46 
REMARK   16  A    between atoms: C19_45  and  C20_48 
REMARK   17  A    between atoms: C20_48  and  O16_49 
ROOT
HETATM    1  C3  UNL     1      11.713  -1.445   3.502  1.00  0.00     0.147 C 
HETATM    2  C4  UNL     1      11.635  -0.100   4.212  1.00  0.00     0.183 C 
HETATM    3  C5  UNL     1      10.274   0.487   3.963  1.00  0.00     0.275 C 
HETATM    4  F1  UNL     1      10.338   1.847   4.275  1.00  0.00    -0.240 F 
HETATM    5  C6  UNL     1      10.044   0.445   2.440  1.00  0.00     0.299 C 
HETATM    6  O13 UNL     1       9.930  -0.847   2.009  1.00  0.00    -0.334 OA
HETATM    7  C17 UNL     1      10.391  -1.786   2.881  1.00  0.00     0.182 C 
ENDROOT
BRANCH   5   8
HETATM    8  O3  UNL     1      11.233   1.005   1.951  1.00  0.00    -0.238 OA
BRANCH   8   9
HETATM    9  P1  UNL     1      11.507   0.695   0.391  1.00  0.00     0.411 P 
HETATM   10  O4  UNL     1      12.514  -0.459   0.167  1.00  0.00    -0.624 OA
HETATM   11  O5  UNL     1      12.255   2.047  -0.348  1.00  0.00    -0.624 OA
BRANCH   9  12
HETATM   12  O6  UNL     1      10.130   0.261  -0.497  1.00  0.00    -0.287 OA
BRANCH  12  13
HETATM   13  C7  UNL     1      10.584   0.332  -1.907  1.00  0.00     0.216 C 
BRANCH  13  14
HETATM   14  C8  UNL     1       9.836   1.485  -2.359  1.00  0.00     0.180 C 
HETATM   15  O7  UNL     1      10.016   2.027  -3.626  1.00  0.00    -0.353 OA
HETATM   16  C9  UNL     1       9.491   3.313  -3.305  1.00  0.00     0.263 C 
HETATM   17  C14 UNL     1       8.179   3.017  -2.538  1.00  0.00     0.198 C 
HETATM   18  C15 UNL     1       8.338   1.488  -2.329  1.00  0.00     0.182 C 
BRANCH  16  19
HETATM   19  N2  UNL     1       9.054   4.037  -4.463  1.00  0.00    -0.280 N 
HETATM   20  C10 UNL     1       7.712   4.131  -4.672  1.00  0.00     0.102 A 
HETATM   21  C11 UNL     1       7.248   4.928  -5.683  1.00  0.00     0.062 A 
HETATM   22  C12 UNL     1       8.185   5.603  -6.450  1.00  0.00     0.121 A 
HETATM   23  N3  UNL     1       7.741   6.489  -7.469  1.00  0.00    -0.083 NA
HETATM   24  N4  UNL     1       9.531   5.500  -6.242  1.00  0.00    -0.297 N 
HETATM   25  C13 UNL     1       9.916   4.701  -5.229  1.00  0.00     0.329 A 
ATOM     26  H4  UNL     1      10.206   6.001  -6.821  1.00  0.00     0.171 HD
HETATM   27  O8  UNL     1      11.150   4.584  -5.006  1.00  0.00    -0.246 OA
ENDBRANCH  16  19
BRANCH  17  28
HETATM   28  O9  UNL     1       8.259   3.607  -1.311  1.00  0.00    -0.388 OA
ATOM     29  H9  UNL     1       7.794   4.434  -1.347  1.00  0.00     0.210 HD
ENDBRANCH  17  28
BRANCH  18  30
HETATM   30  O10 UNL     1       7.751   1.058  -1.181  1.00  0.00    -0.390 OA
ATOM     31  H10 UNL     1       6.861   1.351  -1.023  1.00  0.00     0.210 HD
ENDBRANCH  18  30
ENDBRANCH  13  14
ENDBRANCH  12  13
ENDBRANCH   9  12
ENDBRANCH   8   9
ENDBRANCH   5   8
BRANCH   5  32
HETATM   32  C16 UNL     1       8.844   1.222   2.192  1.00  0.00     0.242 C 
HETATM   33  O11 UNL     1       7.746   0.862   2.743  1.00  0.00    -0.644 OA
HETATM   34  O12 UNL     1       8.733   2.349   1.405  1.00  0.00    -0.644 OA
ENDBRANCH   5  32
BRANCH   2  35
HETATM   35  O2  UNL     1      12.583   0.716   3.575  1.00  0.00    -0.390 OA
ATOM     36  H2  UNL     1      12.841   1.360   4.224  1.00  0.00     0.210 HD
ENDBRANCH   2  35
BRANCH   7  37
HETATM   37  C18 UNL     1      10.444  -3.162   2.308  1.00  0.00     0.180 C 
BRANCH  37  38
HETATM   38  O14 UNL     1      10.482  -4.167   3.262  1.00  0.00    -0.390 OA
ATOM     39  H14 UNL     1      10.425  -5.044   2.900  1.00  0.00     0.210 HD
ENDBRANCH  37  38
BRANCH  37  40
HETATM   40  C19 UNL     1      11.395  -3.401   1.187  1.00  0.00     0.173 C 
BRANCH  40  41
HETATM   41  O15 UNL     1      11.123  -2.816  -0.011  1.00  0.00    -0.391 OA
ATOM     42  H15 UNL     1      11.820  -2.782  -0.656  1.00  0.00     0.210 HD
ENDBRANCH  40  41
BRANCH  40  43
HETATM   43  C20 UNL     1      11.731  -4.886   1.067  1.00  0.00     0.198 C 
BRANCH  43  44
HETATM   44  O16 UNL     1      12.951  -5.187   1.684  1.00  0.00    -0.398 OA
ATOM     45  H16 UNL     1      12.923  -6.031   2.118  1.00  0.00     0.209 HD
ENDBRANCH  43  44
ENDBRANCH  40  43
ENDBRANCH  37  40
ENDBRANCH   7  37
BRANCH   1  46
HETATM   46  N1  UNL     1      12.007  -2.507   4.445  1.00  0.00    -0.352 N 
HETATM   47  C2  UNL     1      13.218  -3.244   4.420  1.00  0.00     0.214 C 
HETATM   48  C1  UNL     1      13.467  -4.346   5.413  1.00  0.00     0.117 C 
HETATM   49  O1  UNL     1      14.107  -2.986   3.567  1.00  0.00    -0.274 OA
ATOM     50  H1  UNL     1      11.314  -2.732   5.157  1.00  0.00     0.163 HD
ENDBRANCH   1  46
TORSDOF 17
ENDMDL
