MODEL 1
REMARK VINA RESULT: -8.624611559      0.000      0.000
REMARK  2 active torsions:
REMARK  status: ('A' for Active; 'I' for Inactive)
REMARK    1  A    between atoms: C5_6  and  N2_7 
REMARK    2  A    between atoms: C8_11  and  O2_12 
ROOT
HETATM    1  N1  UNL     1      24.857   8.568   4.127  1.00  0.00    -0.191 NA
HETATM    2  C1  UNL     1      25.310   7.491   4.035  1.00  0.00     0.100 C 
HETATM    3  C2  UNL     1      25.850   6.166   3.900  1.00  0.00     0.055 A 
HETATM    4  C3  UNL     1      27.158   5.933   3.526  1.00  0.00     0.026 A 
HETATM    5  C4  UNL     1      27.667   4.660   3.402  1.00  0.00     0.032 A 
HETATM    6  C5  UNL     1      26.881   3.560   3.649  1.00  0.00     0.058 A 
HETATM    7  C12 UNL     1      25.572   3.757   4.025  1.00  0.00     0.003 A 
HETATM    8  C13 UNL     1      24.739   2.676   4.286  1.00  0.00     0.014 A 
HETATM    9  C14 UNL     1      23.434   2.902   4.659  1.00  0.00     0.001 A 
HETATM   10  C15 UNL     1      22.933   4.190   4.780  1.00  0.00     0.001 A 
HETATM   11  C16 UNL     1      23.755   5.257   4.523  1.00  0.00     0.014 A 
HETATM   12  C17 UNL     1      25.078   5.035   4.145  1.00  0.00    -0.003 A 
ENDROOT
BRANCH   6  13
HETATM   13  N2  UNL     1      27.355   2.238   3.532  1.00  0.00    -0.231 N 
HETATM   14  C6  UNL     1      28.380   1.642   4.346  1.00  0.00     0.258 C 
HETATM   15  O1  UNL     1      29.315   2.219   4.946  1.00  0.00    -0.270 OA
HETATM   16  C7  UNL     1      28.071   0.189   4.306  1.00  0.00     0.210 C 
HETATM   17  C8  UNL     1      29.255  -0.685   4.502  1.00  0.00     0.152 C 
HETATM   18  N3  UNL     1      27.726   0.052   2.890  1.00  0.00    -0.317 N 
HETATM   19  C9  UNL     1      29.048  -1.777   3.478  1.00  0.00     0.054 C 
HETATM   20  C10 UNL     1      28.281  -1.150   2.342  1.00  0.00     0.131 C 
HETATM   21  C11 UNL     1      26.939   1.224   2.607  1.00  0.00     0.333 C 
HETATM   22  O3  UNL     1      26.048   1.340   1.710  1.00  0.00    -0.246 OA
BRANCH  17  23
HETATM   23  O2  UNL     1      30.462  -0.011   4.344  1.00  0.00    -0.393 OA
ATOM     24  H2  UNL     1      31.019  -0.058   5.112  1.00  0.00     0.210 HD
ENDBRANCH  17  23
ENDBRANCH   6  13
TORSDOF 2
ENDMDL
