MODEL 7
REMARK VINA RESULT: -3.702396634      2.226      6.750
REMARK  2 active torsions:
REMARK  status: ('A' for Active; 'I' for Inactive)
REMARK    1  A    between atoms: C5_6  and  N2_7 
REMARK    2  A    between atoms: C8_11  and  O2_12 
ROOT
HETATM    1  N1  UNL     1      28.599  -2.228   2.734  1.00  0.00    -0.191 NA
HETATM    2  C1  UNL     1      28.169  -1.149   2.892  1.00  0.00     0.100 C 
HETATM    3  C2  UNL     1      27.666   0.185   3.077  1.00  0.00     0.055 A 
HETATM    4  C3  UNL     1      26.685   0.726   2.271  1.00  0.00     0.026 A 
HETATM    5  C4  UNL     1      26.208   2.003   2.458  1.00  0.00     0.032 A 
HETATM    6  C5  UNL     1      26.699   2.798   3.467  1.00  0.00     0.058 A 
HETATM    7  C12 UNL     1      27.678   2.288   4.289  1.00  0.00     0.003 A 
HETATM    8  C13 UNL     1      28.203   3.054   5.323  1.00  0.00     0.014 A 
HETATM    9  C14 UNL     1      29.183   2.521   6.129  1.00  0.00     0.001 A 
HETATM   10  C15 UNL     1      29.655   1.231   5.930  1.00  0.00     0.001 A 
HETATM   11  C16 UNL     1      29.135   0.475   4.911  1.00  0.00     0.014 A 
HETATM   12  C17 UNL     1      28.143   1.010   4.090  1.00  0.00    -0.003 A 
ENDROOT
BRANCH   6  13
HETATM   13  N2  UNL     1      26.246   4.113   3.695  1.00  0.00    -0.231 N 
HETATM   14  C6  UNL     1      24.970   4.472   4.253  1.00  0.00     0.258 C 
HETATM   15  O1  UNL     1      23.905   3.815   4.219  1.00  0.00    -0.270 OA
HETATM   16  C7  UNL     1      25.211   5.801   4.874  1.00  0.00     0.210 C 
HETATM   17  C8  UNL     1      24.002   6.659   4.951  1.00  0.00     0.152 C 
HETATM   18  N3  UNL     1      26.044   6.408   3.834  1.00  0.00    -0.317 N 
HETATM   19  C9  UNL     1      24.523   8.022   4.558  1.00  0.00     0.054 C 
HETATM   20  C10 UNL     1      25.679   7.776   3.621  1.00  0.00     0.131 C 
HETATM   21  C11 UNL     1      26.929   5.345   3.431  1.00  0.00     0.333 C 
HETATM   22  O3  UNL     1      28.090   5.475   2.934  1.00  0.00    -0.246 OA
BRANCH  17  23
HETATM   23  O2  UNL     1      22.966   6.216   4.135  1.00  0.00    -0.393 OA
ATOM     24  H2  UNL     1      22.390   6.916   3.850  1.00  0.00     0.210 HD
ENDBRANCH  17  23
ENDBRANCH   6  13
TORSDOF 2
ENDMDL
