MODEL 4
REMARK VINA RESULT: -6.593185049      2.142      6.541
REMARK  2 active torsions:
REMARK  status: ('A' for Active; 'I' for Inactive)
REMARK    1  A    between atoms: C5_6  and  N2_7 
REMARK    2  A    between atoms: C8_11  and  O2_12 
ROOT
HETATM    1  N1  UNL     1      30.110  -2.661   3.360  1.00  0.00    -0.191 NA
HETATM    2  C1  UNL     1      29.461  -1.686   3.412  1.00  0.00     0.100 C 
HETATM    3  C2  UNL     1      28.689  -0.476   3.477  1.00  0.00     0.055 A 
HETATM    4  C3  UNL     1      27.885  -0.053   2.438  1.00  0.00     0.026 A 
HETATM    5  C4  UNL     1      27.146   1.106   2.509  1.00  0.00     0.032 A 
HETATM    6  C5  UNL     1      27.185   1.897   3.633  1.00  0.00     0.058 A 
HETATM    7  C12 UNL     1      27.977   1.504   4.688  1.00  0.00     0.003 A 
HETATM    8  C13 UNL     1      28.048   2.271   5.844  1.00  0.00     0.014 A 
HETATM    9  C14 UNL     1      28.849   1.856   6.884  1.00  0.00     0.001 A 
HETATM   10  C15 UNL     1      29.588   0.685   6.798  1.00  0.00     0.001 A 
HETATM   11  C16 UNL     1      29.518  -0.072   5.657  1.00  0.00     0.014 A 
HETATM   12  C17 UNL     1      28.708   0.343   4.601  1.00  0.00    -0.003 A 
ENDROOT
BRANCH   6  13
HETATM   13  N2  UNL     1      26.451   3.094   3.752  1.00  0.00    -0.231 N 
HETATM   14  C6  UNL     1      26.968   4.417   3.522  1.00  0.00     0.258 C 
HETATM   15  O1  UNL     1      28.152   4.807   3.625  1.00  0.00    -0.270 OA
HETATM   16  C7  UNL     1      25.770   5.208   3.137  1.00  0.00     0.210 C 
HETATM   17  C8  UNL     1      25.875   6.654   3.454  1.00  0.00     0.152 C 
HETATM   18  N3  UNL     1      24.805   4.675   4.101  1.00  0.00    -0.317 N 
HETATM   19  C9  UNL     1      24.505   6.986   4.000  1.00  0.00     0.054 C 
HETATM   20  C10 UNL     1      23.990   5.721   4.640  1.00  0.00     0.131 C 
HETATM   21  C11 UNL     1      25.075   3.260   4.119  1.00  0.00     0.333 C 
HETATM   22  O3  UNL     1      24.253   2.336   4.406  1.00  0.00    -0.246 OA
BRANCH  17  23
HETATM   23  O2  UNL     1      26.902   6.943   4.347  1.00  0.00    -0.393 OA
ATOM     24  H2  UNL     1      26.736   7.722   4.865  1.00  0.00     0.210 HD
ENDBRANCH  17  23
ENDBRANCH   6  13
TORSDOF 2
ENDMDL
