MODEL 3
REMARK VINA RESULT: -6.816738796      2.107      6.667
REMARK  2 active torsions:
REMARK  status: ('A' for Active; 'I' for Inactive)
REMARK    1  A    between atoms: C5_6  and  N2_7 
REMARK    2  A    between atoms: C8_11  and  O2_12 
ROOT
HETATM    1  N1  UNL     1      30.031  -2.630   3.346  1.00  0.00    -0.191 NA
HETATM    2  C1  UNL     1      29.399  -1.644   3.383  1.00  0.00     0.100 C 
HETATM    3  C2  UNL     1      28.646  -0.421   3.428  1.00  0.00     0.055 A 
HETATM    4  C3  UNL     1      27.853   0.000   2.380  1.00  0.00     0.026 A 
HETATM    5  C4  UNL     1      27.133   1.172   2.433  1.00  0.00     0.032 A 
HETATM    6  C5  UNL     1      27.181   1.978   3.546  1.00  0.00     0.058 A 
HETATM    7  C12 UNL     1      27.963   1.587   4.609  1.00  0.00     0.003 A 
HETATM    8  C13 UNL     1      28.041   2.369   5.755  1.00  0.00     0.014 A 
HETATM    9  C14 UNL     1      28.832   1.955   6.803  1.00  0.00     0.001 A 
HETATM   10  C15 UNL     1      29.552   0.771   6.736  1.00  0.00     0.001 A 
HETATM   11  C16 UNL     1      29.473  -0.001   5.606  1.00  0.00     0.014 A 
HETATM   12  C17 UNL     1      28.674   0.413   4.541  1.00  0.00    -0.003 A 
ENDROOT
BRANCH   6  13
HETATM   13  N2  UNL     1      26.467   3.189   3.646  1.00  0.00    -0.231 N 
HETATM   14  C6  UNL     1      25.111   3.324   4.106  1.00  0.00     0.258 C 
HETATM   15  O1  UNL     1      24.199   2.468   4.070  1.00  0.00    -0.270 OA
HETATM   16  C7  UNL     1      25.047   4.713   4.632  1.00  0.00     0.210 C 
HETATM   17  C8  UNL     1      23.692   5.316   4.579  1.00  0.00     0.152 C 
HETATM   18  N3  UNL     1      25.813   5.403   3.593  1.00  0.00    -0.317 N 
HETATM   19  C9  UNL     1      23.963   6.726   4.107  1.00  0.00     0.054 C 
HETATM   20  C10 UNL     1      25.204   6.653   3.253  1.00  0.00     0.131 C 
HETATM   21  C11 UNL     1      26.912   4.512   3.320  1.00  0.00     0.333 C 
HETATM   22  O3  UNL     1      28.057   4.837   2.876  1.00  0.00    -0.246 OA
BRANCH  17  23
HETATM   23  O2  UNL     1      22.819   4.622   3.747  1.00  0.00    -0.393 OA
ATOM     24  H2  UNL     1      22.998   4.756   2.824  1.00  0.00     0.210 HD
ENDBRANCH  17  23
ENDBRANCH   6  13
TORSDOF 2
ENDMDL
