MODEL 6
REMARK VINA RESULT: -9.320143471      4.382      8.796
REMARK  5 active torsions:
REMARK  status: ('A' for Active; 'I' for Inactive)
REMARK    1  A    between atoms: C2_2  and  C3_3 
REMARK    2  A    between atoms: C6_12  and  C7_13 
REMARK    3  A    between atoms: C10_16  and  N5_17 
REMARK    4  A    between atoms: N5_17  and  C11_19 
REMARK    5  A    between atoms: C11_19  and  C12_20 
ROOT
HETATM    1  C7  UNL     1     -11.986  25.996 -34.641  1.00  0.00    -0.021 A 
HETATM    2  C8  UNL     1     -11.619  25.621 -33.355  1.00  0.00     0.014 A 
HETATM    3  C9  UNL     1     -10.707  26.364 -32.655  1.00  0.00     0.030 A 
HETATM    4  C10 UNL     1     -10.103  27.499 -33.155  1.00  0.00     0.028 A 
HETATM    5  C18 UNL     1     -10.461  27.882 -34.437  1.00  0.00     0.030 A 
HETATM    6  C19 UNL     1     -11.378  27.138 -35.146  1.00  0.00     0.014 A 
ENDROOT
BRANCH   1   7
HETATM    7  C6  UNL     1     -12.947  25.238 -35.416  1.00  0.00     0.038 A 
HETATM    8  C3  UNL     1     -14.284  25.436 -35.181  1.00  0.00     0.025 A 
HETATM    9  N1  UNL     1     -15.190  24.727 -35.906  1.00  0.00    -0.333 N 
HETATM   10  C4  UNL     1     -14.745  23.845 -36.837  1.00  0.00     0.194 A 
ATOM     11  H1  UNL     1     -16.190  24.855 -35.752  1.00  0.00     0.168 HD
HETATM   12  N2  UNL     1     -15.696  23.101 -37.597  1.00  0.00    -0.063 NA
HETATM   13  N3  UNL     1     -13.435  23.664 -37.053  1.00  0.00    -0.318 N 
HETATM   14  C5  UNL     1     -12.492  24.348 -36.356  1.00  0.00     0.131 A 
ATOM     15  H3  UNL     1     -13.137  22.994 -37.762  1.00  0.00     0.169 HD
HETATM   16  N4  UNL     1     -11.109  24.150 -36.591  1.00  0.00    -0.082 NA
BRANCH   8  17
HETATM   17  C2  UNL     1     -14.714  26.415 -34.148  1.00  0.00     0.054 C 
HETATM   18  C1  UNL     1     -15.167  25.719 -32.881  1.00  0.00     0.011 C 
ENDBRANCH   8  17
ENDBRANCH   1   7
BRANCH   4  19
HETATM   19  N5  UNL     1      -9.159  28.236 -32.386  1.00  0.00    -0.386 N 
ATOM     20  H5  UNL     1      -8.186  27.933 -32.323  1.00  0.00     0.160 HD
BRANCH  19  21
HETATM   21  C11 UNL     1      -9.608  29.414 -31.704  1.00  0.00     0.158 C 
BRANCH  21  22
HETATM   22  C12 UNL     1      -9.430  30.650 -32.477  1.00  0.00    -0.035 A 
HETATM   23  C13 UNL     1      -8.354  30.790 -33.345  1.00  0.00     0.051 A 
HETATM   24  C14 UNL     1      -8.167  31.933 -34.076  1.00  0.00     0.119 A 
HETATM   25  F1  UNL     1      -7.105  32.030 -34.910  1.00  0.00    -0.206 F 
HETATM   26  C15 UNL     1      -9.045  32.986 -33.975  1.00  0.00     0.084 A 
HETATM   27  C16 UNL     1     -10.124  32.886 -33.126  1.00  0.00     0.119 A 
HETATM   28  F2  UNL     1     -10.969  33.942 -33.049  1.00  0.00    -0.206 F 
HETATM   29  C17 UNL     1     -10.302  31.726 -32.392  1.00  0.00     0.051 A 
ENDBRANCH  21  22
ENDBRANCH  19  21
ENDBRANCH   4  19
TORSDOF 5
ENDMDL
