MODEL 5
REMARK VINA RESULT: -9.340201569      1.050      1.671
REMARK  5 active torsions:
REMARK  status: ('A' for Active; 'I' for Inactive)
REMARK    1  A    between atoms: C2_2  and  C3_3 
REMARK    2  A    between atoms: C6_12  and  C7_13 
REMARK    3  A    between atoms: C10_16  and  N5_17 
REMARK    4  A    between atoms: N5_17  and  C11_19 
REMARK    5  A    between atoms: C11_19  and  C12_20 
ROOT
HETATM    1  C7  UNL     1     -12.602  26.176 -34.870  1.00  0.00    -0.021 A 
HETATM    2  C8  UNL     1     -12.280  25.035 -35.595  1.00  0.00     0.014 A 
HETATM    3  C9  UNL     1     -13.257  24.340 -36.252  1.00  0.00     0.030 A 
HETATM    4  C10 UNL     1     -14.589  24.702 -36.246  1.00  0.00     0.028 A 
HETATM    5  C18 UNL     1     -14.921  25.838 -35.525  1.00  0.00     0.030 A 
HETATM    6  C19 UNL     1     -13.942  26.543 -34.862  1.00  0.00     0.014 A 
ENDROOT
BRANCH   1   7
HETATM    7  C6  UNL     1     -11.598  26.942 -34.159  1.00  0.00     0.038 A 
HETATM    8  C3  UNL     1     -11.319  26.612 -32.857  1.00  0.00     0.025 A 
HETATM    9  N1  UNL     1     -10.377  27.327 -32.187  1.00  0.00    -0.333 N 
HETATM   10  C4  UNL     1      -9.744  28.345 -32.824  1.00  0.00     0.194 A 
ATOM     11  H1  UNL     1     -10.150  27.103 -31.218  1.00  0.00     0.168 HD
HETATM   12  N2  UNL     1      -8.756  29.095 -32.119  1.00  0.00    -0.063 NA
HETATM   13  N3  UNL     1     -10.029  28.653 -34.096  1.00  0.00    -0.318 N 
HETATM   14  C5  UNL     1     -10.960  27.969 -34.808  1.00  0.00     0.131 A 
ATOM     15  H3  UNL     1      -9.532  29.424 -34.543  1.00  0.00     0.169 HD
HETATM   16  N4  UNL     1     -11.255  28.302 -36.153  1.00  0.00    -0.082 NA
BRANCH   8  17
HETATM   17  C2  UNL     1     -12.044  25.487 -32.210  1.00  0.00     0.054 C 
HETATM   18  C1  UNL     1     -11.110  24.339 -31.889  1.00  0.00     0.011 C 
ENDBRANCH   8  17
ENDBRANCH   1   7
BRANCH   4  19
HETATM   19  N5  UNL     1     -15.567  23.943 -36.946  1.00  0.00    -0.386 N 
ATOM     20  H5  UNL     1     -16.530  24.273 -37.021  1.00  0.00     0.160 HD
BRANCH  19  21
HETATM   21  C11 UNL     1     -15.168  22.702 -37.543  1.00  0.00     0.158 C 
BRANCH  21  22
HETATM   22  C12 UNL     1     -14.820  22.814 -38.966  1.00  0.00    -0.035 A 
HETATM   23  C13 UNL     1     -14.481  24.045 -39.514  1.00  0.00     0.051 A 
HETATM   24  C14 UNL     1     -14.154  24.175 -40.837  1.00  0.00     0.119 A 
HETATM   25  F1  UNL     1     -13.831  25.392 -41.333  1.00  0.00    -0.206 F 
HETATM   26  C15 UNL     1     -14.149  23.082 -41.672  1.00  0.00     0.084 A 
HETATM   27  C16 UNL     1     -14.478  21.845 -41.167  1.00  0.00     0.119 A 
HETATM   28  F2  UNL     1     -14.464  20.790 -42.016  1.00  0.00    -0.206 F 
HETATM   29  C17 UNL     1     -14.808  21.727 -39.828  1.00  0.00     0.051 A 
ENDBRANCH  21  22
ENDBRANCH  19  21
ENDBRANCH   4  19
TORSDOF 5
ENDMDL
