MODEL 3
REMARK VINA RESULT: -9.367327425      1.048      1.563
REMARK  5 active torsions:
REMARK  status: ('A' for Active; 'I' for Inactive)
REMARK    1  A    between atoms: C2_2  and  C3_3 
REMARK    2  A    between atoms: C6_12  and  C7_13 
REMARK    3  A    between atoms: C10_16  and  N5_17 
REMARK    4  A    between atoms: N5_17  and  C11_19 
REMARK    5  A    between atoms: C11_19  and  C12_20 
ROOT
HETATM    1  C7  UNL     1     -12.607  26.183 -34.865  1.00  0.00    -0.021 A 
HETATM    2  C8  UNL     1     -12.294  25.038 -35.587  1.00  0.00     0.014 A 
HETATM    3  C9  UNL     1     -13.277  24.347 -36.242  1.00  0.00     0.030 A 
HETATM    4  C10 UNL     1     -14.606  24.719 -36.235  1.00  0.00     0.028 A 
HETATM    5  C18 UNL     1     -14.930  25.859 -35.517  1.00  0.00     0.030 A 
HETATM    6  C19 UNL     1     -13.945  26.558 -34.856  1.00  0.00     0.014 A 
ENDROOT
BRANCH   1   7
HETATM    7  C6  UNL     1     -11.597  26.943 -34.158  1.00  0.00     0.038 A 
HETATM    8  C3  UNL     1     -11.314  26.611 -32.857  1.00  0.00     0.025 A 
HETATM    9  N1  UNL     1     -10.367  27.322 -32.190  1.00  0.00    -0.333 N 
HETATM   10  C4  UNL     1      -9.731  28.337 -32.828  1.00  0.00     0.194 A 
ATOM     11  H1  UNL     1     -10.136  27.095 -31.222  1.00  0.00     0.168 HD
HETATM   12  N2  UNL     1      -8.738  29.082 -32.127  1.00  0.00    -0.063 NA
HETATM   13  N3  UNL     1     -10.020  28.648 -34.099  1.00  0.00    -0.318 N 
HETATM   14  C5  UNL     1     -10.958  27.968 -34.808  1.00  0.00     0.131 A 
ATOM     15  H3  UNL     1      -9.522  29.417 -34.547  1.00  0.00     0.169 HD
HETATM   16  N4  UNL     1     -11.257  28.304 -36.151  1.00  0.00    -0.082 NA
BRANCH   8  17
HETATM   17  C2  UNL     1     -12.042  25.489 -32.208  1.00  0.00     0.054 C 
HETATM   18  C1  UNL     1     -11.109  24.340 -31.883  1.00  0.00     0.011 C 
ENDBRANCH   8  17
ENDBRANCH   1   7
BRANCH   4  19
HETATM   19  N5  UNL     1     -15.591  23.964 -36.931  1.00  0.00    -0.386 N 
ATOM     20  H5  UNL     1     -16.551  24.301 -37.007  1.00  0.00     0.160 HD
BRANCH  19  21
HETATM   21  C11 UNL     1     -15.201  22.719 -37.524  1.00  0.00     0.158 C 
BRANCH  21  22
HETATM   22  C12 UNL     1     -14.833  22.827 -38.943  1.00  0.00    -0.035 A 
HETATM   23  C13 UNL     1     -14.803  21.697 -39.751  1.00  0.00     0.051 A 
HETATM   24  C14 UNL     1     -14.463  21.772 -41.075  1.00  0.00     0.119 A 
HETATM   25  F1  UNL     1     -14.444  20.647 -41.828  1.00  0.00    -0.206 F 
HETATM   26  C15 UNL     1     -14.140  22.977 -41.653  1.00  0.00     0.084 A 
HETATM   27  C16 UNL     1     -14.160  24.119 -40.887  1.00  0.00     0.119 A 
HETATM   28  F2  UNL     1     -13.836  25.290 -41.486  1.00  0.00    -0.206 F 
HETATM   29  C17 UNL     1     -14.504  24.031 -39.549  1.00  0.00     0.051 A 
ENDBRANCH  21  22
ENDBRANCH  19  21
ENDBRANCH   4  19
TORSDOF 5
ENDMDL
