MODEL 4
REMARK VINA RESULT: -9.348074329      4.380      8.867
REMARK  5 active torsions:
REMARK  status: ('A' for Active; 'I' for Inactive)
REMARK    1  A    between atoms: C2_2  and  C3_3 
REMARK    2  A    between atoms: C6_12  and  C7_13 
REMARK    3  A    between atoms: C10_16  and  N5_17 
REMARK    4  A    between atoms: N5_17  and  C11_19 
REMARK    5  A    between atoms: C11_19  and  C12_20 
ROOT
HETATM    1  C7  UNL     1     -11.997  26.006 -34.639  1.00  0.00    -0.021 A 
HETATM    2  C8  UNL     1     -11.613  25.612 -33.363  1.00  0.00     0.014 A 
HETATM    3  C9  UNL     1     -10.700  26.349 -32.660  1.00  0.00     0.030 A 
HETATM    4  C10 UNL     1     -10.110  27.498 -33.145  1.00  0.00     0.028 A 
HETATM    5  C18 UNL     1     -10.484  27.900 -34.417  1.00  0.00     0.030 A 
HETATM    6  C19 UNL     1     -11.403  27.162 -35.130  1.00  0.00     0.014 A 
ENDROOT
BRANCH   1   7
HETATM    7  C6  UNL     1     -12.960  25.255 -35.417  1.00  0.00     0.038 A 
HETATM    8  C3  UNL     1     -14.296  25.448 -35.175  1.00  0.00     0.025 A 
HETATM    9  N1  UNL     1     -15.204  24.745 -35.903  1.00  0.00    -0.333 N 
HETATM   10  C4  UNL     1     -14.762  23.874 -36.845  1.00  0.00     0.194 A 
ATOM     11  H1  UNL     1     -16.204  24.871 -35.743  1.00  0.00     0.168 HD
HETATM   12  N2  UNL     1     -15.715  23.136 -37.608  1.00  0.00    -0.063 NA
HETATM   13  N3  UNL     1     -13.453  23.697 -37.068  1.00  0.00    -0.318 N 
HETATM   14  C5  UNL     1     -12.507  24.375 -36.368  1.00  0.00     0.131 A 
ATOM     15  H3  UNL     1     -13.157  23.034 -37.785  1.00  0.00     0.169 HD
HETATM   16  N4  UNL     1     -11.126  24.182 -36.611  1.00  0.00    -0.082 NA
BRANCH   8  17
HETATM   17  C2  UNL     1     -14.724  26.416 -34.130  1.00  0.00     0.054 C 
HETATM   18  C1  UNL     1     -15.174  25.707 -32.870  1.00  0.00     0.011 C 
ENDBRANCH   8  17
ENDBRANCH   1   7
BRANCH   4  19
HETATM   19  N5  UNL     1      -9.163  28.228 -32.374  1.00  0.00    -0.386 N 
ATOM     20  H5  UNL     1      -8.198  27.907 -32.290  1.00  0.00     0.160 HD
BRANCH  19  21
HETATM   21  C11 UNL     1      -9.599  29.425 -31.718  1.00  0.00     0.158 C 
BRANCH  21  22
HETATM   22  C12 UNL     1      -9.399  30.644 -32.513  1.00  0.00    -0.035 A 
HETATM   23  C13 UNL     1     -10.276  31.716 -32.393  1.00  0.00     0.051 A 
HETATM   24  C14 UNL     1     -10.110  32.862 -33.123  1.00  0.00     0.119 A 
HETATM   25  F1  UNL     1     -10.987  33.883 -32.978  1.00  0.00    -0.206 F 
HETATM   26  C15 UNL     1      -9.063  32.991 -34.005  1.00  0.00     0.084 A 
HETATM   27  C16 UNL     1      -8.172  31.952 -34.152  1.00  0.00     0.119 A 
HETATM   28  F2  UNL     1      -7.153  32.111 -35.029  1.00  0.00    -0.206 F 
HETATM   29  C17 UNL     1      -8.350  30.798 -33.409  1.00  0.00     0.051 A 
ENDBRANCH  21  22
ENDBRANCH  19  21
ENDBRANCH   4  19
TORSDOF 5
ENDMDL
