MODEL 2
REMARK VINA RESULT: -9.421090810      0.082      1.848
REMARK  5 active torsions:
REMARK  status: ('A' for Active; 'I' for Inactive)
REMARK    1  A    between atoms: C2_2  and  C3_3 
REMARK    2  A    between atoms: C6_12  and  C7_13 
REMARK    3  A    between atoms: C10_16  and  N5_17 
REMARK    4  A    between atoms: N5_17  and  C11_19 
REMARK    5  A    between atoms: C11_19  and  C12_20 
ROOT
HETATM    1  C7  UNL     1     -12.620  26.187 -34.933  1.00  0.00    -0.021 A 
HETATM    2  C8  UNL     1     -12.294  25.088 -35.718  1.00  0.00     0.014 A 
HETATM    3  C9  UNL     1     -13.273  24.412 -36.394  1.00  0.00     0.030 A 
HETATM    4  C10 UNL     1     -14.609  24.754 -36.350  1.00  0.00     0.028 A 
HETATM    5  C18 UNL     1     -14.945  25.848 -35.569  1.00  0.00     0.030 A 
HETATM    6  C19 UNL     1     -13.964  26.533 -34.887  1.00  0.00     0.014 A 
ENDROOT
BRANCH   1   7
HETATM    7  C6  UNL     1     -11.615  26.931 -34.202  1.00  0.00     0.038 A 
HETATM    8  C3  UNL     1     -11.336  26.565 -32.910  1.00  0.00     0.025 A 
HETATM    9  N1  UNL     1     -10.393  27.259 -32.219  1.00  0.00    -0.333 N 
HETATM   10  C4  UNL     1      -9.759  28.294 -32.827  1.00  0.00     0.194 A 
ATOM     11  H1  UNL     1     -10.166  27.007 -31.257  1.00  0.00     0.168 HD
HETATM   12  N2  UNL     1      -8.770  29.023 -32.101  1.00  0.00    -0.063 NA
HETATM   13  N3  UNL     1     -10.044  28.639 -34.090  1.00  0.00    -0.318 N 
HETATM   14  C5  UNL     1     -10.976  27.976 -34.821  1.00  0.00     0.131 A 
ATOM     15  H3  UNL     1      -9.546  29.421 -34.515  1.00  0.00     0.169 HD
HETATM   16  N4  UNL     1     -11.271  28.348 -36.156  1.00  0.00    -0.082 NA
BRANCH   8  17
HETATM   17  C2  UNL     1     -12.062  25.422 -32.294  1.00  0.00     0.054 C 
HETATM   18  C1  UNL     1     -11.121  24.283 -31.963  1.00  0.00     0.011 C 
ENDBRANCH   8  17
ENDBRANCH   1   7
BRANCH   4  19
HETATM   19  N5  UNL     1     -15.588  24.016 -37.071  1.00  0.00    -0.386 N 
ATOM     20  H5  UNL     1     -16.443  24.465 -37.401  1.00  0.00     0.160 HD
BRANCH  19  21
HETATM   21  C11 UNL     1     -15.345  22.626 -37.322  1.00  0.00     0.158 C 
BRANCH  21  22
HETATM   22  C12 UNL     1     -14.643  22.366 -38.586  1.00  0.00    -0.035 A 
HETATM   23  C13 UNL     1     -15.274  22.598 -39.802  1.00  0.00     0.051 A 
HETATM   24  C14 UNL     1     -14.642  22.363 -40.994  1.00  0.00     0.119 A 
HETATM   25  F1  UNL     1     -15.292  22.602 -42.157  1.00  0.00    -0.206 F 
HETATM   26  C15 UNL     1     -13.353  21.887 -41.026  1.00  0.00     0.084 A 
HETATM   27  C16 UNL     1     -12.693  21.645 -39.843  1.00  0.00     0.119 A 
HETATM   28  F2  UNL     1     -11.425  21.175 -39.909  1.00  0.00    -0.206 F 
HETATM   29  C17 UNL     1     -13.343  21.885 -38.644  1.00  0.00     0.051 A 
ENDBRANCH  21  22
ENDBRANCH  19  21
ENDBRANCH   4  19
TORSDOF 5
ENDMDL
