MODEL 7
REMARK VINA RESULT: -9.128045960      4.588      9.107
REMARK  5 active torsions:
REMARK  status: ('A' for Active; 'I' for Inactive)
REMARK    1  A    between atoms: C2_2  and  C3_3 
REMARK    2  A    between atoms: C6_12  and  C7_13 
REMARK    3  A    between atoms: C10_16  and  N5_17 
REMARK    4  A    between atoms: N5_17  and  C11_19 
REMARK    5  A    between atoms: C11_19  and  C12_20 
ROOT
HETATM    1  C7  UNL     1     -11.898  26.210 -34.708  1.00  0.00    -0.021 A 
HETATM    2  C8  UNL     1     -11.460  25.890 -33.429  1.00  0.00     0.014 A 
HETATM    3  C9  UNL     1     -10.591  26.717 -32.772  1.00  0.00     0.030 A 
HETATM    4  C10 UNL     1     -10.099  27.889 -33.309  1.00  0.00     0.028 A 
HETATM    5  C18 UNL     1     -10.528  28.218 -34.585  1.00  0.00     0.030 A 
HETATM    6  C19 UNL     1     -11.403  27.389 -35.251  1.00  0.00     0.014 A 
ENDROOT
BRANCH   1   7
HETATM    7  C6  UNL     1     -12.818  25.362 -35.438  1.00  0.00     0.038 A 
HETATM    8  C3  UNL     1     -14.160  25.466 -35.175  1.00  0.00     0.025 A 
HETATM    9  N1  UNL     1     -15.027  24.672 -35.858  1.00  0.00    -0.333 N 
HETATM   10  C4  UNL     1     -14.539  23.801 -36.777  1.00  0.00     0.194 A 
ATOM     11  H1  UNL     1     -16.030  24.731 -35.682  1.00  0.00     0.168 HD
HETATM   12  N2  UNL     1     -15.449  22.968 -37.493  1.00  0.00    -0.063 NA
HETATM   13  N3  UNL     1     -13.225  23.712 -37.022  1.00  0.00    -0.318 N 
HETATM   14  C5  UNL     1     -12.319  24.483 -36.367  1.00  0.00     0.131 A 
ATOM     15  H3  UNL     1     -12.895  23.046 -37.721  1.00  0.00     0.169 HD
HETATM   16  N4  UNL     1     -10.932  24.382 -36.632  1.00  0.00    -0.082 NA
BRANCH   8  17
HETATM   17  C2  UNL     1     -14.638  26.439 -34.157  1.00  0.00     0.054 C 
HETATM   18  C1  UNL     1     -15.068  25.740 -32.884  1.00  0.00     0.011 C 
ENDBRANCH   8  17
ENDBRANCH   1   7
BRANCH   4  19
HETATM   19  N5  UNL     1      -9.195  28.715 -32.584  1.00  0.00    -0.386 N 
ATOM     20  H5  UNL     1      -8.318  28.338 -32.222  1.00  0.00     0.160 HD
BRANCH  19  21
HETATM   21  C11 UNL     1      -9.545  30.089 -32.376  1.00  0.00     0.158 C 
BRANCH  21  22
HETATM   22  C12 UNL     1      -8.609  31.039 -32.990  1.00  0.00    -0.035 A 
HETATM   23  C13 UNL     1      -8.256  30.916 -34.328  1.00  0.00     0.051 A 
HETATM   24  C14 UNL     1      -7.385  31.789 -34.923  1.00  0.00     0.119 A 
HETATM   25  F1  UNL     1      -7.066  31.634 -36.230  1.00  0.00    -0.206 F 
HETATM   26  C15 UNL     1      -6.828  32.825 -34.210  1.00  0.00     0.084 A 
HETATM   27  C16 UNL     1      -7.153  32.981 -32.883  1.00  0.00     0.119 A 
HETATM   28  F2  UNL     1      -6.587  34.011 -32.209  1.00  0.00    -0.206 F 
HETATM   29  C17 UNL     1      -8.034  32.092 -32.292  1.00  0.00     0.051 A 
ENDBRANCH  21  22
ENDBRANCH  19  21
ENDBRANCH   4  19
TORSDOF 5
ENDMDL
