MODEL 13
REMARK VINA RESULT: -8.998020291      1.182      1.628
REMARK  5 active torsions:
REMARK  status: ('A' for Active; 'I' for Inactive)
REMARK    1  A    between atoms: C2_2  and  C3_3 
REMARK    2  A    between atoms: C6_12  and  C7_13 
REMARK    3  A    between atoms: C10_16  and  N5_17 
REMARK    4  A    between atoms: N5_17  and  C11_19 
REMARK    5  A    between atoms: C11_19  and  C12_20 
ROOT
HETATM    1  C7  UNL     1     -12.638  25.211 -35.432  1.00  0.00    -0.021 A 
HETATM    2  C8  UNL     1     -12.276  24.049 -36.102  1.00  0.00     0.014 A 
HETATM    3  C9  UNL     1     -13.210  23.342 -36.808  1.00  0.00     0.030 A 
HETATM    4  C10 UNL     1     -14.535  23.712 -36.905  1.00  0.00     0.028 A 
HETATM    5  C18 UNL     1     -14.908  24.869 -36.240  1.00  0.00     0.030 A 
HETATM    6  C19 UNL     1     -13.972  25.585 -35.528  1.00  0.00     0.014 A 
ENDROOT
BRANCH   1   7
HETATM    7  C6  UNL     1     -11.681  25.989 -34.673  1.00  0.00     0.038 A 
HETATM    8  C3  UNL     1     -11.705  25.909 -33.304  1.00  0.00     0.025 A 
HETATM    9  N1  UNL     1     -10.808  26.637 -32.587  1.00  0.00    -0.333 N 
HETATM   10  C4  UNL     1      -9.918  27.421 -33.246  1.00  0.00     0.194 A 
ATOM     11  H1  UNL     1     -10.804  26.594 -31.568  1.00  0.00     0.168 HD
HETATM   12  N2  UNL     1      -8.977  28.185 -32.494  1.00  0.00    -0.063 NA
HETATM   13  N3  UNL     1      -9.908  27.487 -34.585  1.00  0.00    -0.318 N 
HETATM   14  C5  UNL     1     -10.783  26.779 -35.345  1.00  0.00     0.131 A 
ATOM     15  H3  UNL     1      -9.223  28.087 -35.046  1.00  0.00     0.169 HD
HETATM   16  N4  UNL     1     -10.764  26.857 -36.759  1.00  0.00    -0.082 NA
BRANCH   8  17
HETATM   17  C2  UNL     1     -12.703  25.033 -32.635  1.00  0.00     0.054 C 
HETATM   18  C1  UNL     1     -12.103  23.691 -32.268  1.00  0.00     0.011 C 
ENDBRANCH   8  17
ENDBRANCH   1   7
BRANCH   4  19
HETATM   19  N5  UNL     1     -15.468  22.940 -37.652  1.00  0.00    -0.386 N 
ATOM     20  H5  UNL     1     -16.455  23.197 -37.680  1.00  0.00     0.160 HD
BRANCH  19  21
HETATM   21  C11 UNL     1     -14.987  21.794 -38.365  1.00  0.00     0.158 C 
BRANCH  21  22
HETATM   22  C12 UNL     1     -14.599  22.078 -39.753  1.00  0.00    -0.035 A 
HETATM   23  C13 UNL     1     -13.388  21.614 -40.255  1.00  0.00     0.051 A 
HETATM   24  C14 UNL     1     -13.004  21.866 -41.544  1.00  0.00     0.119 A 
HETATM   25  F1  UNL     1     -11.817  21.398 -41.995  1.00  0.00    -0.206 F 
HETATM   26  C15 UNL     1     -13.810  22.590 -42.392  1.00  0.00     0.084 A 
HETATM   27  C16 UNL     1     -15.016  23.066 -41.933  1.00  0.00     0.119 A 
HETATM   28  F2  UNL     1     -15.786  23.776 -42.791  1.00  0.00    -0.206 F 
HETATM   29  C17 UNL     1     -15.394  22.806 -40.626  1.00  0.00     0.051 A 
ENDBRANCH  21  22
ENDBRANCH  19  21
ENDBRANCH   4  19
TORSDOF 5
ENDMDL
