MODEL 1
REMARK VINA RESULT: -9.439936286      0.000      0.000
REMARK  5 active torsions:
REMARK  status: ('A' for Active; 'I' for Inactive)
REMARK    1  A    between atoms: C2_2  and  C3_3 
REMARK    2  A    between atoms: C6_12  and  C7_13 
REMARK    3  A    between atoms: C10_16  and  N5_17 
REMARK    4  A    between atoms: N5_17  and  C11_19 
REMARK    5  A    between atoms: C11_19  and  C12_20 
ROOT
HETATM    1  C7  UNL     1     -12.647  26.242 -34.906  1.00  0.00    -0.021 A 
HETATM    2  C8  UNL     1     -13.991  26.590 -34.854  1.00  0.00     0.014 A 
HETATM    3  C9  UNL     1     -14.917  25.866 -35.554  1.00  0.00     0.030 A 
HETATM    4  C10 UNL     1     -14.600  24.777 -36.340  1.00  0.00     0.028 A 
HETATM    5  C18 UNL     1     -13.262  24.422 -36.400  1.00  0.00     0.030 A 
HETATM    6  C19 UNL     1     -12.325  25.146 -35.697  1.00  0.00     0.014 A 
ENDROOT
BRANCH   1   7
HETATM    7  C6  UNL     1     -11.635  26.982 -34.180  1.00  0.00     0.038 A 
HETATM    8  C3  UNL     1     -11.321  26.588 -32.904  1.00  0.00     0.025 A 
HETATM    9  N1  UNL     1     -10.371  27.278 -32.219  1.00  0.00    -0.333 N 
HETATM   10  C4  UNL     1      -9.765  28.336 -32.816  1.00  0.00     0.194 A 
ATOM     11  H1  UNL     1     -10.118  27.006 -31.269  1.00  0.00     0.168 HD
HETATM   12  N2  UNL     1      -8.770  29.061 -32.096  1.00  0.00    -0.063 NA
HETATM   13  N3  UNL     1     -10.085  28.708 -34.063  1.00  0.00    -0.318 N 
HETATM   14  C5  UNL     1     -11.026  28.050 -34.788  1.00  0.00     0.131 A 
ATOM     15  H3  UNL     1      -9.608  29.507 -34.480  1.00  0.00     0.169 HD
HETATM   16  N4  UNL     1     -11.357  28.450 -36.106  1.00  0.00    -0.082 NA
BRANCH   8  17
HETATM   17  C2  UNL     1     -12.017  25.421 -32.301  1.00  0.00     0.054 C 
HETATM   18  C1  UNL     1     -11.050  24.292 -32.005  1.00  0.00     0.011 C 
ENDBRANCH   8  17
ENDBRANCH   1   7
BRANCH   4  19
HETATM   19  N5  UNL     1     -15.601  24.058 -37.050  1.00  0.00    -0.386 N 
ATOM     20  H5  UNL     1     -16.450  24.524 -37.373  1.00  0.00     0.160 HD
BRANCH  19  21
HETATM   21  C11 UNL     1     -15.388  22.663 -37.303  1.00  0.00     0.158 C 
BRANCH  21  22
HETATM   22  C12 UNL     1     -14.698  22.389 -38.570  1.00  0.00    -0.035 A 
HETATM   23  C13 UNL     1     -13.394  21.908 -38.573  1.00  0.00     0.051 A 
HETATM   24  C14 UNL     1     -12.730  21.645 -39.741  1.00  0.00     0.119 A 
HETATM   25  F1  UNL     1     -11.459  21.179 -39.701  1.00  0.00    -0.206 F 
HETATM   26  C15 UNL     1     -13.336  21.848 -40.958  1.00  0.00     0.084 A 
HETATM   27  C16 UNL     1     -14.627  22.322 -40.998  1.00  0.00     0.119 A 
HETATM   28  F2  UNL     1     -15.196  22.512 -42.212  1.00  0.00    -0.206 F 
HETATM   29  C17 UNL     1     -15.288  22.585 -39.811  1.00  0.00     0.051 A 
ENDBRANCH  21  22
ENDBRANCH  19  21
ENDBRANCH   4  19
TORSDOF 5
ENDMDL
