MODEL 5
REMARK VINA RESULT: -8.030446752      2.262      5.340
REMARK  10 active torsions:
REMARK  status: ('A' for Active; 'I' for Inactive)
REMARK    1  A    between atoms: N4_10  and  C5_11 
REMARK    2  A    between atoms: C6_13  and  C7_14 
REMARK    3  A    between atoms: C7_14  and  O2_15 
REMARK    4  A    between atoms: O2_15  and  P1_16 
REMARK    5  A    between atoms: P1_16  and  O5_19 
REMARK    6  A    between atoms: O5_19  and  P2_20 
REMARK    7  A    between atoms: P2_20  and  O8_23 
REMARK    8  A    between atoms: O8_23  and  P3_24 
REMARK    9  A    between atoms: C8_28  and  O12_29 
REMARK   10  A    between atoms: C9_31  and  O13_32 
ROOT
HETATM    1  C5  UNL     1     223.299 -67.628  -6.818  1.00  0.00     0.262 C 
HETATM    2  O1  UNL     1     222.149 -68.118  -6.202  1.00  0.00    -0.353 OA
HETATM    3  C6  UNL     1     222.046 -69.452  -6.565  1.00  0.00     0.180 C 
HETATM    4  C8  UNL     1     223.475 -69.920  -6.394  1.00  0.00     0.182 C 
HETATM    5  C9  UNL     1     224.201 -68.758  -7.083  1.00  0.00     0.198 C 
ENDROOT
BRANCH   1   6
HETATM    6  N4  UNL     1     223.816 -66.555  -6.048  1.00  0.00    -0.297 N 
HETATM    7  C2  UNL     1     223.191 -65.612  -5.323  1.00  0.00     0.146 A 
HETATM    8  N2  UNL     1     221.895 -65.416  -5.120  1.00  0.00    -0.314 N 
HETATM    9  C3  UNL     1     224.115 -64.793  -4.757  1.00  0.00     0.146 A 
HETATM   10  C1  UNL     1     221.449 -64.404  -4.352  1.00  0.00     0.196 A 
ATOM     11  H2  UNL     1     221.221 -66.045  -5.556  1.00  0.00     0.170 HD
HETATM   12  N1  UNL     1     220.067 -64.162  -4.113  1.00  0.00    -0.063 NA
HETATM   13  N5  UNL     1     222.338 -63.572  -3.775  1.00  0.00    -0.295 N 
HETATM   14  C10 UNL     1     223.660 -63.740  -3.958  1.00  0.00     0.278 A 
ATOM     15  H5  UNL     1     222.003 -62.804  -3.193  1.00  0.00     0.171 HD
HETATM   16  O14 UNL     1     224.518 -62.989  -3.439  1.00  0.00    -0.265 OA
HETATM   17  N3  UNL     1     225.316 -65.231  -5.133  1.00  0.00    -0.345 N 
HETATM   18  C4  UNL     1     225.129 -66.290  -5.908  1.00  0.00     0.188 A 
ATOM     19  H3  UNL     1     226.215 -64.826  -4.873  1.00  0.00     0.167 HD
ENDBRANCH   1   6
BRANCH   5  20
HETATM   20  O13 UNL     1     224.220 -69.111  -8.454  1.00  0.00    -0.388 OA
ATOM     21  H13 UNL     1     223.617 -69.818  -8.647  1.00  0.00     0.210 HD
ENDBRANCH   5  20
BRANCH   3  22
HETATM   22  C7  UNL     1     221.097 -70.162  -5.630  1.00  0.00     0.216 C 
BRANCH  22  23
HETATM   23  O2  UNL     1     221.854 -70.555  -4.517  1.00  0.00    -0.287 OA
BRANCH  23  24
HETATM   24  P1  UNL     1     221.059 -70.300  -3.073  1.00  0.00     0.417 P 
HETATM   25  O3  UNL     1     221.923 -70.810  -1.938  1.00  0.00    -0.624 OA
HETATM   26  O4  UNL     1     219.547 -71.047  -3.017  1.00  0.00    -0.624 OA
BRANCH  24  27
HETATM   27  O5  UNL     1     220.919 -68.618  -2.847  1.00  0.00    -0.180 OA
BRANCH  27  28
HETATM   28  P2  UNL     1     219.400 -68.253  -2.179  1.00  0.00     0.428 P 
HETATM   29  O6  UNL     1     219.155 -69.050  -0.930  1.00  0.00    -0.624 OA
HETATM   30  O7  UNL     1     218.191 -68.507  -3.344  1.00  0.00    -0.624 OA
BRANCH  28  31
HETATM   31  O8  UNL     1     219.399 -66.577  -1.850  1.00  0.00    -0.173 OA
BRANCH  31  32
HETATM   32  P3  UNL     1     220.343 -66.269  -0.464  1.00  0.00     0.431 P 
HETATM   33  O9  UNL     1     220.882 -64.857  -0.470  1.00  0.00    -0.616 OA
HETATM   34  O10 UNL     1     221.632 -67.344  -0.357  1.00  0.00    -0.616 OA
HETATM   35  O11 UNL     1     219.355 -66.433   0.906  1.00  0.00    -0.616 OA
ENDBRANCH  31  32
ENDBRANCH  28  31
ENDBRANCH  27  28
ENDBRANCH  24  27
ENDBRANCH  23  24
ENDBRANCH  22  23
ENDBRANCH   3  22
BRANCH   4  36
HETATM   36  O12 UNL     1     223.716 -71.118  -7.035  1.00  0.00    -0.390 OA
ATOM     37  H12 UNL     1     224.469 -71.075  -7.612  1.00  0.00     0.210 HD
ENDBRANCH   4  36
TORSDOF 10
ENDMDL
