MODEL 2
REMARK VINA RESULT: -8.266041935      2.926      5.366
REMARK  10 active torsions:
REMARK  status: ('A' for Active; 'I' for Inactive)
REMARK    1  A    between atoms: N4_10  and  C5_11 
REMARK    2  A    between atoms: C6_13  and  C7_14 
REMARK    3  A    between atoms: C7_14  and  O2_15 
REMARK    4  A    between atoms: O2_15  and  P1_16 
REMARK    5  A    between atoms: P1_16  and  O5_19 
REMARK    6  A    between atoms: O5_19  and  P2_20 
REMARK    7  A    between atoms: P2_20  and  O8_23 
REMARK    8  A    between atoms: O8_23  and  P3_24 
REMARK    9  A    between atoms: C8_28  and  O12_29 
REMARK   10  A    between atoms: C9_31  and  O13_32 
ROOT
HETATM    1  C5  UNL     1     224.023 -67.269  -6.059  1.00  0.00     0.262 C 
HETATM    2  O1  UNL     1     222.869 -66.777  -5.454  1.00  0.00    -0.353 OA
HETATM    3  C6  UNL     1     223.166 -65.493  -5.023  1.00  0.00     0.180 C 
HETATM    4  C8  UNL     1     223.909 -64.939  -6.220  1.00  0.00     0.182 C 
HETATM    5  C9  UNL     1     224.833 -66.127  -6.511  1.00  0.00     0.198 C 
ENDROOT
BRANCH   1   6
HETATM    6  N4  UNL     1     223.661 -68.231  -7.037  1.00  0.00    -0.297 N 
HETATM    7  C2  UNL     1     222.485 -68.833  -7.284  1.00  0.00     0.146 A 
HETATM    8  N2  UNL     1     221.315 -68.695  -6.674  1.00  0.00    -0.314 N 
HETATM    9  C3  UNL     1     222.628 -69.685  -8.331  1.00  0.00     0.146 A 
HETATM   10  C1  UNL     1     220.232 -69.391  -7.067  1.00  0.00     0.196 A 
ATOM     11  H2  UNL     1     221.234 -68.047  -5.891  1.00  0.00     0.170 HD
HETATM   12  N1  UNL     1     218.962 -69.271  -6.437  1.00  0.00    -0.063 NA
HETATM   13  N5  UNL     1     220.337 -70.247  -8.103  1.00  0.00    -0.295 N 
HETATM   14  C10 UNL     1     221.507 -70.413  -8.746  1.00  0.00     0.278 A 
ATOM     15  H5  UNL     1     219.518 -70.776  -8.403  1.00  0.00     0.171 HD
HETATM   16  O14 UNL     1     221.646 -71.197  -9.712  1.00  0.00    -0.265 OA
HETATM   17  N3  UNL     1     223.896 -69.611  -8.733  1.00  0.00    -0.345 N 
HETATM   18  C4  UNL     1     224.510 -68.735  -7.951  1.00  0.00     0.188 A 
ATOM     19  H3  UNL     1     224.317 -70.132  -9.502  1.00  0.00     0.167 HD
ENDBRANCH   1   6
BRANCH   5  20
HETATM   20  O13 UNL     1     225.959 -65.916  -5.680  1.00  0.00    -0.388 OA
ATOM     21  H13 UNL     1     226.745 -65.744  -6.185  1.00  0.00     0.210 HD
ENDBRANCH   5  20
BRANCH   3  22
HETATM   22  C7  UNL     1     221.888 -64.740  -4.745  1.00  0.00     0.216 C 
BRANCH  22  23
HETATM   23  O2  UNL     1     220.901 -65.707  -4.501  1.00  0.00    -0.287 OA
BRANCH  23  24
HETATM   24  P1  UNL     1     220.092 -65.454  -3.064  1.00  0.00     0.417 P 
HETATM   25  O3  UNL     1     219.618 -64.017  -3.012  1.00  0.00    -0.624 OA
HETATM   26  O4  UNL     1     221.041 -65.790  -1.710  1.00  0.00    -0.624 OA
BRANCH  24  27
HETATM   27  O5  UNL     1     218.690 -66.420  -3.082  1.00  0.00    -0.180 OA
BRANCH  27  28
HETATM   28  P2  UNL     1     219.099 -68.035  -2.750  1.00  0.00     0.428 P 
HETATM   29  O6  UNL     1     218.039 -68.973  -3.250  1.00  0.00    -0.624 OA
HETATM   30  O7  UNL     1     219.377 -68.220  -1.085  1.00  0.00    -0.624 OA
BRANCH  28  31
HETATM   31  O8  UNL     1     220.595 -68.330  -3.519  1.00  0.00    -0.173 OA
BRANCH  31  32
HETATM   32  P3  UNL     1     221.215 -69.831  -2.999  1.00  0.00     0.431 P 
HETATM   33  O9  UNL     1     220.104 -70.819  -2.725  1.00  0.00    -0.616 OA
HETATM   34  O10 UNL     1     222.144 -69.655  -1.609  1.00  0.00    -0.616 OA
HETATM   35  O11 UNL     1     222.175 -70.475  -4.243  1.00  0.00    -0.616 OA
ENDBRANCH  31  32
ENDBRANCH  28  31
ENDBRANCH  27  28
ENDBRANCH  24  27
ENDBRANCH  23  24
ENDBRANCH  22  23
ENDBRANCH   3  22
BRANCH   4  36
HETATM   36  O12 UNL     1     224.627 -63.802  -5.913  1.00  0.00    -0.390 OA
ATOM     37  H12 UNL     1     225.486 -63.796  -6.319  1.00  0.00     0.210 HD
ENDBRANCH   4  36
TORSDOF 10
ENDMDL
