MODEL 6
REMARK VINA RESULT: -7.958032070      2.967      5.760
REMARK  10 active torsions:
REMARK  status: ('A' for Active; 'I' for Inactive)
REMARK    1  A    between atoms: N4_10  and  C5_11 
REMARK    2  A    between atoms: C6_13  and  C7_14 
REMARK    3  A    between atoms: C7_14  and  O2_15 
REMARK    4  A    between atoms: O2_15  and  P1_16 
REMARK    5  A    between atoms: P1_16  and  O5_19 
REMARK    6  A    between atoms: O5_19  and  P2_20 
REMARK    7  A    between atoms: P2_20  and  O8_23 
REMARK    8  A    between atoms: O8_23  and  P3_24 
REMARK    9  A    between atoms: C8_28  and  O12_29 
REMARK   10  A    between atoms: C9_31  and  O13_32 
ROOT
HETATM    1  C5  UNL     1     224.007 -67.225  -6.047  1.00  0.00     0.262 C 
HETATM    2  O1  UNL     1     222.852 -66.672  -5.498  1.00  0.00    -0.353 OA
HETATM    3  C6  UNL     1     223.186 -65.391  -5.086  1.00  0.00     0.180 C 
HETATM    4  C8  UNL     1     223.994 -64.898  -6.268  1.00  0.00     0.182 C 
HETATM    5  C9  UNL     1     224.879 -66.129  -6.495  1.00  0.00     0.198 C 
ENDROOT
BRANCH   1   6
HETATM    6  N4  UNL     1     223.641 -68.196  -7.015  1.00  0.00    -0.297 N 
HETATM    7  C2  UNL     1     222.466 -68.803  -7.250  1.00  0.00     0.146 A 
HETATM    8  N2  UNL     1     221.299 -68.663  -6.635  1.00  0.00    -0.314 N 
HETATM    9  C3  UNL     1     222.604 -69.664  -8.290  1.00  0.00     0.146 A 
HETATM   10  C1  UNL     1     220.215 -69.365  -7.015  1.00  0.00     0.196 A 
ATOM     11  H2  UNL     1     221.220 -68.009  -5.856  1.00  0.00     0.170 HD
HETATM   12  N1  UNL     1     218.948 -69.242  -6.379  1.00  0.00    -0.063 NA
HETATM   13  N5  UNL     1     220.316 -70.229  -8.044  1.00  0.00    -0.295 N 
HETATM   14  C10 UNL     1     221.483 -70.398  -8.692  1.00  0.00     0.278 A 
ATOM     15  H5  UNL     1     219.497 -70.763  -8.334  1.00  0.00     0.171 HD
HETATM   16  O14 UNL     1     221.618 -71.190  -9.653  1.00  0.00    -0.265 OA
HETATM   17  N3  UNL     1     223.870 -69.590  -8.701  1.00  0.00    -0.345 N 
HETATM   18  C4  UNL     1     224.486 -68.706  -7.930  1.00  0.00     0.188 A 
ATOM     19  H3  UNL     1     224.287 -70.117  -9.468  1.00  0.00     0.167 HD
ENDBRANCH   1   6
BRANCH   5  20
HETATM   20  O13 UNL     1     225.982 -65.942  -5.629  1.00  0.00    -0.388 OA
ATOM     21  H13 UNL     1     226.810 -66.056  -6.079  1.00  0.00     0.210 HD
ENDBRANCH   5  20
BRANCH   3  22
HETATM   22  C7  UNL     1     221.931 -64.580  -4.875  1.00  0.00     0.216 C 
BRANCH  22  23
HETATM   23  O2  UNL     1     220.912 -65.495  -4.572  1.00  0.00    -0.287 OA
BRANCH  23  24
HETATM   24  P1  UNL     1     220.162 -65.169  -3.119  1.00  0.00     0.417 P 
HETATM   25  O3  UNL     1     219.715 -63.721  -3.110  1.00  0.00    -0.624 OA
HETATM   26  O4  UNL     1     221.154 -65.467  -1.787  1.00  0.00    -0.624 OA
BRANCH  24  27
HETATM   27  O5  UNL     1     218.742 -66.107  -3.046  1.00  0.00    -0.180 OA
BRANCH  27  28
HETATM   28  P2  UNL     1     219.133 -67.711  -2.644  1.00  0.00     0.428 P 
HETATM   29  O6  UNL     1     219.315 -67.866  -1.161  1.00  0.00    -0.624 OA
HETATM   30  O7  UNL     1     220.512 -68.193  -3.508  1.00  0.00    -0.624 OA
BRANCH  28  31
HETATM   31  O8  UNL     1     217.850 -68.685  -3.212  1.00  0.00    -0.173 OA
BRANCH  31  32
HETATM   32  P3  UNL     1     217.781 -70.123  -2.299  1.00  0.00     0.431 P 
HETATM   33  O9  UNL     1     217.204 -69.874  -0.924  1.00  0.00    -0.616 OA
HETATM   34  O10 UNL     1     219.307 -70.811  -2.134  1.00  0.00    -0.616 OA
HETATM   35  O11 UNL     1     216.752 -71.215  -3.094  1.00  0.00    -0.616 OA
ENDBRANCH  31  32
ENDBRANCH  28  31
ENDBRANCH  27  28
ENDBRANCH  24  27
ENDBRANCH  23  24
ENDBRANCH  22  23
ENDBRANCH   3  22
BRANCH   4  36
HETATM   36  O12 UNL     1     224.747 -63.783  -5.962  1.00  0.00    -0.390 OA
ATOM     37  H12 UNL     1     224.748 -63.591  -5.032  1.00  0.00     0.210 HD
ENDBRANCH   4  36
TORSDOF 10
ENDMDL
