MODEL 2
REMARK VINA RESULT: -13.454498140      0.792      1.146
REMARK  10 active torsions:
REMARK  status: ('A' for Active; 'I' for Inactive)
REMARK    1  A    between atoms: N4_17  and  C9_18 
REMARK    2  A    between atoms: C9_18  and  C10_19 
REMARK    3  A    between atoms: C10_19  and  O3_20 
REMARK    4  A    between atoms: C10_19  and  C11_22 
REMARK    5  A    between atoms: C11_22  and  O4_23 
REMARK    6  A    between atoms: C11_22  and  C12_25 
REMARK    7  A    between atoms: C12_25  and  O5_26 
REMARK    8  A    between atoms: C12_25  and  C13_28 
REMARK    9  A    between atoms: C13_28  and  O6_29 
REMARK   10  A    between atoms: O6_29  and  P1_30 
ROOT
HETATM    1  C1  UNL     1      31.395   2.611   6.562  1.00  0.00     0.049 C 
HETATM    2  C2  UNL     1      30.831   3.087   7.848  1.00  0.00    -0.054 A 
HETATM    3  C3  UNL     1      31.515   2.909   9.031  1.00  0.00     0.039 A 
HETATM    4  C4  UNL     1      31.009   3.345  10.247  1.00  0.00     0.060 A 
HETATM    5  N1  UNL     1      31.725   3.149  11.368  1.00  0.00    -0.347 N 
ATOM      6  H1  UNL     1      32.628   2.679  11.315  1.00  0.00     0.166 HD
HETATM    7  C5  UNL     1      31.264   3.565  12.555  1.00  0.00     0.146 A 
HETATM    8  C6  UNL     1      31.969   3.385  13.751  1.00  0.00     0.280 A 
HETATM    9  O1  UNL     1      33.072   2.812  13.693  1.00  0.00    -0.265 OA
HETATM   10  N2  UNL     1      31.440   3.832  14.917  1.00  0.00    -0.273 N 
ATOM     11  H2  UNL     1      31.951   3.703  15.791  1.00  0.00     0.173 HD
HETATM   12  C7  UNL     1      30.244   4.445  14.923  1.00  0.00     0.328 A 
HETATM   13  O2  UNL     1      29.811   4.836  16.038  1.00  0.00    -0.247 OA
HETATM   14  N3  UNL     1      29.522   4.641  13.779  1.00  0.00    -0.292 N 
ATOM     15  H3  UNL     1      28.619   5.112  13.833  1.00  0.00     0.172 HD
HETATM   16  C8  UNL     1      29.978   4.228  12.587  1.00  0.00     0.145 A 
HETATM   17  N4  UNL     1      29.285   4.405  11.420  1.00  0.00    -0.327 N 
HETATM   18  C14 UNL     1      29.763   3.983  10.238  1.00  0.00     0.063 A 
HETATM   19  C15 UNL     1      29.070   4.166   9.057  1.00  0.00     0.039 A 
HETATM   20  C16 UNL     1      29.602   3.720   7.862  1.00  0.00    -0.054 A 
HETATM   21  C17 UNL     1      28.872   3.907   6.583  1.00  0.00     0.049 C 
ENDROOT
BRANCH  17  22
HETATM   22  C9  UNL     1      28.006   5.075  11.508  1.00  0.00     0.165 C 
BRANCH  22  23
HETATM   23  C10 UNL     1      28.248   6.576  11.300  1.00  0.00     0.167 C 
BRANCH  23  24
HETATM   24  O3  UNL     1      28.998   7.160  12.283  1.00  0.00    -0.391 OA
ATOM     25  H3  UNL     1      28.602   7.935  12.663  1.00  0.00     0.210 HD
ENDBRANCH  23  24
BRANCH  23  26
HETATM   26  C11 UNL     1      27.043   7.335  10.975  1.00  0.00     0.179 C 
BRANCH  26  27
HETATM   27  O4  UNL     1      26.729   7.193   9.620  1.00  0.00    -0.390 OA
ATOM     28  H4  UNL     1      25.792   7.081   9.507  1.00  0.00     0.210 HD
ENDBRANCH  26  27
BRANCH  26  29
HETATM   29  C12 UNL     1      26.838   8.721  11.399  1.00  0.00     0.173 C 
BRANCH  29  30
HETATM   30  O5  UNL     1      26.573   8.626  12.817  1.00  0.00    -0.391 OA
ATOM     31  H5  UNL     1      25.847   9.222  12.960  1.00  0.00     0.210 HD
ENDBRANCH  29  30
BRANCH  29  32
HETATM   32  C13 UNL     1      25.568   9.398  10.894  1.00  0.00     0.217 C 
BRANCH  32  33
HETATM   33  O6  UNL     1      24.444   8.773  11.513  1.00  0.00    -0.280 OA
BRANCH  33  34
HETATM   34  P1  UNL     1      23.455   8.081  10.342  1.00  0.00     0.422 P 
HETATM   35  O7  UNL     1      22.043   8.124  10.823  1.00  0.00    -0.617 OA
HETATM   36  O8  UNL     1      23.876   6.478  10.025  1.00  0.00    -0.617 OA
HETATM   37  O9  UNL     1      23.535   8.937   8.876  1.00  0.00    -0.617 OA
ENDBRANCH  33  34
ENDBRANCH  32  33
ENDBRANCH  29  32
ENDBRANCH  26  29
ENDBRANCH  23  26
ENDBRANCH  22  23
ENDBRANCH  17  22
TORSDOF 10
ENDMDL
