MODEL 8
REMARK VINA RESULT: -9.391438413      1.025      1.413
REMARK  10 active torsions:
REMARK  status: ('A' for Active; 'I' for Inactive)
REMARK    1  A    between atoms: N4_17  and  C9_18 
REMARK    2  A    between atoms: C9_18  and  C10_19 
REMARK    3  A    between atoms: C10_19  and  O3_20 
REMARK    4  A    between atoms: C10_19  and  C11_22 
REMARK    5  A    between atoms: C11_22  and  O4_23 
REMARK    6  A    between atoms: C11_22  and  C12_25 
REMARK    7  A    between atoms: C12_25  and  O5_26 
REMARK    8  A    between atoms: C12_25  and  C13_28 
REMARK    9  A    between atoms: C13_28  and  O6_29 
REMARK   10  A    between atoms: O6_29  and  P1_30 
ROOT
HETATM    1  C1  UNL     1      31.626   2.107   6.797  1.00  0.00     0.049 C 
HETATM    2  C2  UNL     1      31.208   2.882   7.990  1.00  0.00    -0.054 A 
HETATM    3  C3  UNL     1      31.743   2.614   9.232  1.00  0.00     0.039 A 
HETATM    4  C4  UNL     1      31.369   3.323  10.364  1.00  0.00     0.060 A 
HETATM    5  N1  UNL     1      31.929   3.021  11.548  1.00  0.00    -0.347 N 
ATOM      6  H1  UNL     1      32.619   2.272  11.603  1.00  0.00     0.166 HD
HETATM    7  C5  UNL     1      31.592   3.693  12.656  1.00  0.00     0.146 A 
HETATM    8  C6  UNL     1      32.145   3.418  13.912  1.00  0.00     0.280 A 
HETATM    9  O1  UNL     1      32.988   2.505  13.987  1.00  0.00    -0.265 OA
HETATM   10  N2  UNL     1      31.755   4.140  14.992  1.00  0.00    -0.273 N 
ATOM     11  H2  UNL     1      32.155   3.943  15.909  1.00  0.00     0.173 HD
HETATM   12  C7  UNL     1      30.840   5.116  14.854  1.00  0.00     0.328 A 
HETATM   13  O2  UNL     1      30.523   5.748  15.896  1.00  0.00    -0.247 OA
HETATM   14  N3  UNL     1      30.275   5.418  13.648  1.00  0.00    -0.292 N 
ATOM     15  H3  UNL     1      29.585   6.167  13.593  1.00  0.00     0.172 HD
HETATM   16  C8  UNL     1      30.609   4.749  12.534  1.00  0.00     0.145 A 
HETATM   17  N4  UNL     1      30.065   5.021  11.308  1.00  0.00    -0.327 N 
HETATM   18  C14 UNL     1      30.416   4.337  10.207  1.00  0.00     0.063 A 
HETATM   19  C15 UNL     1      29.875   4.612   8.966  1.00  0.00     0.039 A 
HETATM   20  C16 UNL     1      30.269   3.887   7.858  1.00  0.00    -0.054 A 
HETATM   21  C17 UNL     1      29.699   4.169   6.517  1.00  0.00     0.049 C 
ENDROOT
BRANCH  17  22
HETATM   22  C9  UNL     1      29.089   6.086  11.242  1.00  0.00     0.165 C 
BRANCH  22  23
HETATM   23  C10 UNL     1      27.702   5.465  11.459  1.00  0.00     0.167 C 
BRANCH  23  24
HETATM   24  O3  UNL     1      27.598   4.172  11.028  1.00  0.00    -0.391 OA
ATOM     25  H3  UNL     1      26.888   3.686  11.431  1.00  0.00     0.210 HD
ENDBRANCH  23  24
BRANCH  23  26
HETATM   26  C11 UNL     1      26.595   6.307  11.013  1.00  0.00     0.179 C 
BRANCH  26  27
HETATM   27  O4  UNL     1      26.021   5.782   9.852  1.00  0.00    -0.390 OA
ATOM     28  H4  UNL     1      26.570   5.967   9.098  1.00  0.00     0.210 HD
ENDBRANCH  26  27
BRANCH  26  29
HETATM   29  C12 UNL     1      26.695   7.764  10.914  1.00  0.00     0.173 C 
BRANCH  29  30
HETATM   30  O5  UNL     1      26.430   8.232  12.255  1.00  0.00    -0.391 OA
ATOM     31  H5  UNL     1      27.291   8.382  12.627  1.00  0.00     0.210 HD
ENDBRANCH  29  30
BRANCH  29  32
HETATM   32  C13 UNL     1      25.593   8.461  10.122  1.00  0.00     0.217 C 
BRANCH  32  33
HETATM   33  O6  UNL     1      24.568   8.865  11.030  1.00  0.00    -0.280 OA
BRANCH  33  34
HETATM   34  P1  UNL     1      23.145   8.034  10.693  1.00  0.00     0.422 P 
HETATM   35  O7  UNL     1      22.250   8.116  11.885  1.00  0.00    -0.617 OA
HETATM   36  O8  UNL     1      23.431   6.409  10.334  1.00  0.00    -0.617 OA
HETATM   37  O9  UNL     1      22.323   8.720   9.373  1.00  0.00    -0.617 OA
ENDBRANCH  33  34
ENDBRANCH  32  33
ENDBRANCH  29  32
ENDBRANCH  26  29
ENDBRANCH  23  26
ENDBRANCH  22  23
ENDBRANCH  17  22
TORSDOF 10
ENDMDL
