MODEL 3
REMARK VINA RESULT: -12.717584255      1.025      1.316
REMARK  10 active torsions:
REMARK  status: ('A' for Active; 'I' for Inactive)
REMARK    1  A    between atoms: N4_17  and  C9_18 
REMARK    2  A    between atoms: C9_18  and  C10_19 
REMARK    3  A    between atoms: C10_19  and  O3_20 
REMARK    4  A    between atoms: C10_19  and  C11_22 
REMARK    5  A    between atoms: C11_22  and  O4_23 
REMARK    6  A    between atoms: C11_22  and  C12_25 
REMARK    7  A    between atoms: C12_25  and  O5_26 
REMARK    8  A    between atoms: C12_25  and  C13_28 
REMARK    9  A    between atoms: C13_28  and  O6_29 
REMARK   10  A    between atoms: O6_29  and  P1_30 
ROOT
HETATM    1  C1  UNL     1      31.399   2.487   6.340  1.00  0.00     0.049 C 
HETATM    2  C2  UNL     1      30.830   2.986   7.615  1.00  0.00    -0.054 A 
HETATM    3  C3  UNL     1      31.526   2.859   8.798  1.00  0.00     0.039 A 
HETATM    4  C4  UNL     1      31.018   3.317  10.005  1.00  0.00     0.060 A 
HETATM    5  N1  UNL     1      31.745   3.171  11.127  1.00  0.00    -0.347 N 
ATOM      6  H1  UNL     1      32.659   2.722  11.080  1.00  0.00     0.166 HD
HETATM    7  C5  UNL     1      31.282   3.609  12.304  1.00  0.00     0.146 A 
HETATM    8  C6  UNL     1      31.998   3.481  13.500  1.00  0.00     0.280 A 
HETATM    9  O1  UNL     1      33.115   2.934  13.450  1.00  0.00    -0.265 OA
HETATM   10  N2  UNL     1      31.466   3.948  14.656  1.00  0.00    -0.273 N 
ATOM     11  H2  UNL     1      31.985   3.857  15.530  1.00  0.00     0.173 HD
HETATM   12  C7  UNL     1      30.254   4.531  14.652  1.00  0.00     0.328 A 
HETATM   13  O2  UNL     1      29.818   4.943  15.759  1.00  0.00    -0.247 OA
HETATM   14  N3  UNL     1      29.521   4.676  13.509  1.00  0.00    -0.292 N 
ATOM     15  H3  UNL     1      28.606   5.126  13.556  1.00  0.00     0.172 HD
HETATM   16  C8  UNL     1      29.979   4.241  12.326  1.00  0.00     0.145 A 
HETATM   17  N4  UNL     1      29.275   4.367  11.159  1.00  0.00    -0.327 N 
HETATM   18  C14 UNL     1      29.756   3.923   9.987  1.00  0.00     0.063 A 
HETATM   19  C15 UNL     1      29.051   4.054   8.806  1.00  0.00     0.039 A 
HETATM   20  C16 UNL     1      29.586   3.587   7.620  1.00  0.00    -0.054 A 
HETATM   21  C17 UNL     1      28.844   3.720   6.342  1.00  0.00     0.049 C 
ENDROOT
BRANCH  17  22
HETATM   22  C9  UNL     1      27.980   5.007  11.238  1.00  0.00     0.165 C 
BRANCH  22  23
HETATM   23  C10 UNL     1      28.171   6.493  10.905  1.00  0.00     0.167 C 
BRANCH  23  24
HETATM   24  O3  UNL     1      29.224   7.077  11.552  1.00  0.00    -0.391 OA
ATOM     25  H3  UNL     1      29.271   8.020  11.442  1.00  0.00     0.210 HD
ENDBRANCH  23  24
BRANCH  23  26
HETATM   26  C11 UNL     1      26.945   7.284  10.980  1.00  0.00     0.179 C 
BRANCH  26  27
HETATM   27  O4  UNL     1      25.871   6.569  10.442  1.00  0.00    -0.390 OA
ATOM     28  H4  UNL     1      26.181   5.779  10.013  1.00  0.00     0.210 HD
ENDBRANCH  26  27
BRANCH  26  29
HETATM   29  C12 UNL     1      26.878   8.687  10.567  1.00  0.00     0.173 C 
BRANCH  29  30
HETATM   30  O5  UNL     1      28.056   9.287  11.148  1.00  0.00    -0.391 OA
ATOM     31  H5  UNL     1      27.785  10.170  11.370  1.00  0.00     0.210 HD
ENDBRANCH  29  30
BRANCH  29  32
HETATM   32  C13 UNL     1      25.766   9.520  11.197  1.00  0.00     0.217 C 
BRANCH  32  33
HETATM   33  O6  UNL     1      24.611   8.695  11.348  1.00  0.00    -0.280 OA
BRANCH  33  34
HETATM   34  P1  UNL     1      24.248   8.511  12.980  1.00  0.00     0.422 P 
HETATM   35  O7  UNL     1      24.663   7.144  13.411  1.00  0.00    -0.617 OA
HETATM   36  O8  UNL     1      22.599   8.704  13.286  1.00  0.00    -0.617 OA
HETATM   37  O9  UNL     1      25.088   9.638  13.935  1.00  0.00    -0.617 OA
ENDBRANCH  33  34
ENDBRANCH  32  33
ENDBRANCH  29  32
ENDBRANCH  26  29
ENDBRANCH  23  26
ENDBRANCH  22  23
ENDBRANCH  17  22
TORSDOF 10
ENDMDL
