MODEL 5
REMARK VINA RESULT: -10.718690853      1.915      4.540
REMARK  10 active torsions:
REMARK  status: ('A' for Active; 'I' for Inactive)
REMARK    1  A    between atoms: N4_17  and  C9_18 
REMARK    2  A    between atoms: C9_18  and  C10_19 
REMARK    3  A    between atoms: C10_19  and  O3_20 
REMARK    4  A    between atoms: C10_19  and  C11_22 
REMARK    5  A    between atoms: C11_22  and  O4_23 
REMARK    6  A    between atoms: C11_22  and  C12_25 
REMARK    7  A    between atoms: C12_25  and  O5_26 
REMARK    8  A    between atoms: C12_25  and  C13_28 
REMARK    9  A    between atoms: C13_28  and  O6_29 
REMARK   10  A    between atoms: O6_29  and  P1_30 
ROOT
HETATM    1  C1  UNL     1      32.525   3.242  15.039  1.00  0.00     0.049 C 
HETATM    2  C2  UNL     1      31.638   3.608  13.909  1.00  0.00    -0.054 A 
HETATM    3  C3  UNL     1      31.962   3.264  12.615  1.00  0.00     0.039 A 
HETATM    4  C4  UNL     1      31.150   3.594  11.539  1.00  0.00     0.060 A 
HETATM    5  N1  UNL     1      31.516   3.227  10.298  1.00  0.00    -0.347 N 
ATOM      6  H1  UNL     1      32.387   2.715  10.159  1.00  0.00     0.166 HD
HETATM    7  C5  UNL     1      30.749   3.526   9.243  1.00  0.00     0.146 A 
HETATM    8  C6  UNL     1      31.083   3.168   7.931  1.00  0.00     0.280 A 
HETATM    9  O1  UNL     1      32.145   2.543   7.755  1.00  0.00    -0.265 OA
HETATM   10  N2  UNL     1      30.257   3.505   6.910  1.00  0.00    -0.273 N 
ATOM     11  H2  UNL     1      30.498   3.246   5.953  1.00  0.00     0.173 HD
HETATM   12  C7  UNL     1      29.122   4.182   7.158  1.00  0.00     0.328 A 
HETATM   13  O2  UNL     1      28.400   4.463   6.165  1.00  0.00    -0.247 OA
HETATM   14  N3  UNL     1      28.757   4.551   8.421  1.00  0.00    -0.292 N 
ATOM     15  H3  UNL     1      27.885   5.063   8.559  1.00  0.00     0.172 HD
HETATM   16  C8  UNL     1      29.520   4.254   9.483  1.00  0.00     0.145 A 
HETATM   17  N4  UNL     1      29.189   4.607  10.763  1.00  0.00    -0.327 N 
HETATM   18  C14 UNL     1      29.970   4.297  11.811  1.00  0.00     0.063 A 
HETATM   19  C15 UNL     1      29.637   4.645  13.105  1.00  0.00     0.039 A 
HETATM   20  C16 UNL     1      30.468   4.301  14.155  1.00  0.00    -0.054 A 
HETATM   21  C17 UNL     1      30.126   4.667  15.552  1.00  0.00     0.049 C 
ENDROOT
BRANCH  17  22
HETATM   22  C9  UNL     1      27.951   5.331  10.948  1.00  0.00     0.165 C 
BRANCH  22  23
HETATM   23  C10 UNL     1      28.265   6.830  10.841  1.00  0.00     0.167 C 
BRANCH  23  24
HETATM   24  O3  UNL     1      29.562   7.149  11.134  1.00  0.00    -0.391 OA
ATOM     25  H3  UNL     1      29.946   7.785  10.542  1.00  0.00     0.210 HD
ENDBRANCH  23  24
BRANCH  23  26
HETATM   26  C11 UNL     1      27.298   7.691  11.518  1.00  0.00     0.179 C 
BRANCH  26  27
HETATM   27  O4  UNL     1      26.238   6.932  12.021  1.00  0.00    -0.390 OA
ATOM     28  H4  UNL     1      26.243   6.946  12.971  1.00  0.00     0.210 HD
ENDBRANCH  26  27
BRANCH  26  29
HETATM   29  C12 UNL     1      26.798   8.936  10.932  1.00  0.00     0.173 C 
BRANCH  29  30
HETATM   30  O5  UNL     1      26.328   9.701  12.065  1.00  0.00    -0.391 OA
ATOM     31  H5  UNL     1      27.107  10.134  12.395  1.00  0.00     0.210 HD
ENDBRANCH  29  30
BRANCH  29  32
HETATM   32  C13 UNL     1      25.529   8.821  10.093  1.00  0.00     0.217 C 
BRANCH  32  33
HETATM   33  O6  UNL     1      24.412   9.166  10.911  1.00  0.00    -0.280 OA
BRANCH  33  34
HETATM   34  P1  UNL     1      23.202   8.008  10.747  1.00  0.00     0.422 P 
HETATM   35  O7  UNL     1      22.441   7.928  12.028  1.00  0.00    -0.617 OA
HETATM   36  O8  UNL     1      23.832   6.483  10.389  1.00  0.00    -0.617 OA
HETATM   37  O9  UNL     1      22.109   8.421   9.513  1.00  0.00    -0.617 OA
ENDBRANCH  33  34
ENDBRANCH  32  33
ENDBRANCH  29  32
ENDBRANCH  26  29
ENDBRANCH  23  26
ENDBRANCH  22  23
ENDBRANCH  17  22
TORSDOF 10
ENDMDL
