MODEL 6
REMARK VINA RESULT: -10.656923490      2.456      4.938
REMARK  10 active torsions:
REMARK  status: ('A' for Active; 'I' for Inactive)
REMARK    1  A    between atoms: N4_17  and  C9_18 
REMARK    2  A    between atoms: C9_18  and  C10_19 
REMARK    3  A    between atoms: C10_19  and  O3_20 
REMARK    4  A    between atoms: C10_19  and  C11_22 
REMARK    5  A    between atoms: C11_22  and  O4_23 
REMARK    6  A    between atoms: C11_22  and  C12_25 
REMARK    7  A    between atoms: C12_25  and  O5_26 
REMARK    8  A    between atoms: C12_25  and  C13_28 
REMARK    9  A    between atoms: C13_28  and  O6_29 
REMARK   10  A    between atoms: O6_29  and  P1_30 
ROOT
HETATM    1  C1  UNL     1      32.500   3.722  14.463  1.00  0.00     0.049 C 
HETATM    2  C2  UNL     1      31.530   3.883  13.353  1.00  0.00    -0.054 A 
HETATM    3  C3  UNL     1      31.894   3.618  12.051  1.00  0.00     0.039 A 
HETATM    4  C4  UNL     1      31.007   3.760  10.994  1.00  0.00     0.060 A 
HETATM    5  N1  UNL     1      31.417   3.481   9.744  1.00  0.00    -0.347 N 
ATOM      6  H1  UNL     1      32.376   3.172   9.585  1.00  0.00     0.166 HD
HETATM    7  C5  UNL     1      30.581   3.604   8.706  1.00  0.00     0.146 A 
HETATM    8  C6  UNL     1      30.958   3.326   7.387  1.00  0.00     0.280 A 
HETATM    9  O1  UNL     1      32.127   2.949   7.186  1.00  0.00    -0.265 OA
HETATM   10  N2  UNL     1      30.057   3.473   6.384  1.00  0.00    -0.273 N 
ATOM     11  H2  UNL     1      30.328   3.272   5.421  1.00  0.00     0.173 HD
HETATM   12  C7  UNL     1      28.806   3.884   6.658  1.00  0.00     0.328 A 
HETATM   13  O2  UNL     1      28.019   3.999   5.682  1.00  0.00    -0.247 OA
HETATM   14  N3  UNL     1      28.396   4.165   7.930  1.00  0.00    -0.292 N 
ATOM     15  H3  UNL     1      27.437   4.474   8.089  1.00  0.00     0.172 HD
HETATM   16  C8  UNL     1      29.228   4.044   8.975  1.00  0.00     0.145 A 
HETATM   17  N4  UNL     1      28.855   4.317  10.263  1.00  0.00    -0.327 N 
HETATM   18  C14 UNL     1      29.708   4.187  11.293  1.00  0.00     0.063 A 
HETATM   19  C15 UNL     1      29.334   4.455  12.595  1.00  0.00     0.039 A 
HETATM   20  C16 UNL     1      30.242   4.303  13.626  1.00  0.00    -0.054 A 
HETATM   21  C17 UNL     1      29.858   4.587  15.032  1.00  0.00     0.049 C 
ENDROOT
BRANCH  17  22
HETATM   22  C9  UNL     1      27.492   4.753  10.477  1.00  0.00     0.165 C 
BRANCH  22  23
HETATM   23  C10 UNL     1      27.439   6.265  10.219  1.00  0.00     0.167 C 
BRANCH  23  24
HETATM   24  O3  UNL     1      28.458   6.965  10.802  1.00  0.00    -0.391 OA
ATOM     25  H3  UNL     1      28.421   7.902  10.649  1.00  0.00     0.210 HD
ENDBRANCH  23  24
BRANCH  23  26
HETATM   26  C11 UNL     1      26.127   6.863  10.454  1.00  0.00     0.179 C 
BRANCH  26  27
HETATM   27  O4  UNL     1      25.133   5.881  10.436  1.00  0.00    -0.390 OA
ATOM     28  H4  UNL     1      24.628   5.905  11.241  1.00  0.00     0.210 HD
ENDBRANCH  26  27
BRANCH  26  29
HETATM   29  C12 UNL     1      25.665   8.064   9.756  1.00  0.00     0.173 C 
BRANCH  29  30
HETATM   30  O5  UNL     1      26.863   8.851   9.567  1.00  0.00    -0.391 OA
ATOM     31  H5  UNL     1      26.583   9.579   9.025  1.00  0.00     0.210 HD
ENDBRANCH  29  30
BRANCH  29  32
HETATM   32  C13 UNL     1      24.795   9.020  10.567  1.00  0.00     0.217 C 
BRANCH  32  33
HETATM   33  O6  UNL     1      24.788   8.584  11.926  1.00  0.00    -0.280 OA
BRANCH  33  34
HETATM   34  P1  UNL     1      25.926   9.451  12.811  1.00  0.00     0.422 P 
HETATM   35  O7  UNL     1      25.486   9.499  14.237  1.00  0.00    -0.617 OA
HETATM   36  O8  UNL     1      26.104  11.029  12.239  1.00  0.00    -0.617 OA
HETATM   37  O9  UNL     1      27.452   8.705  12.760  1.00  0.00    -0.617 OA
ENDBRANCH  33  34
ENDBRANCH  32  33
ENDBRANCH  29  32
ENDBRANCH  26  29
ENDBRANCH  23  26
ENDBRANCH  22  23
ENDBRANCH  17  22
TORSDOF 10
ENDMDL
