MODEL 1
REMARK VINA RESULT: -13.537608013      0.000      0.000
REMARK  10 active torsions:
REMARK  status: ('A' for Active; 'I' for Inactive)
REMARK    1  A    between atoms: N4_17  and  C9_18 
REMARK    2  A    between atoms: C9_18  and  C10_19 
REMARK    3  A    between atoms: C10_19  and  O3_20 
REMARK    4  A    between atoms: C10_19  and  C11_22 
REMARK    5  A    between atoms: C11_22  and  O4_23 
REMARK    6  A    between atoms: C11_22  and  C12_25 
REMARK    7  A    between atoms: C12_25  and  O5_26 
REMARK    8  A    between atoms: C12_25  and  C13_28 
REMARK    9  A    between atoms: C13_28  and  O6_29 
REMARK   10  A    between atoms: O6_29  and  P1_30 
ROOT
HETATM    1  C1  UNL     1      31.268   2.509   6.496  1.00  0.00     0.049 C 
HETATM    2  C2  UNL     1      30.746   3.053   7.773  1.00  0.00    -0.054 A 
HETATM    3  C3  UNL     1      31.418   2.844   8.958  1.00  0.00     0.039 A 
HETATM    4  C4  UNL     1      30.952   3.342  10.166  1.00  0.00     0.060 A 
HETATM    5  N1  UNL     1      31.652   3.112  11.291  1.00  0.00    -0.347 N 
ATOM      6  H1  UNL     1      32.516   2.571  11.245  1.00  0.00     0.166 HD
HETATM    7  C5  UNL     1      31.229   3.585  12.469  1.00  0.00     0.146 A 
HETATM    8  C6  UNL     1      31.921   3.374  13.668  1.00  0.00     0.280 A 
HETATM    9  O1  UNL     1      32.976   2.714  13.620  1.00  0.00    -0.265 OA
HETATM   10  N2  UNL     1      31.433   3.883  14.826  1.00  0.00    -0.273 N 
ATOM     11  H2  UNL     1      31.934   3.731  15.702  1.00  0.00     0.173 HD
HETATM   12  C7  UNL     1      30.288   4.589  14.821  1.00  0.00     0.328 A 
HETATM   13  O2  UNL     1      29.890   5.034  15.929  1.00  0.00    -0.247 OA
HETATM   14  N3  UNL     1      29.581   4.819  13.675  1.00  0.00    -0.292 N 
ATOM     15  H3  UNL     1      28.718   5.360  13.721  1.00  0.00     0.172 HD
HETATM   16  C8  UNL     1      29.999   4.348  12.491  1.00  0.00     0.145 A 
HETATM   17  N4  UNL     1      29.320   4.557  11.321  1.00  0.00    -0.327 N 
HETATM   18  C14 UNL     1      29.759   4.076  10.147  1.00  0.00     0.063 A 
HETATM   19  C15 UNL     1      29.080   4.289   8.964  1.00  0.00     0.039 A 
HETATM   20  C16 UNL     1      29.571   3.780   7.777  1.00  0.00    -0.054 A 
HETATM   21  C17 UNL     1      28.855   4.000   6.495  1.00  0.00     0.049 C 
ENDROOT
BRANCH  17  22
HETATM   22  C9  UNL     1      28.097   5.327  11.398  1.00  0.00     0.165 C 
BRANCH  22  23
HETATM   23  C10 UNL     1      28.450   6.795  11.122  1.00  0.00     0.167 C 
BRANCH  23  24
HETATM   24  O3  UNL     1      29.706   7.151  11.528  1.00  0.00    -0.391 OA
ATOM     25  H3  UNL     1      29.852   8.090  11.555  1.00  0.00     0.210 HD
ENDBRANCH  23  24
BRANCH  23  26
HETATM   26  C11 UNL     1      27.423   7.745  11.541  1.00  0.00     0.179 C 
BRANCH  26  27
HETATM   27  O4  UNL     1      26.349   7.072  12.131  1.00  0.00    -0.390 OA
ATOM     28  H4  UNL     1      26.580   6.165  12.300  1.00  0.00     0.210 HD
ENDBRANCH  26  27
BRANCH  26  29
HETATM   29  C12 UNL     1      26.934   8.819  10.676  1.00  0.00     0.173 C 
BRANCH  29  30
HETATM   30  O5  UNL     1      26.560   9.874  11.590  1.00  0.00    -0.391 OA
ATOM     31  H5  UNL     1      26.516  10.652  11.047  1.00  0.00     0.210 HD
ENDBRANCH  29  30
BRANCH  29  32
HETATM   32  C13 UNL     1      25.614   8.554   9.957  1.00  0.00     0.217 C 
BRANCH  32  33
HETATM   33  O6  UNL     1      24.551   9.074  10.755  1.00  0.00    -0.280 OA
BRANCH  33  34
HETATM   34  P1  UNL     1      23.258   7.999  10.757  1.00  0.00     0.422 P 
HETATM   35  O7  UNL     1      23.777   6.626  10.487  1.00  0.00    -0.617 OA
HETATM   36  O8  UNL     1      22.109   8.390   9.583  1.00  0.00    -0.617 OA
HETATM   37  O9  UNL     1      22.471   7.975  12.263  1.00  0.00    -0.617 OA
ENDBRANCH  33  34
ENDBRANCH  32  33
ENDBRANCH  29  32
ENDBRANCH  26  29
ENDBRANCH  23  26
ENDBRANCH  22  23
ENDBRANCH  17  22
TORSDOF 10
ENDMDL
