MODEL 7
REMARK VINA RESULT: -10.453546417      2.089      4.606
REMARK  10 active torsions:
REMARK  status: ('A' for Active; 'I' for Inactive)
REMARK    1  A    between atoms: N4_17  and  C9_18 
REMARK    2  A    between atoms: C9_18  and  C10_19 
REMARK    3  A    between atoms: C10_19  and  O3_20 
REMARK    4  A    between atoms: C10_19  and  C11_22 
REMARK    5  A    between atoms: C11_22  and  O4_23 
REMARK    6  A    between atoms: C11_22  and  C12_25 
REMARK    7  A    between atoms: C12_25  and  O5_26 
REMARK    8  A    between atoms: C12_25  and  C13_28 
REMARK    9  A    between atoms: C13_28  and  O6_29 
REMARK   10  A    between atoms: O6_29  and  P1_30 
ROOT
HETATM    1  C1  UNL     1      32.469   3.171  14.903  1.00  0.00     0.049 C 
HETATM    2  C2  UNL     1      31.565   3.528  13.782  1.00  0.00    -0.054 A 
HETATM    3  C3  UNL     1      31.890   3.208  12.482  1.00  0.00     0.039 A 
HETATM    4  C4  UNL     1      31.063   3.531  11.416  1.00  0.00     0.060 A 
HETATM    5  N1  UNL     1      31.430   3.188  10.168  1.00  0.00    -0.347 N 
ATOM      6  H1  UNL     1      32.312   2.699  10.018  1.00  0.00     0.166 HD
HETATM    7  C5  UNL     1      30.649   3.481   9.121  1.00  0.00     0.146 A 
HETATM    8  C6  UNL     1      30.984   3.147   7.803  1.00  0.00     0.280 A 
HETATM    9  O1  UNL     1      32.060   2.550   7.613  1.00  0.00    -0.265 OA
HETATM   10  N2  UNL     1      30.144   3.476   6.791  1.00  0.00    -0.273 N 
ATOM     11  H2  UNL     1      30.385   3.235   5.829  1.00  0.00     0.173 HD
HETATM   12  C7  UNL     1      28.994   4.121   7.054  1.00  0.00     0.328 A 
HETATM   13  O2  UNL     1      28.259   4.397   6.069  1.00  0.00    -0.247 OA
HETATM   14  N3  UNL     1      28.628   4.467   8.323  1.00  0.00    -0.292 N 
ATOM     15  H3  UNL     1      27.745   4.955   8.474  1.00  0.00     0.172 HD
HETATM   16  C8  UNL     1      29.405   4.176   9.377  1.00  0.00     0.145 A 
HETATM   17  N4  UNL     1      29.073   4.505  10.664  1.00  0.00    -0.327 N 
HETATM   18  C14 UNL     1      29.869   4.202  11.703  1.00  0.00     0.063 A 
HETATM   19  C15 UNL     1      29.535   4.526  13.003  1.00  0.00     0.039 A 
HETATM   20  C16 UNL     1      30.381   4.190  14.044  1.00  0.00    -0.054 A 
HETATM   21  C17 UNL     1      30.039   4.530  15.448  1.00  0.00     0.049 C 
ENDROOT
BRANCH  17  22
HETATM   22  C9  UNL     1      27.819   5.196  10.865  1.00  0.00     0.165 C 
BRANCH  22  23
HETATM   23  C10 UNL     1      28.054   6.685  10.574  1.00  0.00     0.167 C 
BRANCH  23  24
HETATM   24  O3  UNL     1      29.092   7.232  11.275  1.00  0.00    -0.391 OA
ATOM     25  H3  UNL     1      29.824   6.640  11.407  1.00  0.00     0.210 HD
ENDBRANCH  23  24
BRANCH  23  26
HETATM   26  C11 UNL     1      26.842   7.500  10.620  1.00  0.00     0.179 C 
BRANCH  26  27
HETATM   27  O4  UNL     1      26.303   7.644   9.338  1.00  0.00    -0.390 OA
ATOM     28  H4  UNL     1      26.638   8.432   8.926  1.00  0.00     0.210 HD
ENDBRANCH  26  27
BRANCH  26  29
HETATM   29  C12 UNL     1      26.764   8.767  11.349  1.00  0.00     0.173 C 
BRANCH  29  30
HETATM   30  O5  UNL     1      27.225   8.444  12.679  1.00  0.00    -0.391 OA
ATOM     31  H5  UNL     1      27.650   9.239  12.981  1.00  0.00     0.210 HD
ENDBRANCH  29  30
BRANCH  29  32
HETATM   32  C13 UNL     1      25.361   9.295  11.630  1.00  0.00     0.217 C 
BRANCH  32  33
HETATM   33  O6  UNL     1      24.618   9.279  10.412  1.00  0.00    -0.280 OA
BRANCH  33  34
HETATM   34  P1  UNL     1      23.251   8.315  10.587  1.00  0.00     0.422 P 
HETATM   35  O7  UNL     1      22.292   8.641   9.491  1.00  0.00    -0.617 OA
HETATM   36  O8  UNL     1      22.488   8.562  12.072  1.00  0.00    -0.617 OA
HETATM   37  O9  UNL     1      23.636   6.664  10.470  1.00  0.00    -0.617 OA
ENDBRANCH  33  34
ENDBRANCH  32  33
ENDBRANCH  29  32
ENDBRANCH  26  29
ENDBRANCH  23  26
ENDBRANCH  22  23
ENDBRANCH  17  22
TORSDOF 10
ENDMDL
