MODEL 7
REMARK VINA RESULT: -6.403651952      2.546      4.875
REMARK  4 active torsions:
REMARK  status: ('A' for Active; 'I' for Inactive)
REMARK    1  A    between atoms: C1_2  and  C2_3 
REMARK       I    between atoms: C1_2  and  N1_9 
REMARK    2  A    between atoms: C2_3  and  O2_4 
REMARK    3  A    between atoms: O2_4  and  P1_5 
REMARK    4  A    between atoms: N1_9  and  O6_11 
ROOT
HETATM    1  O1  UNL     1     -28.560  15.559  55.704  1.00  0.00    -0.269 OA
HETATM    2  C1  UNL     1     -28.050  15.235  56.832  1.00  0.00     0.265 C 
HETATM    3  N1  UNL     1     -28.811  15.524  57.983  1.00  0.00    -0.236 N 
ATOM      4  H1  UNL     1     -28.448  15.286  58.907  1.00  0.00     0.197 HD
ENDROOT
BRANCH   2   5
HETATM    5  C2  UNL     1     -26.741  14.606  56.811  1.00  0.00     0.287 C 
BRANCH   5   6
HETATM    6  O2  UNL     1     -26.030  14.852  57.987  1.00  0.00    -0.273 OA
BRANCH   6   7
HETATM    7  P1  UNL     1     -24.505  14.679  57.898  1.00  0.00     0.422 P 
HETATM    8  O3  UNL     1     -22.981  14.482  57.895  1.00  0.00    -0.617 OA
HETATM    9  O4  UNL     1     -24.735  13.348  56.958  1.00  0.00    -0.617 OA
HETATM   10  O5  UNL     1     -24.357  16.133  57.134  1.00  0.00    -0.617 OA
ENDBRANCH   6   7
ENDBRANCH   5   6
ENDBRANCH   2   5
BRANCH   3  11
HETATM   11  O6  UNL     1     -30.013  16.111  57.866  1.00  0.00    -0.287 OA
ATOM     12  H6  UNL     1     -30.806  15.601  57.984  1.00  0.00     0.244 HD
ENDBRANCH   3  11
TORSDOF 4
ENDMDL
