MODEL 2
REMARK VINA RESULT: -6.904461479      1.092      1.679
REMARK  4 active torsions:
REMARK  status: ('A' for Active; 'I' for Inactive)
REMARK    1  A    between atoms: C1_2  and  C2_3 
REMARK       I    between atoms: C1_2  and  N1_9 
REMARK    2  A    between atoms: C2_3  and  O2_4 
REMARK    3  A    between atoms: O2_4  and  P1_5 
REMARK    4  A    between atoms: N1_9  and  O6_11 
ROOT
HETATM    1  O1  UNL     1     -24.469  16.141  57.125  1.00  0.00    -0.269 OA
HETATM    2  C1  UNL     1     -24.854  14.937  57.326  1.00  0.00     0.265 C 
HETATM    3  N1  UNL     1     -23.869  14.009  57.720  1.00  0.00    -0.236 N 
ATOM      4  H1  UNL     1     -24.124  13.037  57.893  1.00  0.00     0.197 HD
ENDROOT
BRANCH   2   5
HETATM    5  C2  UNL     1     -26.264  14.651  57.129  1.00  0.00     0.287 C 
BRANCH   5   6
HETATM    6  O2  UNL     1     -27.008  14.894  58.285  1.00  0.00    -0.273 OA
BRANCH   6   7
HETATM    7  P1  UNL     1     -28.381  15.553  58.075  1.00  0.00     0.422 P 
HETATM    8  O3  UNL     1     -29.711  16.282  57.829  1.00  0.00    -0.617 OA
HETATM    9  O4  UNL     1     -28.704  14.448  56.898  1.00  0.00    -0.617 OA
HETATM   10  O5  UNL     1     -28.829  15.175  59.617  1.00  0.00    -0.617 OA
ENDBRANCH   6   7
ENDBRANCH   5   6
ENDBRANCH   2   5
BRANCH   3  11
HETATM   11  O6  UNL     1     -22.593  14.403  57.868  1.00  0.00    -0.287 OA
ATOM     12  H6  UNL     1     -22.050  14.015  58.544  1.00  0.00     0.244 HD
ENDBRANCH   3  11
TORSDOF 4
ENDMDL
