MODEL 5
REMARK VINA RESULT: -6.646503165      2.435      4.887
REMARK  4 active torsions:
REMARK  status: ('A' for Active; 'I' for Inactive)
REMARK    1  A    between atoms: C1_2  and  C2_3 
REMARK       I    between atoms: C1_2  and  N1_9 
REMARK    2  A    between atoms: C2_3  and  O2_4 
REMARK    3  A    between atoms: O2_4  and  P1_5 
REMARK    4  A    between atoms: N1_9  and  O6_11 
ROOT
HETATM    1  O1  UNL     1     -28.343  15.291  55.679  1.00  0.00    -0.269 OA
HETATM    2  C1  UNL     1     -27.732  15.161  56.796  1.00  0.00     0.265 C 
HETATM    3  N1  UNL     1     -28.429  15.562  57.954  1.00  0.00    -0.236 N 
ATOM      4  H1  UNL     1     -27.987  15.479  58.870  1.00  0.00     0.197 HD
ENDROOT
BRANCH   2   5
HETATM    5  C2  UNL     1     -26.387  14.615  56.756  1.00  0.00     0.287 C 
BRANCH   5   6
HETATM    6  O2  UNL     1     -25.729  14.772  57.977  1.00  0.00    -0.273 OA
BRANCH   6   7
HETATM    7  P1  UNL     1     -24.193  14.762  57.919  1.00  0.00     0.422 P 
HETATM    8  O3  UNL     1     -22.663  14.684  57.803  1.00  0.00    -0.617 OA
HETATM    9  O4  UNL     1     -24.238  16.194  57.110  1.00  0.00    -0.617 OA
HETATM   10  O5  UNL     1     -24.104  14.820  59.565  1.00  0.00    -0.617 OA
ENDBRANCH   6   7
ENDBRANCH   5   6
ENDBRANCH   2   5
BRANCH   3  11
HETATM   11  O6  UNL     1     -29.676  16.052  57.854  1.00  0.00    -0.287 OA
ATOM     12  H6  UNL     1     -29.846  16.813  57.311  1.00  0.00     0.244 HD
ENDBRANCH   3  11
TORSDOF 4
ENDMDL
