MODEL 4
REMARK VINA RESULT: -6.771163845      1.411      1.815
REMARK  4 active torsions:
REMARK  status: ('A' for Active; 'I' for Inactive)
REMARK    1  A    between atoms: C1_2  and  C2_3 
REMARK       I    between atoms: C1_2  and  N1_9 
REMARK    2  A    between atoms: C2_3  and  O2_4 
REMARK    3  A    between atoms: O2_4  and  P1_5 
REMARK    4  A    between atoms: N1_9  and  O6_11 
ROOT
HETATM    1  O1  UNL     1     -24.359  14.929  59.475  1.00  0.00    -0.269 OA
HETATM    2  C1  UNL     1     -25.152  14.518  58.559  1.00  0.00     0.265 C 
HETATM    3  N1  UNL     1     -24.586  13.742  57.527  1.00  0.00    -0.236 N 
ATOM      4  H1  UNL     1     -25.176  13.390  56.772  1.00  0.00     0.197 HD
ENDROOT
BRANCH   2   5
HETATM    5  C2  UNL     1     -26.550  14.892  58.675  1.00  0.00     0.287 C 
BRANCH   5   6
HETATM    6  O2  UNL     1     -27.012  15.531  57.523  1.00  0.00    -0.273 OA
BRANCH   6   7
HETATM    7  P1  UNL     1     -28.539  15.602  57.361  1.00  0.00     0.422 P 
HETATM    8  O3  UNL     1     -30.059  15.761  57.199  1.00  0.00    -0.617 OA
HETATM    9  O4  UNL     1     -28.377  15.045  55.821  1.00  0.00    -0.617 OA
HETATM   10  O5  UNL     1     -28.745  14.484  58.556  1.00  0.00    -0.617 OA
ENDBRANCH   6   7
ENDBRANCH   5   6
ENDBRANCH   2   5
BRANCH   3  11
HETATM   11  O6  UNL     1     -23.272  13.464  57.535  1.00  0.00    -0.287 OA
ATOM     12  H6  UNL     1     -22.965  12.607  57.263  1.00  0.00     0.244 HD
ENDBRANCH   3  11
TORSDOF 4
ENDMDL
