MODEL 6
REMARK VINA RESULT: -6.483880694      1.845      2.279
REMARK  4 active torsions:
REMARK  status: ('A' for Active; 'I' for Inactive)
REMARK    1  A    between atoms: C1_2  and  C2_3 
REMARK       I    between atoms: C1_2  and  N1_9 
REMARK    2  A    between atoms: C2_3  and  O2_4 
REMARK    3  A    between atoms: O2_4  and  P1_5 
REMARK    4  A    between atoms: N1_9  and  O6_11 
ROOT
HETATM    1  O1  UNL     1     -23.692  15.021  59.279  1.00  0.00    -0.269 OA
HETATM    2  C1  UNL     1     -24.688  14.270  58.996  1.00  0.00     0.265 C 
HETATM    3  N1  UNL     1     -24.835  13.092  59.758  1.00  0.00    -0.236 N 
ATOM      4  H1  UNL     1     -25.613  12.458  59.572  1.00  0.00     0.197 HD
ENDROOT
BRANCH   2   5
HETATM    5  C2  UNL     1     -25.564  14.705  57.922  1.00  0.00     0.287 C 
BRANCH   5   6
HETATM    6  O2  UNL     1     -26.792  15.158  58.408  1.00  0.00    -0.273 OA
BRANCH   6   7
HETATM    7  P1  UNL     1     -27.868  15.443  57.348  1.00  0.00     0.422 P 
HETATM    8  O3  UNL     1     -28.915  15.812  56.285  1.00  0.00    -0.617 OA
HETATM    9  O4  UNL     1     -27.030  14.513  56.281  1.00  0.00    -0.617 OA
HETATM   10  O5  UNL     1     -29.013  14.698  58.272  1.00  0.00    -0.617 OA
ENDBRANCH   6   7
ENDBRANCH   5   6
ENDBRANCH   2   5
BRANCH   3  11
HETATM   11  O6  UNL     1     -23.953  12.803  60.728  1.00  0.00    -0.287 OA
ATOM     12  H6  UNL     1     -24.259  12.533  61.586  1.00  0.00     0.244 HD
ENDBRANCH   3  11
TORSDOF 4
ENDMDL
