MODEL 1
REMARK VINA RESULT: -7.076970202      0.000      0.000
REMARK  4 active torsions:
REMARK  status: ('A' for Active; 'I' for Inactive)
REMARK    1  A    between atoms: C1_2  and  C2_3 
REMARK       I    between atoms: C1_2  and  N1_9 
REMARK    2  A    between atoms: C2_3  and  O2_4 
REMARK    3  A    between atoms: O2_4  and  P1_5 
REMARK    4  A    between atoms: N1_9  and  O6_11 
ROOT
HETATM    1  O1  UNL     1     -24.284  16.169  57.144  1.00  0.00    -0.269 OA
HETATM    2  C1  UNL     1     -24.539  14.980  57.542  1.00  0.00     0.265 C 
HETATM    3  N1  UNL     1     -23.449  14.214  58.002  1.00  0.00    -0.236 N 
ATOM      4  H1  UNL     1     -23.599  13.259  58.330  1.00  0.00     0.197 HD
ENDROOT
BRANCH   2   5
HETATM    5  C2  UNL     1     -25.922  14.542  57.478  1.00  0.00     0.287 C 
BRANCH   5   6
HETATM    6  O2  UNL     1     -26.793  15.610  57.254  1.00  0.00    -0.273 OA
BRANCH   6   7
HETATM    7  P1  UNL     1     -28.292  15.268  57.264  1.00  0.00     0.422 P 
HETATM    8  O3  UNL     1     -29.773  14.869  57.340  1.00  0.00    -0.617 OA
HETATM    9  O4  UNL     1     -28.604  16.760  57.884  1.00  0.00    -0.617 OA
HETATM   10  O5  UNL     1     -28.294  15.110  55.622  1.00  0.00    -0.617 OA
ENDBRANCH   6   7
ENDBRANCH   5   6
ENDBRANCH   2   5
BRANCH   3  11
HETATM   11  O6  UNL     1     -22.213  14.739  58.011  1.00  0.00    -0.287 OA
ATOM     12  H6  UNL     1     -21.639  14.596  58.755  1.00  0.00     0.244 HD
ENDBRANCH   3  11
TORSDOF 4
ENDMDL
