MODEL 3
REMARK VINA RESULT: -6.797566493      1.067      1.639
REMARK  4 active torsions:
REMARK  status: ('A' for Active; 'I' for Inactive)
REMARK    1  A    between atoms: C1_2  and  C2_3 
REMARK       I    between atoms: C1_2  and  N1_9 
REMARK    2  A    between atoms: C2_3  and  O2_4 
REMARK    3  A    between atoms: O2_4  and  P1_5 
REMARK    4  A    between atoms: N1_9  and  O6_11 
ROOT
HETATM    1  O1  UNL     1     -23.906  15.998  57.165  1.00  0.00    -0.269 OA
HETATM    2  C1  UNL     1     -24.764  15.124  57.537  1.00  0.00     0.265 C 
HETATM    3  N1  UNL     1     -24.528  14.484  58.771  1.00  0.00    -0.236 N 
ATOM      4  H1  UNL     1     -25.182  13.780  59.113  1.00  0.00     0.197 HD
ENDROOT
BRANCH   2   5
HETATM    5  C2  UNL     1     -25.890  14.882  56.653  1.00  0.00     0.287 C 
BRANCH   5   6
HETATM    6  O2  UNL     1     -27.008  14.425  57.352  1.00  0.00    -0.273 OA
BRANCH   6   7
HETATM    7  P1  UNL     1     -28.118  15.461  57.594  1.00  0.00     0.422 P 
HETATM    8  O3  UNL     1     -29.164  16.558  57.848  1.00  0.00    -0.617 OA
HETATM    9  O4  UNL     1     -28.490  15.400  55.992  1.00  0.00    -0.617 OA
HETATM   10  O5  UNL     1     -28.909  14.420  58.599  1.00  0.00    -0.617 OA
ENDBRANCH   6   7
ENDBRANCH   5   6
ENDBRANCH   2   5
BRANCH   3  11
HETATM   11  O6  UNL     1     -23.444  14.801  59.498  1.00  0.00    -0.287 OA
ATOM     12  H6  UNL     1     -23.357  15.672  59.869  1.00  0.00     0.244 HD
ENDBRANCH   3  11
TORSDOF 4
ENDMDL
