MODEL 13
REMARK VINA RESULT: -3.617459786      3.259      3.895
REMARK  8 active torsions:
REMARK  status: ('A' for Active; 'I' for Inactive)
REMARK    1  A    between atoms: C1_2  and  C2_3 
REMARK    2  A    between atoms: C1_2  and  C3_6 
REMARK    3  A    between atoms: C2_3  and  O2_4 
REMARK    4  A    between atoms: C3_6  and  O3_7 
REMARK    5  A    between atoms: C3_6  and  C4_9 
REMARK    6  A    between atoms: C4_9  and  O4_10 
REMARK    7  A    between atoms: C4_9  and  C5_12 
REMARK    8  A    between atoms: C5_12  and  O5_13 
ROOT
HETATM    1  C3  UNL     1      19.141  69.843  94.454  1.00  0.00     0.220 C 
ENDROOT
BRANCH   1   2
HETATM    2  C1  UNL     1      18.461  69.516  95.717  1.00  0.00     0.181 C 
HETATM    3  O1  UNL     1      18.559  68.397  96.173  1.00  0.00    -0.293 OA
BRANCH   2   4
HETATM    4  C2  UNL     1      17.664  70.541  96.427  1.00  0.00     0.245 C 
BRANCH   4   5
HETATM    5  O2  UNL     1      16.601  70.975  95.655  1.00  0.00    -0.393 OA
ATOM      6  H2  UNL     1      16.901  71.474  94.904  1.00  0.00     0.209 HD
ENDBRANCH   4   5
ENDBRANCH   2   4
ENDBRANCH   1   2
BRANCH   1   7
HETATM    7  O3  UNL     1      18.989  71.152  94.064  1.00  0.00    -0.385 OA
ATOM      8  H3  UNL     1      19.666  71.731  94.392  1.00  0.00     0.210 HD
ENDBRANCH   1   7
BRANCH   1   9
HETATM    9  C4  UNL     1      20.593  69.421  94.473  1.00  0.00     0.177 C 
BRANCH   9  10
HETATM   10  O4  UNL     1      21.090  69.443  95.755  1.00  0.00    -0.390 OA
ATOM     11  H4  UNL     1      20.451  69.805  96.357  1.00  0.00     0.210 HD
ENDBRANCH   9  10
BRANCH   9  12
HETATM   12  C5  UNL     1      21.438  70.227  93.526  1.00  0.00     0.198 C 
BRANCH  12  13
HETATM   13  O5  UNL     1      21.918  71.393  94.112  1.00  0.00    -0.398 OA
ATOM     14  H5  UNL     1      22.655  71.229  94.688  1.00  0.00     0.209 HD
ENDBRANCH  12  13
ENDBRANCH   9  12
ENDBRANCH   1   9
TORSDOF 8
ENDMDL
