MODEL 2
REMARK VINA RESULT: -7.898939080      1.103      1.219
REMARK  2 active torsions:
REMARK  status: ('A' for Active; 'I' for Inactive)
REMARK    1  A    between atoms: C13_16  and  O4_17 
REMARK    2  A    between atoms: C15_20  and  O5_21 
ROOT
HETATM    1  O1  UNL     1      59.289  74.696  -2.092  1.00  0.00    -0.298 OA
HETATM    2  C1  UNL     1      58.932  75.542  -2.878  1.00  0.00     0.131 C 
HETATM    3  C2  UNL     1      58.068  76.645  -2.412  1.00  0.00     0.078 C 
HETATM    4  C3  UNL     1      57.201  76.223  -1.236  1.00  0.00     0.007 C 
HETATM    5  C4  UNL     1      55.824  76.840  -1.378  1.00  0.00     0.001 C 
HETATM    6  C5  UNL     1      55.939  78.305  -1.658  1.00  0.00     0.004 C 
HETATM    7  C6  UNL     1      54.964  78.766  -2.716  1.00  0.00     0.027 C 
HETATM    8  C7  UNL     1      54.029  77.722  -3.167  1.00  0.00    -0.031 C 
HETATM    9  C8  UNL     1      54.118  76.967  -4.234  1.00  0.00    -0.029 C 
HETATM   10  C9  UNL     1      55.217  77.009  -5.237  1.00  0.00     0.053 C 
HETATM   11  C10 UNL     1      55.890  75.654  -5.372  1.00  0.00     0.183 C 
HETATM   12  O2  UNL     1      57.036  75.755  -6.080  1.00  0.00    -0.317 OA
HETATM   13  C11 UNL     1      57.839  76.628  -6.690  1.00  0.00     0.296 C 
HETATM   14  O3  UNL     1      57.803  76.952  -7.947  1.00  0.00    -0.259 OA
HETATM   15  C12 UNL     1      58.886  77.325  -5.939  1.00  0.00     0.081 A 
HETATM   16  C13 UNL     1      59.242  78.615  -6.317  1.00  0.00     0.085 A 
HETATM   17  C14 UNL     1      60.220  79.356  -5.690  1.00  0.00     0.076 A 
HETATM   18  C15 UNL     1      60.899  78.814  -4.630  1.00  0.00     0.090 A 
HETATM   19  C16 UNL     1      60.564  77.531  -4.235  1.00  0.00     0.075 A 
HETATM   20 CL1  UNL     1      61.474  76.865  -2.870  1.00  0.00    -0.081 Cl
HETATM   21  C17 UNL     1      59.570  76.795  -4.880  1.00  0.00    -0.008 A 
HETATM   22  C18 UNL     1      59.377  75.446  -4.289  1.00  0.00     0.119 C 
ENDROOT
BRANCH  16  23
HETATM   23  O4  UNL     1      58.578  79.222  -7.402  1.00  0.00    -0.360 OA
ATOM     24  H4  UNL     1      57.639  79.359  -7.354  1.00  0.00     0.217 HD
ENDBRANCH  16  23
BRANCH  18  25
HETATM   25  O5  UNL     1      61.905  79.514  -3.951  1.00  0.00    -0.359 OA
ATOM     26  H5  UNL     1      61.855  79.695  -3.019  1.00  0.00     0.217 HD
ENDBRANCH  18  25
TORSDOF 2
ENDMDL
