MODEL 1
REMARK VINA RESULT: -8.054084033      0.000      0.000
REMARK  2 active torsions:
REMARK  status: ('A' for Active; 'I' for Inactive)
REMARK    1  A    between atoms: C13_16  and  O4_17 
REMARK    2  A    between atoms: C15_20  and  O5_21 
ROOT
HETATM    1  O1  UNL     1      57.989  73.785  -2.840  1.00  0.00    -0.298 OA
HETATM    2  C1  UNL     1      58.014  74.916  -3.266  1.00  0.00     0.131 C 
HETATM    3  C2  UNL     1      57.489  76.017  -2.432  1.00  0.00     0.078 C 
HETATM    4  C3  UNL     1      56.399  75.536  -1.488  1.00  0.00     0.007 C 
HETATM    5  C4  UNL     1      55.312  76.589  -1.396  1.00  0.00     0.001 C 
HETATM    6  C5  UNL     1      55.914  77.932  -1.128  1.00  0.00     0.004 C 
HETATM    7  C6  UNL     1      55.268  79.025  -1.947  1.00  0.00     0.027 C 
HETATM    8  C7  UNL     1      54.114  78.577  -2.745  1.00  0.00    -0.031 C 
HETATM    9  C8  UNL     1      54.090  78.246  -4.012  1.00  0.00    -0.029 C 
HETATM   10  C9  UNL     1      55.260  78.256  -4.933  1.00  0.00     0.053 C 
HETATM   11  C10 UNL     1      55.484  76.886  -5.549  1.00  0.00     0.183 C 
HETATM   12  O2  UNL     1      56.682  76.830  -6.174  1.00  0.00    -0.317 OA
HETATM   13  C11 UNL     1      57.785  77.535  -6.428  1.00  0.00     0.296 C 
HETATM   14  O3  UNL     1      58.005  78.259  -7.483  1.00  0.00    -0.259 OA
HETATM   15  C12 UNL     1      58.899  77.539  -5.476  1.00  0.00     0.081 A 
HETATM   16  C13 UNL     1      59.684  78.681  -5.362  1.00  0.00     0.085 A 
HETATM   17  C14 UNL     1      60.762  78.790  -4.511  1.00  0.00     0.076 A 
HETATM   18  C15 UNL     1      61.104  77.725  -3.719  1.00  0.00     0.090 A 
HETATM   19  C16 UNL     1      60.338  76.576  -3.814  1.00  0.00     0.075 A 
HETATM   20 CL1  UNL     1      60.822  75.221  -2.782  1.00  0.00    -0.081 Cl
HETATM   21  C17 UNL     1      59.249  76.484  -4.681  1.00  0.00    -0.008 A 
HETATM   22  C18 UNL     1      58.573  75.163  -4.617  1.00  0.00     0.119 C 
ENDROOT
BRANCH  16  23
HETATM   23  O4  UNL     1      59.380  79.807  -6.154  1.00  0.00    -0.360 OA
ATOM     24  H4  UNL     1      59.433  79.737  -7.100  1.00  0.00     0.217 HD
ENDBRANCH  16  23
BRANCH  18  25
HETATM   25  O5  UNL     1      62.188  77.771  -2.833  1.00  0.00    -0.359 OA
ATOM     26  H5  UNL     1      62.350  77.086  -2.195  1.00  0.00     0.217 HD
ENDBRANCH  18  25
TORSDOF 2
ENDMDL
