MODEL 4
REMARK VINA RESULT: -7.746653869      2.529      5.183
REMARK  2 active torsions:
REMARK  status: ('A' for Active; 'I' for Inactive)
REMARK    1  A    between atoms: C13_16  and  O4_17 
REMARK    2  A    between atoms: C15_20  and  O5_21 
ROOT
HETATM    1  O1  UNL     1      56.064  78.283  -2.174  1.00  0.00    -0.298 OA
HETATM    2  C1  UNL     1      56.582  77.789  -3.148  1.00  0.00     0.131 C 
HETATM    3  C2  UNL     1      57.366  76.545  -2.999  1.00  0.00     0.078 C 
HETATM    4  C3  UNL     1      57.983  76.431  -1.614  1.00  0.00     0.007 C 
HETATM    5  C4  UNL     1      59.375  75.843  -1.729  1.00  0.00     0.001 C 
HETATM    6  C5  UNL     1      59.347  74.609  -2.575  1.00  0.00     0.004 C 
HETATM    7  C6  UNL     1      60.516  74.542  -3.530  1.00  0.00     0.027 C 
HETATM    8  C7  UNL     1      61.498  75.626  -3.357  1.00  0.00    -0.031 C 
HETATM    9  C8  UNL     1      61.597  76.739  -4.040  1.00  0.00    -0.029 C 
HETATM   10  C9  UNL     1      60.711  77.149  -5.164  1.00  0.00     0.053 C 
HETATM   11  C10 UNL     1      60.047  78.486  -4.880  1.00  0.00     0.183 C 
HETATM   12  O2  UNL     1      59.059  78.730  -5.769  1.00  0.00    -0.317 OA
HETATM   13  C11 UNL     1      58.406  78.207  -6.808  1.00  0.00     0.296 C 
HETATM   14  O3  UNL     1      58.689  78.394  -8.062  1.00  0.00    -0.259 OA
HETATM   15  C12 UNL     1      57.251  77.332  -6.596  1.00  0.00     0.081 A 
HETATM   16  C13 UNL     1      57.002  76.310  -7.506  1.00  0.00     0.085 A 
HETATM   17  C14 UNL     1      55.939  75.440  -7.411  1.00  0.00     0.076 A 
HETATM   18  C15 UNL     1      55.058  75.565  -6.368  1.00  0.00     0.090 A 
HETATM   19  C16 UNL     1      55.284  76.574  -5.449  1.00  0.00     0.075 A 
HETATM   20 CL1  UNL     1      54.115  76.707  -4.125  1.00  0.00    -0.081 Cl
HETATM   21  C17 UNL     1      56.366  77.446  -5.560  1.00  0.00    -0.008 A 
HETATM   22  C18 UNL     1      56.413  78.448  -4.464  1.00  0.00     0.119 C 
ENDROOT
BRANCH  16  23
HETATM   23  O4  UNL     1      57.874  76.136  -8.600  1.00  0.00    -0.360 OA
ATOM     24  H4  UNL     1      58.098  75.256  -8.879  1.00  0.00     0.217 HD
ENDBRANCH  16  23
BRANCH  18  25
HETATM   25  O5  UNL     1      53.957  74.712  -6.214  1.00  0.00    -0.359 OA
ATOM     26  H5  UNL     1      53.071  74.988  -6.416  1.00  0.00     0.217 HD
ENDBRANCH  18  25
TORSDOF 2
ENDMDL
