MODEL 1
REMARK VINA RESULT: -9.112064209      0.000      0.000
REMARK  12 active torsions:
REMARK  status: ('A' for Active; 'I' for Inactive)
REMARK    1  A    between atoms: N1_4  and  C4_5 
REMARK    2  A    between atoms: C6_7  and  O1_8 
REMARK    3  A    between atoms: C7_10  and  C8_11 
REMARK    4  A    between atoms: C8_11  and  O2_12 
REMARK    5  A    between atoms: O2_12  and  P1_13 
REMARK    6  A    between atoms: P1_13  and  O5_16 
REMARK    7  A    between atoms: O5_16  and  P2_17 
REMARK    8  A    between atoms: P2_17  and  O8_20 
REMARK    9  A    between atoms: O8_20  and  C9_21 
REMARK   10  A    between atoms: C12_25  and  O10_26 
REMARK   11  A    between atoms: C13_28  and  O11_29 
REMARK   12  A    between atoms: C14_31  and  O12_32 
ROOT
HETATM    1  P1  UNL     1      -3.039  21.970  13.592  1.00  0.00     0.417 P 
HETATM    2  O3  UNL     1      -4.485  21.797  14.040  1.00  0.00    -0.624 OA
HETATM    3  O4  UNL     1      -3.027  21.760  11.915  1.00  0.00    -0.624 OA
ENDROOT
BRANCH   1   4
HETATM    4  O2  UNL     1      -2.148  20.755  14.360  1.00  0.00    -0.287 OA
BRANCH   4   5
HETATM    5  C8  UNL     1      -2.979  19.707  14.656  1.00  0.00     0.216 C 
BRANCH   5   6
HETATM    6  C7  UNL     1      -2.352  18.359  14.408  1.00  0.00     0.177 C 
HETATM    7  C6  UNL     1      -1.476  17.932  15.581  1.00  0.00     0.153 C 
HETATM    8  C5  UNL     1      -0.645  16.844  14.934  1.00  0.00     0.088 C 
HETATM    9  C4  UNL     1      -0.747  17.184  13.480  1.00  0.00     0.235 C 
HETATM   10  O13 UNL     1      -1.457  18.362  13.371  1.00  0.00    -0.356 OA
BRANCH   7  11
HETATM   11  O1  UNL     1      -2.249  17.439  16.630  1.00  0.00    -0.393 OA
ATOM     12  H1  UNL     1      -3.121  17.195  16.343  1.00  0.00     0.210 HD
ENDBRANCH   7  11
BRANCH   9  13
HETATM   13  N1  UNL     1       0.596  17.295  12.953  1.00  0.00    -0.282 N 
HETATM   14  C3  UNL     1       1.621  17.480  13.803  1.00  0.00     0.110 A 
HETATM   15  C2  UNL     1       2.926  17.592  13.342  1.00  0.00     0.022 A 
HETATM   16  C1  UNL     1       4.022  17.797  14.329  1.00  0.00     0.056 C 
HETATM   17  C16 UNL     1       3.178  17.510  11.992  1.00  0.00     0.256 A 
HETATM   18  N2  UNL     1       2.139  17.324  11.168  1.00  0.00    -0.275 N 
HETATM   19  O15 UNL     1       4.366  17.612  11.586  1.00  0.00    -0.267 OA
HETATM   20  C15 UNL     1       0.880  17.219  11.644  1.00  0.00     0.331 A 
ATOM     21  H2  UNL     1       2.301  17.260  10.164  1.00  0.00     0.173 HD
HETATM   22  O14 UNL     1      -0.077  17.046  10.851  1.00  0.00    -0.246 OA
ENDBRANCH   9  13
ENDBRANCH   5   6
ENDBRANCH   4   5
ENDBRANCH   1   4
BRANCH   1  23
HETATM   23  O5  UNL     1      -2.551  23.501  14.045  1.00  0.00    -0.180 OA
BRANCH  23  24
HETATM   24  P2  UNL     1      -0.911  23.782  13.793  1.00  0.00     0.420 P 
HETATM   25  O6  UNL     1      -0.763  24.737  12.606  1.00  0.00    -0.624 OA
HETATM   26  O7  UNL     1      -0.156  24.491  15.103  1.00  0.00    -0.624 OA
BRANCH  24  27
HETATM   27  O8  UNL     1      -0.193  22.323  13.330  1.00  0.00    -0.255 OA
BRANCH  27  28
HETATM   28  C9  UNL     1       0.245  22.326  12.026  1.00  0.00     0.304 C 
HETATM   29  O9  UNL     1       1.454  23.018  11.865  1.00  0.00    -0.350 OA
HETATM   30  C10 UNL     1       1.651  23.221  10.505  1.00  0.00     0.152 C 
HETATM   31  C11 UNL     1       2.812  24.145  10.248  1.00  0.00     0.042 C 
HETATM   32  C12 UNL     1       1.860  21.956   9.737  1.00  0.00     0.178 C 
HETATM   33  C13 UNL     1       0.738  21.000  10.029  1.00  0.00     0.183 C 
HETATM   34  C14 UNL     1       0.523  20.901  11.544  1.00  0.00     0.205 C 
BRANCH  32  35
HETATM   35  O10 UNL     1       1.824  22.263   8.376  1.00  0.00    -0.390 OA
ATOM     36  H10 UNL     1       0.959  22.047   8.047  1.00  0.00     0.210 HD
ENDBRANCH  32  35
BRANCH  33  37
HETATM   37  O11 UNL     1       1.022  19.777   9.467  1.00  0.00    -0.390 OA
ATOM     38  H11 UNL     1       0.222  19.269   9.396  1.00  0.00     0.210 HD
ENDBRANCH  33  37
BRANCH  34  39
HETATM   39  O12 UNL     1       1.700  20.409  12.085  1.00  0.00    -0.388 OA
ATOM     40  H12 UNL     1       1.765  19.469  11.969  1.00  0.00     0.210 HD
ENDBRANCH  34  39
ENDBRANCH  27  28
ENDBRANCH  24  27
ENDBRANCH  23  24
ENDBRANCH   1  23
TORSDOF 12
ENDMDL
