MODEL 2
REMARK VINA RESULT: -8.694040904      2.727      5.882
REMARK  12 active torsions:
REMARK  status: ('A' for Active; 'I' for Inactive)
REMARK    1  A    between atoms: N1_4  and  C4_5 
REMARK    2  A    between atoms: C6_7  and  O1_8 
REMARK    3  A    between atoms: C7_10  and  C8_11 
REMARK    4  A    between atoms: C8_11  and  O2_12 
REMARK    5  A    between atoms: O2_12  and  P1_13 
REMARK    6  A    between atoms: P1_13  and  O5_16 
REMARK    7  A    between atoms: O5_16  and  P2_17 
REMARK    8  A    between atoms: P2_17  and  O8_20 
REMARK    9  A    between atoms: O8_20  and  C9_21 
REMARK   10  A    between atoms: C12_25  and  O10_26 
REMARK   11  A    between atoms: C13_28  and  O11_29 
REMARK   12  A    between atoms: C14_31  and  O12_32 
ROOT
HETATM    1  P1  UNL     1       3.356  17.621  12.211  1.00  0.00     0.417 P 
HETATM    2  O3  UNL     1       2.873  17.128  10.852  1.00  0.00    -0.624 OA
HETATM    3  O4  UNL     1       5.023  17.348  12.257  1.00  0.00    -0.624 OA
ENDROOT
BRANCH   1   4
HETATM    4  O2  UNL     1       2.558  16.687  13.372  1.00  0.00    -0.287 OA
BRANCH   4   5
HETATM    5  C8  UNL     1       1.712  17.489  14.092  1.00  0.00     0.216 C 
BRANCH   5   6
HETATM    6  C7  UNL     1       0.269  17.058  14.014  1.00  0.00     0.177 C 
HETATM    7  C6  UNL     1      -0.308  17.306  12.625  1.00  0.00     0.153 C 
HETATM    8  C5  UNL     1      -1.792  17.235  12.917  1.00  0.00     0.088 C 
HETATM    9  C4  UNL     1      -1.844  17.520  14.386  1.00  0.00     0.235 C 
HETATM   10  O13 UNL     1      -0.562  17.807  14.806  1.00  0.00    -0.356 OA
BRANCH   7  11
HETATM   11  O1  UNL     1       0.092  16.314  11.732  1.00  0.00    -0.393 OA
ATOM     12  H1  UNL     1       0.932  15.940  11.972  1.00  0.00     0.210 HD
ENDBRANCH   7  11
BRANCH   9  13
HETATM   13  N1  UNL     1      -2.757  18.623  14.594  1.00  0.00    -0.282 N 
HETATM   14  C3  UNL     1      -2.956  19.505  13.600  1.00  0.00     0.110 A 
HETATM   15  C2  UNL     1      -3.823  20.579  13.755  1.00  0.00     0.022 A 
HETATM   16  C1  UNL     1      -4.004  21.527  12.621  1.00  0.00     0.056 C 
HETATM   17  C16 UNL     1      -4.491  20.745  14.947  1.00  0.00     0.256 A 
HETATM   18  N2  UNL     1      -4.274  19.850  15.919  1.00  0.00    -0.275 N 
HETATM   19  O15 UNL     1      -5.275  21.723  15.075  1.00  0.00    -0.267 OA
HETATM   20  C15 UNL     1      -3.426  18.816  15.741  1.00  0.00     0.331 A 
ATOM     21  H2  UNL     1      -4.759  19.953  16.811  1.00  0.00     0.173 HD
HETATM   22  O14 UNL     1      -3.239  17.991  16.669  1.00  0.00    -0.246 OA
ENDBRANCH   9  13
ENDBRANCH   5   6
ENDBRANCH   4   5
ENDBRANCH   1   4
BRANCH   1  23
HETATM   23  O5  UNL     1       2.972  19.242  12.323  1.00  0.00    -0.180 OA
BRANCH  23  24
HETATM   24  P2  UNL     1       4.143  20.152  13.119  1.00  0.00     0.420 P 
HETATM   25  O6  UNL     1       4.502  19.438  14.425  1.00  0.00    -0.624 OA
HETATM   26  O7  UNL     1       5.552  20.325  12.240  1.00  0.00    -0.624 OA
BRANCH  24  27
HETATM   27  O8  UNL     1       3.453  21.632  13.554  1.00  0.00    -0.255 OA
BRANCH  27  28
HETATM   28  C9  UNL     1       2.303  21.918  12.855  1.00  0.00     0.304 C 
HETATM   29  O9  UNL     1       1.475  22.829  13.527  1.00  0.00    -0.350 OA
HETATM   30  C10 UNL     1       0.235  22.820  12.902  1.00  0.00     0.152 C 
HETATM   31  C11 UNL     1      -0.784  23.602  13.687  1.00  0.00     0.042 C 
HETATM   32  C12 UNL     1       0.269  23.337  11.501  1.00  0.00     0.178 C 
HETATM   33  C13 UNL     1       1.323  22.604  10.720  1.00  0.00     0.183 C 
HETATM   34  C14 UNL     1       2.634  22.579  11.515  1.00  0.00     0.205 C 
BRANCH  32  35
HETATM   35  O10 UNL     1      -0.968  23.075  10.910  1.00  0.00    -0.390 OA
ATOM     36  H10 UNL     1      -0.863  23.127   9.967  1.00  0.00     0.210 HD
ENDBRANCH  32  35
BRANCH  33  37
HETATM   37  O11 UNL     1       1.477  23.200   9.490  1.00  0.00    -0.390 OA
ATOM     38  H11 UNL     1       1.819  22.565   8.872  1.00  0.00     0.210 HD
ENDBRANCH  33  37
BRANCH  34  39
HETATM   39  O12 UNL     1       3.023  23.898  11.689  1.00  0.00    -0.388 OA
ATOM     40  H12 UNL     1       3.142  24.334  10.854  1.00  0.00     0.210 HD
ENDBRANCH  34  39
ENDBRANCH  27  28
ENDBRANCH  24  27
ENDBRANCH  23  24
ENDBRANCH   1  23
TORSDOF 12
ENDMDL
