MODEL 3
REMARK VINA RESULT: -8.438109771      2.376      5.511
REMARK  12 active torsions:
REMARK  status: ('A' for Active; 'I' for Inactive)
REMARK    1  A    between atoms: N1_4  and  C4_5 
REMARK    2  A    between atoms: C6_7  and  O1_8 
REMARK    3  A    between atoms: C7_10  and  C8_11 
REMARK    4  A    between atoms: C8_11  and  O2_12 
REMARK    5  A    between atoms: O2_12  and  P1_13 
REMARK    6  A    between atoms: P1_13  and  O5_16 
REMARK    7  A    between atoms: O5_16  and  P2_17 
REMARK    8  A    between atoms: P2_17  and  O8_20 
REMARK    9  A    between atoms: O8_20  and  C9_21 
REMARK   10  A    between atoms: C12_25  and  O10_26 
REMARK   11  A    between atoms: C13_28  and  O11_29 
REMARK   12  A    between atoms: C14_31  and  O12_32 
ROOT
HETATM    1  P1  UNL     1       3.143  21.982  11.718  1.00  0.00     0.417 P 
HETATM    2  O3  UNL     1       2.258  21.112  10.834  1.00  0.00    -0.624 OA
HETATM    3  O4  UNL     1       3.663  23.271  10.756  1.00  0.00    -0.624 OA
ENDROOT
BRANCH   1   4
HETATM    4  O2  UNL     1       4.448  21.016  12.191  1.00  0.00    -0.287 OA
BRANCH   4   5
HETATM    5  C8  UNL     1       4.227  20.552  13.461  1.00  0.00     0.216 C 
BRANCH   5   6
HETATM    6  C7  UNL     1       3.751  19.121  13.499  1.00  0.00     0.177 C 
HETATM    7  C6  UNL     1       4.261  18.337  12.296  1.00  0.00     0.153 C 
HETATM    8  C5  UNL     1       3.326  17.145  12.317  1.00  0.00     0.088 C 
HETATM    9  C4  UNL     1       2.157  17.669  13.092  1.00  0.00     0.235 C 
HETATM   10  O13 UNL     1       2.393  19.001  13.364  1.00  0.00    -0.356 OA
BRANCH   7  11
HETATM   11  O1  UNL     1       5.589  17.955  12.472  1.00  0.00    -0.393 OA
ATOM     12  H1  UNL     1       6.191  18.599  12.118  1.00  0.00     0.210 HD
ENDBRANCH   7  11
BRANCH   9  13
HETATM   13  N1  UNL     1       0.967  17.467  12.295  1.00  0.00    -0.282 N 
HETATM   14  C3  UNL     1       1.094  17.101  11.008  1.00  0.00     0.110 A 
HETATM   15  C2  UNL     1      -0.020  16.896  10.205  1.00  0.00     0.022 A 
HETATM   16  C1  UNL     1       0.180  16.492   8.786  1.00  0.00     0.056 C 
HETATM   17  C16 UNL     1      -1.279  17.069  10.734  1.00  0.00     0.256 A 
HETATM   18  N2  UNL     1      -1.376  17.433  12.019  1.00  0.00    -0.275 N 
HETATM   19  O15 UNL     1      -2.282  16.881   9.996  1.00  0.00    -0.267 OA
HETATM   20  C15 UNL     1      -0.276  17.626  12.776  1.00  0.00     0.331 A 
ATOM     21  H2  UNL     1      -2.298  17.568  12.433  1.00  0.00     0.173 HD
HETATM   22  O14 UNL     1      -0.394  17.968  13.978  1.00  0.00    -0.246 OA
ENDBRANCH   9  13
ENDBRANCH   5   6
ENDBRANCH   4   5
ENDBRANCH   1   4
BRANCH   1  23
HETATM   23  O5  UNL     1       2.220  22.486  13.014  1.00  0.00    -0.180 OA
BRANCH  23  24
HETATM   24  P2  UNL     1       0.609  22.768  12.618  1.00  0.00     0.420 P 
HETATM   25  O6  UNL     1       0.013  23.711  13.666  1.00  0.00    -0.624 OA
HETATM   26  O7  UNL     1       0.416  23.492  11.126  1.00  0.00    -0.624 OA
BRANCH  24  27
HETATM   27  O8  UNL     1      -0.229  21.307  12.753  1.00  0.00    -0.255 OA
BRANCH  27  28
HETATM   28  C9  UNL     1      -1.594  21.458  12.691  1.00  0.00     0.304 C 
HETATM   29  O9  UNL     1      -2.217  20.445  11.948  1.00  0.00    -0.350 OA
HETATM   30  C10 UNL     1      -3.523  20.843  11.694  1.00  0.00     0.152 C 
HETATM   31  C11 UNL     1      -4.201  19.919  10.718  1.00  0.00     0.042 C 
HETATM   32  C12 UNL     1      -4.364  20.950  12.924  1.00  0.00     0.178 C 
HETATM   33  C13 UNL     1      -3.672  21.824  13.932  1.00  0.00     0.183 C 
HETATM   34  C14 UNL     1      -2.213  21.379  14.089  1.00  0.00     0.205 C 
BRANCH  32  35
HETATM   35  O10 UNL     1      -5.569  21.563  12.576  1.00  0.00    -0.390 OA
ATOM     36  H10 UNL     1      -6.272  21.109  13.025  1.00  0.00     0.210 HD
ENDBRANCH  32  35
BRANCH  33  37
HETATM   37  O11 UNL     1      -4.356  21.776  15.125  1.00  0.00    -0.390 OA
ATOM     38  H11 UNL     1      -4.274  22.612  15.569  1.00  0.00     0.210 HD
ENDBRANCH  33  37
BRANCH  34  39
HETATM   39  O12 UNL     1      -2.239  20.072  14.552  1.00  0.00    -0.388 OA
ATOM     40  H12 UNL     1      -1.991  19.461  13.868  1.00  0.00     0.210 HD
ENDBRANCH  34  39
ENDBRANCH  27  28
ENDBRANCH  24  27
ENDBRANCH  23  24
ENDBRANCH   1  23
TORSDOF 12
ENDMDL
