MODEL 1
REMARK VINA RESULT: -8.225977971      0.000      0.000
REMARK  5 active torsions:
REMARK  status: ('A' for Active; 'I' for Inactive)
REMARK    1  A    between atoms: C4_8  and  C5_9 
REMARK    2  A    between atoms: C5_9  and  C6_10 
REMARK    3  A    between atoms: C6_10  and  C7_11 
REMARK    4  A    between atoms: C7_11  and  C8_12 
REMARK    5  A    between atoms: C8_12  and  C9_13 
ROOT
HETATM    1  N1  UNL     1      36.906  12.366  -4.143  1.00  0.00    -0.064 NA
HETATM    2  C1  UNL     1      35.728  11.712  -4.639  1.00  0.00     0.184 C 
HETATM    3  N2  UNL     1      35.311  10.561  -4.252  1.00  0.00    -0.357 N 
ATOM      4  H2  UNL     1      35.770   9.981  -3.550  1.00  0.00     0.162 HD
HETATM    5  C2  UNL     1      34.093  10.199  -4.955  1.00  0.00     0.117 C 
HETATM    6  C3  UNL     1      32.980  10.412  -3.970  1.00  0.00     0.101 C 
HETATM    7  S1  UNL     1      31.620  10.870  -5.091  1.00  0.00    -0.160 SA
HETATM    8  C4  UNL     1      32.650  11.505  -6.473  1.00  0.00     0.072 C 
HETATM    9  C10 UNL     1      34.039  11.167  -6.053  1.00  0.00     0.121 C 
HETATM   10  N3  UNL     1      34.858  12.244  -5.628  1.00  0.00    -0.357 N 
ATOM     11  H3  UNL     1      34.829  13.206  -5.965  1.00  0.00     0.162 HD
ENDROOT
BRANCH   8  12
HETATM   12  C5  UNL     1      32.431  12.994  -6.511  1.00  0.00     0.017 C 
BRANCH  12  13
HETATM   13  C6  UNL     1      31.411  13.386  -7.554  1.00  0.00     0.002 C 
BRANCH  13  14
HETATM   14  C7  UNL     1      31.804  14.649  -8.269  1.00  0.00     0.010 C 
BRANCH  14  15
HETATM   15  C8  UNL     1      30.603  15.365  -8.769  1.00  0.00     0.113 C 
BRANCH  15  16
HETATM   16  C9  UNL     1      29.695  14.504  -9.518  1.00  0.00     0.172 C 
HETATM   17  O1  UNL     1      28.550  14.213  -9.101  1.00  0.00    -0.648 OA
HETATM   18  O2  UNL     1      30.026  13.936 -10.754  1.00  0.00    -0.648 OA
ENDBRANCH  15  16
ENDBRANCH  14  15
ENDBRANCH  13  14
ENDBRANCH  12  13
ENDBRANCH   8  12
TORSDOF 5
ENDMDL
