MODEL 2
REMARK VINA RESULT: -8.014530140      0.938      1.026
REMARK  5 active torsions:
REMARK  status: ('A' for Active; 'I' for Inactive)
REMARK    1  A    between atoms: C4_8  and  C5_9 
REMARK    2  A    between atoms: C5_9  and  C6_10 
REMARK    3  A    between atoms: C6_10  and  C7_11 
REMARK    4  A    between atoms: C7_11  and  C8_12 
REMARK    5  A    between atoms: C8_12  and  C9_13 
ROOT
HETATM    1  N1  UNL     1      36.962  12.357  -4.161  1.00  0.00    -0.064 NA
HETATM    2  C1  UNL     1      35.780  11.679  -4.614  1.00  0.00     0.184 C 
HETATM    3  N2  UNL     1      35.371  10.545  -4.171  1.00  0.00    -0.357 N 
ATOM      4  H2  UNL     1      35.840   9.999  -3.449  1.00  0.00     0.162 HD
HETATM    5  C2  UNL     1      34.147  10.149  -4.844  1.00  0.00     0.117 C 
HETATM    6  C3  UNL     1      33.044  10.403  -3.856  1.00  0.00     0.101 C 
HETATM    7  S1  UNL     1      31.671  10.807  -4.982  1.00  0.00    -0.160 SA
HETATM    8  C4  UNL     1      32.683  11.382  -6.403  1.00  0.00     0.072 C 
HETATM    9  C10 UNL     1      34.078  11.066  -5.983  1.00  0.00     0.121 C 
HETATM   10  N3  UNL     1      34.899  12.164  -5.617  1.00  0.00    -0.357 N 
ATOM     11  H3  UNL     1      34.863  13.110  -5.996  1.00  0.00     0.162 HD
ENDROOT
BRANCH   8  12
HETATM   12  C5  UNL     1      32.459  12.867  -6.505  1.00  0.00     0.017 C 
BRANCH  12  13
HETATM   13  C6  UNL     1      32.401  13.329  -7.941  1.00  0.00     0.002 C 
BRANCH  13  14
HETATM   14  C7  UNL     1      31.107  12.939  -8.599  1.00  0.00     0.010 C 
BRANCH  14  15
HETATM   15  C8  UNL     1      30.041  13.927  -8.292  1.00  0.00     0.113 C 
BRANCH  15  16
HETATM   16  C9  UNL     1      30.026  15.055  -9.216  1.00  0.00     0.172 C 
HETATM   17  O1  UNL     1      30.461  16.187  -8.899  1.00  0.00    -0.648 OA
HETATM   18  O2  UNL     1      29.528  14.968 -10.521  1.00  0.00    -0.648 OA
ENDBRANCH  15  16
ENDBRANCH  14  15
ENDBRANCH  13  14
ENDBRANCH  12  13
ENDBRANCH   8  12
TORSDOF 5
ENDMDL
