MODEL 4
REMARK VINA RESULT: -6.455921514      4.725      7.120
REMARK  5 active torsions:
REMARK  status: ('A' for Active; 'I' for Inactive)
REMARK    1  A    between atoms: C4_8  and  C5_9 
REMARK    2  A    between atoms: C5_9  and  C6_10 
REMARK    3  A    between atoms: C6_10  and  C7_11 
REMARK    4  A    between atoms: C7_11  and  C8_12 
REMARK    5  A    between atoms: C8_12  and  C9_13 
ROOT
HETATM    1  N1  UNL     1      26.792  12.160 -10.031  1.00  0.00    -0.064 NA
HETATM    2  C1  UNL     1      27.992  12.948 -10.073  1.00  0.00     0.184 C 
HETATM    3  N2  UNL     1      28.063  14.152 -10.514  1.00  0.00    -0.357 N 
ATOM      4  H2  UNL     1      27.275  14.683 -10.885  1.00  0.00     0.162 HD
HETATM    5  C2  UNL     1      29.422  14.652 -10.411  1.00  0.00     0.117 C 
HETATM    6  C3  UNL     1      29.421  15.582  -9.231  1.00  0.00     0.101 C 
HETATM    7  S1  UNL     1      31.129  15.372  -8.635  1.00  0.00    -0.160 SA
HETATM    8  C4  UNL     1      31.422  13.695  -9.324  1.00  0.00     0.072 C 
HETATM    9  C10 UNL     1      30.205  13.442 -10.147  1.00  0.00     0.121 C 
HETATM   10  N3  UNL     1      29.269  12.508  -9.634  1.00  0.00    -0.357 N 
ATOM     11  H3  UNL     1      29.472  11.686  -9.065  1.00  0.00     0.162 HD
ENDROOT
BRANCH   8  12
HETATM   12  C5  UNL     1      31.493  12.763  -8.144  1.00  0.00     0.017 C 
BRANCH  12  13
HETATM   13  C6  UNL     1      32.901  12.640  -7.609  1.00  0.00     0.002 C 
BRANCH  13  14
HETATM   14  C7  UNL     1      32.921  12.553  -6.109  1.00  0.00     0.010 C 
BRANCH  14  15
HETATM   15  C8  UNL     1      33.238  11.171  -5.666  1.00  0.00     0.113 C 
BRANCH  15  16
HETATM   16  C9  UNL     1      32.353  10.693  -4.612  1.00  0.00     0.172 C 
HETATM   17  O1  UNL     1      32.765  10.436  -3.456  1.00  0.00    -0.648 OA
HETATM   18  O2  UNL     1      30.983  10.481  -4.801  1.00  0.00    -0.648 OA
ENDBRANCH  15  16
ENDBRANCH  14  15
ENDBRANCH  13  14
ENDBRANCH  12  13
ENDBRANCH   8  12
TORSDOF 5
ENDMDL
