MODEL 5
REMARK VINA RESULT: -6.419198000      5.037      7.330
REMARK  5 active torsions:
REMARK  status: ('A' for Active; 'I' for Inactive)
REMARK    1  A    between atoms: C4_8  and  C5_9 
REMARK    2  A    between atoms: C5_9  and  C6_10 
REMARK    3  A    between atoms: C6_10  and  C7_11 
REMARK    4  A    between atoms: C7_11  and  C8_12 
REMARK    5  A    between atoms: C8_12  and  C9_13 
ROOT
HETATM    1  N1  UNL     1      26.792  12.146 -10.105  1.00  0.00    -0.064 NA
HETATM    2  C1  UNL     1      27.999  12.924 -10.118  1.00  0.00     0.184 C 
HETATM    3  N2  UNL     1      28.090  14.128 -10.556  1.00  0.00    -0.357 N 
ATOM      4  H2  UNL     1      27.314  14.665 -10.944  1.00  0.00     0.162 HD
HETATM    5  C2  UNL     1      29.450  14.616 -10.422  1.00  0.00     0.117 C 
HETATM    6  C3  UNL     1      29.430  15.545  -9.242  1.00  0.00     0.101 C 
HETATM    7  S1  UNL     1      31.122  15.321  -8.608  1.00  0.00    -0.160 SA
HETATM    8  C4  UNL     1      31.417  13.642  -9.292  1.00  0.00     0.072 C 
HETATM    9  C10 UNL     1      30.217  13.400 -10.143  1.00  0.00     0.121 C 
HETATM   10  N3  UNL     1      29.263  12.473  -9.652  1.00  0.00    -0.357 N 
ATOM     11  H3  UNL     1      29.446  11.649  -9.080  1.00  0.00     0.162 HD
ENDROOT
BRANCH   8  12
HETATM   12  C5  UNL     1      31.455  12.708  -8.112  1.00  0.00     0.017 C 
BRANCH  12  13
HETATM   13  C6  UNL     1      32.200  13.309  -6.944  1.00  0.00     0.002 C 
BRANCH  13  14
HETATM   14  C7  UNL     1      33.351  12.444  -6.514  1.00  0.00     0.010 C 
BRANCH  14  15
HETATM   15  C8  UNL     1      33.719  12.723  -5.102  1.00  0.00     0.113 C 
BRANCH  15  16
HETATM   16  C9  UNL     1      35.110  12.407  -4.801  1.00  0.00     0.172 C 
HETATM   17  O1  UNL     1      36.008  12.434  -5.675  1.00  0.00    -0.648 OA
HETATM   18  O2  UNL     1      35.554  12.049  -3.523  1.00  0.00    -0.648 OA
ENDBRANCH  15  16
ENDBRANCH  14  15
ENDBRANCH  13  14
ENDBRANCH  12  13
ENDBRANCH   8  12
TORSDOF 5
ENDMDL
