MODEL 6
REMARK VINA RESULT: -6.347157370      4.796      7.092
REMARK  5 active torsions:
REMARK  status: ('A' for Active; 'I' for Inactive)
REMARK    1  A    between atoms: C4_8  and  C5_9 
REMARK    2  A    between atoms: C5_9  and  C6_10 
REMARK    3  A    between atoms: C6_10  and  C7_11 
REMARK    4  A    between atoms: C7_11  and  C8_12 
REMARK    5  A    between atoms: C8_12  and  C9_13 
ROOT
HETATM    1  N1  UNL     1      27.256  13.029  -9.974  1.00  0.00    -0.064 NA
HETATM    2  C1  UNL     1      28.631  13.407  -9.805  1.00  0.00     0.184 C 
HETATM    3  N2  UNL     1      29.182  14.430 -10.350  1.00  0.00    -0.357 N 
ATOM      4  H2  UNL     1      28.705  15.089 -10.965  1.00  0.00     0.162 HD
HETATM    5  C2  UNL     1      30.580  14.518  -9.969  1.00  0.00     0.117 C 
HETATM    6  C3  UNL     1      30.650  15.613  -8.943  1.00  0.00     0.101 C 
HETATM    7  S1  UNL     1      32.036  15.027  -7.919  1.00  0.00    -0.160 SA
HETATM    8  C4  UNL     1      31.891  13.239  -8.314  1.00  0.00     0.072 C 
HETATM    9  C10 UNL     1      30.851  13.205  -9.380  1.00  0.00     0.121 C 
HETATM   10  N3  UNL     1      29.576  12.701  -9.013  1.00  0.00    -0.357 N 
ATOM     11  H3  UNL     1      29.378  11.979  -8.321  1.00  0.00     0.162 HD
ENDROOT
BRANCH   8  12
HETATM   12  C5  UNL     1      31.413  12.568  -7.054  1.00  0.00     0.017 C 
BRANCH  12  13
HETATM   13  C6  UNL     1      32.523  11.806  -6.368  1.00  0.00     0.002 C 
BRANCH  13  14
HETATM   14  C7  UNL     1      31.992  10.647  -5.572  1.00  0.00     0.010 C 
BRANCH  14  15
HETATM   15  C8  UNL     1      32.528  10.672  -4.186  1.00  0.00     0.113 C 
BRANCH  15  16
HETATM   16  C9  UNL     1      33.982  10.579  -4.135  1.00  0.00     0.172 C 
HETATM   17  O1  UNL     1      34.597   9.527  -4.428  1.00  0.00    -0.648 OA
HETATM   18  O2  UNL     1      34.803  11.647  -3.758  1.00  0.00    -0.648 OA
ENDBRANCH  15  16
ENDBRANCH  14  15
ENDBRANCH  13  14
ENDBRANCH  12  13
ENDBRANCH   8  12
TORSDOF 5
ENDMDL
