MODEL 10
REMARK VINA RESULT: -5.305814026      1.909      4.009
REMARK  3 active torsions:
REMARK  status: ('A' for Active; 'I' for Inactive)
REMARK    1  A    between atoms: C1_2  and  C2_4 
REMARK    2  A    between atoms: C2_4  and  O3_5 
REMARK    3  A    between atoms: O3_5  and  P1_6 
ROOT
HETATM    1  O3  UNL     1      13.727   7.614   7.310  1.00  0.00    -0.272 OA
ENDROOT
BRANCH   1   2
HETATM    2  C2  UNL     1      14.770   8.403   6.941  1.00  0.00     0.295 C 
BRANCH   2   3
HETATM    3  C1  UNL     1      16.018   7.625   7.161  1.00  0.00     0.198 C 
HETATM    4  O1  UNL     1      16.217   6.944   8.215  1.00  0.00    -0.646 OA
HETATM    5  O2  UNL     1      17.042   7.598   6.227  1.00  0.00    -0.646 OA
ENDBRANCH   2   3
ENDBRANCH   1   2
BRANCH   1   6
HETATM    6  P1  UNL     1      13.352   6.628   6.019  1.00  0.00     0.422 P 
HETATM    7  O4  UNL     1      11.996   6.317   6.636  1.00  0.00    -0.617 OA
HETATM    8  O5  UNL     1      12.738   7.223   4.644  1.00  0.00    -0.617 OA
HETATM    9  O6  UNL     1      13.803   5.022   6.068  1.00  0.00    -0.617 OA
ENDBRANCH   1   6
TORSDOF 3
ENDMDL
