MODEL 7
REMARK VINA RESULT: -5.406415456      1.959      4.164
REMARK  3 active torsions:
REMARK  status: ('A' for Active; 'I' for Inactive)
REMARK    1  A    between atoms: C1_2  and  C2_4 
REMARK    2  A    between atoms: C2_4  and  O3_5 
REMARK    3  A    between atoms: O3_5  and  P1_6 
ROOT
HETATM    1  O3  UNL     1      13.209   7.719   6.344  1.00  0.00    -0.272 OA
ENDROOT
BRANCH   1   2
HETATM    2  C2  UNL     1      14.561   7.852   6.384  1.00  0.00     0.295 C 
BRANCH   2   3
HETATM    3  C1  UNL     1      14.967   7.849   7.815  1.00  0.00     0.198 C 
HETATM    4  O1  UNL     1      14.555   8.723   8.640  1.00  0.00    -0.646 OA
HETATM    5  O2  UNL     1      15.822   6.889   8.334  1.00  0.00    -0.646 OA
ENDBRANCH   2   3
ENDBRANCH   1   2
BRANCH   1   6
HETATM    6  P1  UNL     1      12.862   6.111   6.072  1.00  0.00     0.422 P 
HETATM    7  O4  UNL     1      12.865   6.352   4.570  1.00  0.00    -0.617 OA
HETATM    8  O5  UNL     1      14.025   4.986   6.028  1.00  0.00    -0.617 OA
HETATM    9  O6  UNL     1      11.267   5.620   6.045  1.00  0.00    -0.617 OA
ENDBRANCH   1   6
TORSDOF 3
ENDMDL
