MODEL 8
REMARK VINA RESULT: -5.357630173      1.973      4.050
REMARK  3 active torsions:
REMARK  status: ('A' for Active; 'I' for Inactive)
REMARK    1  A    between atoms: C1_2  and  C2_4 
REMARK    2  A    between atoms: C2_4  and  O3_5 
REMARK    3  A    between atoms: O3_5  and  P1_6 
ROOT
HETATM    1  O3  UNL     1      13.247   7.691   6.342  1.00  0.00    -0.272 OA
ENDROOT
BRANCH   1   2
HETATM    2  C2  UNL     1      14.601   7.801   6.380  1.00  0.00     0.295 C 
BRANCH   2   3
HETATM    3  C1  UNL     1      15.009   7.803   7.810  1.00  0.00     0.198 C 
HETATM    4  O1  UNL     1      15.803   6.937   8.291  1.00  0.00    -0.646 OA
HETATM    5  O2  UNL     1      14.544   8.754   8.705  1.00  0.00    -0.646 OA
ENDBRANCH   2   3
ENDBRANCH   1   2
BRANCH   1   6
HETATM    6  P1  UNL     1      12.872   6.088   6.074  1.00  0.00     0.422 P 
HETATM    7  O4  UNL     1      12.868   6.328   4.572  1.00  0.00    -0.617 OA
HETATM    8  O5  UNL     1      14.016   4.944   6.023  1.00  0.00    -0.617 OA
HETATM    9  O6  UNL     1      11.269   5.623   6.059  1.00  0.00    -0.617 OA
ENDBRANCH   1   6
TORSDOF 3
ENDMDL
