MODEL 10
REMARK VINA RESULT: -8.461768982      3.103      7.951
REMARK  5 active torsions:
REMARK  status: ('A' for Active; 'I' for Inactive)
REMARK    1  A    between atoms: C2_2  and  C3_3 
REMARK    2  A    between atoms: C2_2  and  N2_11 
REMARK       I    between atoms: C3_3  and  N1_5 
REMARK    3  A    between atoms: C10_14  and  N3_15 
REMARK    4  A    between atoms: N3_15  and  S1_17 
REMARK    5  A    between atoms: S1_17  and  C11_20 
ROOT
HETATM    1  N2  UNL     1       6.160   5.343  21.079  1.00  0.00    -0.337 N 
HETATM    2  C8  UNL     1       4.749   5.635  21.195  1.00  0.00     0.129 C 
HETATM    3  C9  UNL     1       4.750   7.149  20.941  1.00  0.00     0.055 C 
HETATM    4  C10 UNL     1       5.913   7.570  21.841  1.00  0.00     0.186 C 
HETATM    5  C19 UNL     1       6.873   6.440  21.587  1.00  0.00     0.244 C 
HETATM    6  O5  UNL     1       8.113   6.456  21.792  1.00  0.00    -0.271 OA
ENDROOT
BRANCH   4   7
HETATM    7  N3  UNL     1       6.502   8.808  21.433  1.00  0.00    -0.300 N 
ATOM      8  H3  UNL     1       6.698   9.038  20.459  1.00  0.00     0.173 HD
BRANCH   7   9
HETATM    9  S1  UNL     1       6.848   9.865  22.731  1.00  0.00     0.275 S 
HETATM   10  O3  UNL     1       5.622  10.102  23.572  1.00  0.00    -0.199 OA
HETATM   11  O4  UNL     1       7.236  11.207  22.128  1.00  0.00    -0.199 OA
BRANCH   9  12
HETATM   12  C11 UNL     1       8.137   9.312  23.749  1.00  0.00     0.150 A 
HETATM   13  C12 UNL     1       9.506   9.418  23.566  1.00  0.00     0.057 A 
HETATM   14  C13 UNL     1      10.157   8.833  24.635  1.00  0.00    -0.005 A 
HETATM   15  C14 UNL     1      11.475   8.643  24.994  1.00  0.00     0.037 A 
HETATM   16  C18 UNL     1       9.145   8.375  25.462  1.00  0.00     0.043 A 
HETATM   17  C15 UNL     1      11.846   8.004  26.159  1.00  0.00     0.035 A 
HETATM   18 CL1  UNL     1      13.500   7.753  26.630  1.00  0.00    -0.084 Cl
HETATM   19  C16 UNL     1      10.824   7.547  26.983  1.00  0.00     0.026 A 
HETATM   20  C17 UNL     1       9.509   7.737  26.626  1.00  0.00     0.032 A 
HETATM   21  N4  UNL     1       7.955   8.672  24.912  1.00  0.00    -0.345 N 
ATOM     22  H4  UNL     1       7.048   8.445  25.320  1.00  0.00     0.167 HD
ENDBRANCH   9  12
ENDBRANCH   7   9
ENDBRANCH   4   7
BRANCH   1  23
HETATM   23  C2  UNL     1       6.655   4.090  20.515  1.00  0.00     0.175 C 
HETATM   24  C1  UNL     1       5.543   3.067  20.768  1.00  0.00     0.042 C 
BRANCH  23  25
HETATM   25  C3  UNL     1       6.881   4.178  19.085  1.00  0.00     0.242 C 
HETATM   26  O1  UNL     1       6.471   5.203  18.482  1.00  0.00    -0.271 OA
HETATM   27  N1  UNL     1       7.531   3.179  18.359  1.00  0.00    -0.346 N 
HETATM   28  C4  UNL     1       8.029   1.986  18.994  1.00  0.00     0.152 C 
HETATM   29  C7  UNL     1       7.722   3.346  16.900  1.00  0.00     0.152 C 
HETATM   30  C5  UNL     1       9.392   1.611  18.416  1.00  0.00     0.187 C 
HETATM   31  O2  UNL     1       9.351   1.660  17.014  1.00  0.00    -0.388 OA
HETATM   32  C6  UNL     1       9.189   2.997  16.658  1.00  0.00     0.187 C 
ENDBRANCH  23  25
ENDBRANCH   1  23
TORSDOF 5
ENDMDL
