MODEL 2
REMARK VINA RESULT: -8.915451717      1.572      1.807
REMARK  5 active torsions:
REMARK  status: ('A' for Active; 'I' for Inactive)
REMARK    1  A    between atoms: C2_2  and  C3_3 
REMARK    2  A    between atoms: C2_2  and  N2_11 
REMARK       I    between atoms: C3_3  and  N1_5 
REMARK    3  A    between atoms: C10_14  and  N3_15 
REMARK    4  A    between atoms: N3_15  and  S1_17 
REMARK    5  A    between atoms: S1_17  and  C11_20 
ROOT
HETATM    1  N2  UNL     1       8.061   9.234  22.680  1.00  0.00    -0.337 N 
HETATM    2  C8  UNL     1       6.920  10.092  22.914  1.00  0.00     0.129 C 
HETATM    3  C9  UNL     1       5.780   9.192  22.418  1.00  0.00     0.055 C 
HETATM    4  C10 UNL     1       6.381   8.702  21.100  1.00  0.00     0.186 C 
HETATM    5  C19 UNL     1       7.810   8.489  21.517  1.00  0.00     0.244 C 
HETATM    6  O5  UNL     1       8.657   7.766  20.932  1.00  0.00    -0.271 OA
ENDROOT
BRANCH   4   7
HETATM    7  N3  UNL     1       5.813   7.463  20.665  1.00  0.00    -0.300 N 
ATOM      8  H3  UNL     1       5.406   6.781  21.305  1.00  0.00     0.173 HD
BRANCH   7   9
HETATM    9  S1  UNL     1       5.879   7.234  18.972  1.00  0.00     0.275 S 
HETATM   10  O3  UNL     1       6.412   8.462  18.284  1.00  0.00    -0.199 OA
HETATM   11  O4  UNL     1       4.449   7.042  18.488  1.00  0.00    -0.199 OA
BRANCH   9  12
HETATM   12  C11 UNL     1       6.823   5.861  18.497  1.00  0.00     0.150 A 
HETATM   13  C12 UNL     1       7.579   5.002  19.279  1.00  0.00     0.057 A 
HETATM   14  C13 UNL     1       8.165   4.045  18.472  1.00  0.00    -0.005 A 
HETATM   15  C14 UNL     1       8.996   2.964  18.680  1.00  0.00     0.037 A 
HETATM   16  C18 UNL     1       7.741   4.351  17.190  1.00  0.00     0.043 A 
HETATM   17  C15 UNL     1       9.438   2.156  17.654  1.00  0.00     0.035 A 
HETATM   18 CL1  UNL     1      10.486   0.790  17.895  1.00  0.00    -0.084 Cl
HETATM   19  C16 UNL     1       9.009   2.470  16.370  1.00  0.00     0.026 A 
HETATM   20  C17 UNL     1       8.179   3.548  16.162  1.00  0.00     0.032 A 
HETATM   21  N4  UNL     1       6.946   5.434  17.232  1.00  0.00    -0.345 N 
ATOM     22  H4  UNL     1       6.501   5.866  16.422  1.00  0.00     0.167 HD
ENDBRANCH   9  12
ENDBRANCH   7   9
ENDBRANCH   4   7
BRANCH   1  23
HETATM   23  C2  UNL     1       9.224   9.221  23.561  1.00  0.00     0.175 C 
HETATM   24  C1  UNL     1       9.466  10.688  23.930  1.00  0.00     0.042 C 
BRANCH  23  25
HETATM   25  C3  UNL     1       8.985   8.476  24.783  1.00  0.00     0.242 C 
HETATM   26  O1  UNL     1       7.858   7.938  24.938  1.00  0.00    -0.271 OA
HETATM   27  N1  UNL     1       9.948   8.331  25.782  1.00  0.00    -0.346 N 
HETATM   28  C4  UNL     1      11.258   8.917  25.660  1.00  0.00     0.152 C 
HETATM   29  C7  UNL     1       9.623   7.553  27.000  1.00  0.00     0.152 C 
HETATM   30  C5  UNL     1      12.319   7.948  26.178  1.00  0.00     0.187 C 
HETATM   31  O2  UNL     1      11.929   7.427  27.422  1.00  0.00    -0.388 OA
HETATM   32  C6  UNL     1      10.816   6.620  27.194  1.00  0.00     0.187 C 
ENDBRANCH  23  25
ENDBRANCH   1  23
TORSDOF 5
ENDMDL
