MODEL 8
REMARK VINA RESULT: -8.590478629      3.154      7.929
REMARK  5 active torsions:
REMARK  status: ('A' for Active; 'I' for Inactive)
REMARK    1  A    between atoms: C2_2  and  C3_3 
REMARK    2  A    between atoms: C2_2  and  N2_11 
REMARK       I    between atoms: C3_3  and  N1_5 
REMARK    3  A    between atoms: C10_14  and  N3_15 
REMARK    4  A    between atoms: N3_15  and  S1_17 
REMARK    5  A    between atoms: S1_17  and  C11_20 
ROOT
HETATM    1  N2  UNL     1       5.281   6.408  19.938  1.00  0.00    -0.337 N 
HETATM    2  C8  UNL     1       4.241   7.411  19.884  1.00  0.00     0.129 C 
HETATM    3  C9  UNL     1       5.063   8.686  20.117  1.00  0.00     0.055 C 
HETATM    4  C10 UNL     1       5.926   8.236  21.297  1.00  0.00     0.186 C 
HETATM    5  C19 UNL     1       6.234   6.823  20.882  1.00  0.00     0.244 C 
HETATM    6  O5  UNL     1       7.184   6.114  21.301  1.00  0.00    -0.271 OA
ENDROOT
BRANCH   4   7
HETATM    7  N3  UNL     1       7.140   8.984  21.406  1.00  0.00    -0.300 N 
ATOM      8  H3  UNL     1       7.854   8.999  20.678  1.00  0.00     0.173 HD
BRANCH   7   9
HETATM    9  S1  UNL     1       7.281   9.853  22.872  1.00  0.00     0.275 S 
HETATM   10  O3  UNL     1       5.984   9.834  23.634  1.00  0.00    -0.199 OA
HETATM   11  O4  UNL     1       7.560  11.304  22.509  1.00  0.00    -0.199 OA
BRANCH   9  12
HETATM   12  C11 UNL     1       8.553   9.275  23.898  1.00  0.00     0.150 A 
HETATM   13  C12 UNL     1       9.925   9.381  23.739  1.00  0.00     0.057 A 
HETATM   14  C13 UNL     1      10.557   8.771  24.807  1.00  0.00    -0.005 A 
HETATM   15  C14 UNL     1      11.869   8.570  25.182  1.00  0.00     0.037 A 
HETATM   16  C18 UNL     1       9.531   8.300  25.607  1.00  0.00     0.043 A 
HETATM   17  C15 UNL     1      12.219   7.906  26.340  1.00  0.00     0.035 A 
HETATM   18 CL1  UNL     1      13.865   7.640  26.831  1.00  0.00    -0.084 Cl
HETATM   19  C16 UNL     1      11.183   7.435  27.137  1.00  0.00     0.026 A 
HETATM   20  C17 UNL     1       9.874   7.637  26.764  1.00  0.00     0.032 A 
HETATM   21  N4  UNL     1       8.351   8.612  25.045  1.00  0.00    -0.345 N 
ATOM     22  H4  UNL     1       7.437   8.379  25.434  1.00  0.00     0.167 HD
ENDBRANCH   9  12
ENDBRANCH   7   9
ENDBRANCH   4   7
BRANCH   1  23
HETATM   23  C2  UNL     1       5.250   5.204  19.113  1.00  0.00     0.175 C 
HETATM   24  C1  UNL     1       4.020   5.364  18.213  1.00  0.00     0.042 C 
BRANCH  23  25
HETATM   25  C3  UNL     1       6.423   5.082  18.267  1.00  0.00     0.242 C 
HETATM   26  O1  UNL     1       6.805   6.100  17.634  1.00  0.00    -0.271 OA
HETATM   27  N1  UNL     1       7.138   3.892  18.132  1.00  0.00    -0.346 N 
HETATM   28  C4  UNL     1       6.755   2.696  18.836  1.00  0.00     0.152 C 
HETATM   29  C7  UNL     1       8.326   3.852  17.248  1.00  0.00     0.152 C 
HETATM   30  C5  UNL     1       7.993   1.970  19.356  1.00  0.00     0.187 C 
HETATM   31  O2  UNL     1       8.957   1.872  18.340  1.00  0.00    -0.388 OA
HETATM   32  C6  UNL     1       9.406   3.165  18.080  1.00  0.00     0.187 C 
ENDBRANCH  23  25
ENDBRANCH   1  23
TORSDOF 5
ENDMDL
