MODEL 12
REMARK VINA RESULT: -8.380254004      3.188      7.782
REMARK  5 active torsions:
REMARK  status: ('A' for Active; 'I' for Inactive)
REMARK    1  A    between atoms: C2_2  and  C3_3 
REMARK    2  A    between atoms: C2_2  and  N2_11 
REMARK       I    between atoms: C3_3  and  N1_5 
REMARK    3  A    between atoms: C10_14  and  N3_15 
REMARK    4  A    between atoms: N3_15  and  S1_17 
REMARK    5  A    between atoms: S1_17  and  C11_20 
ROOT
HETATM    1  N2  UNL     1       6.070   4.961  21.228  1.00  0.00    -0.337 N 
HETATM    2  C8  UNL     1       4.693   4.816  21.646  1.00  0.00     0.129 C 
HETATM    3  C9  UNL     1       4.154   6.221  21.346  1.00  0.00     0.055 C 
HETATM    4  C10 UNL     1       5.275   7.071  21.948  1.00  0.00     0.186 C 
HETATM    5  C19 UNL     1       6.477   6.271  21.526  1.00  0.00     0.244 C 
HETATM    6  O5  UNL     1       7.660   6.690  21.447  1.00  0.00    -0.271 OA
ENDROOT
BRANCH   4   7
HETATM    7  N3  UNL     1       5.338   8.380  21.375  1.00  0.00    -0.300 N 
ATOM      8  H3  UNL     1       5.155   8.568  20.389  1.00  0.00     0.173 HD
BRANCH   7   9
HETATM    9  S1  UNL     1       5.751   9.602  22.498  1.00  0.00     0.275 S 
HETATM   10  O3  UNL     1       4.606   9.881  23.434  1.00  0.00    -0.199 OA
HETATM   11  O4  UNL     1       5.995  10.878  21.705  1.00  0.00    -0.199 OA
BRANCH   9  12
HETATM   12  C11 UNL     1       7.169   9.238  23.426  1.00  0.00     0.150 A 
HETATM   13  C12 UNL     1       7.280   8.567  24.633  1.00  0.00     0.057 A 
HETATM   14  C13 UNL     1       8.609   8.509  25.004  1.00  0.00    -0.005 A 
HETATM   15  C14 UNL     1       9.306   7.983  26.072  1.00  0.00     0.037 A 
HETATM   16  C18 UNL     1       9.291   9.160  23.990  1.00  0.00     0.043 A 
HETATM   17  C15 UNL     1      10.678   8.076  26.185  1.00  0.00     0.035 A 
HETATM   18 CL1  UNL     1      11.574   7.421  27.523  1.00  0.00    -0.084 Cl
HETATM   19  C16 UNL     1      11.354   8.731  25.164  1.00  0.00     0.026 A 
HETATM   20  C17 UNL     1      10.660   9.255  24.097  1.00  0.00     0.032 A 
HETATM   21  N4  UNL     1       8.413   9.583  23.065  1.00  0.00    -0.345 N 
ATOM     22  H4  UNL     1       8.656  10.091  22.215  1.00  0.00     0.167 HD
ENDBRANCH   9  12
ENDBRANCH   7   9
ENDBRANCH   4   7
BRANCH   1  23
HETATM   23  C2  UNL     1       6.819   3.870  20.613  1.00  0.00     0.175 C 
HETATM   24  C1  UNL     1       6.322   2.598  21.308  1.00  0.00     0.042 C 
BRANCH  23  25
HETATM   25  C3  UNL     1       6.555   3.749  19.192  1.00  0.00     0.242 C 
HETATM   26  O1  UNL     1       5.505   4.273  18.738  1.00  0.00    -0.271 OA
HETATM   27  N1  UNL     1       7.412   3.081  18.317  1.00  0.00    -0.346 N 
HETATM   28  C4  UNL     1       8.631   2.467  18.775  1.00  0.00     0.152 C 
HETATM   29  C7  UNL     1       7.069   3.003  16.878  1.00  0.00     0.152 C 
HETATM   30  C5  UNL     1       9.755   2.712  17.770  1.00  0.00     0.187 C 
HETATM   31  O2  UNL     1       9.308   2.431  16.469  1.00  0.00    -0.388 OA
HETATM   32  C6  UNL     1       8.353   3.394  16.150  1.00  0.00     0.187 C 
ENDBRANCH  23  25
ENDBRANCH   1  23
TORSDOF 5
ENDMDL
