MODEL 1
REMARK VINA RESULT: -9.419172549      0.000      0.000
REMARK  5 active torsions:
REMARK  status: ('A' for Active; 'I' for Inactive)
REMARK    1  A    between atoms: C2_2  and  C3_3 
REMARK    2  A    between atoms: C2_2  and  N2_11 
REMARK       I    between atoms: C3_3  and  N1_5 
REMARK    3  A    between atoms: C10_14  and  N3_15 
REMARK    4  A    between atoms: N3_15  and  S1_17 
REMARK    5  A    between atoms: S1_17  and  C11_20 
ROOT
HETATM    1  N2  UNL     1       7.195   8.495  22.607  1.00  0.00    -0.337 N 
HETATM    2  C8  UNL     1       6.037   9.343  22.432  1.00  0.00     0.129 C 
HETATM    3  C9  UNL     1       4.908   8.309  22.539  1.00  0.00     0.055 C 
HETATM    4  C10 UNL     1       5.463   7.213  21.628  1.00  0.00     0.186 C 
HETATM    5  C19 UNL     1       6.917   7.255  22.010  1.00  0.00     0.244 C 
HETATM    6  O5  UNL     1       7.761   6.339  21.832  1.00  0.00    -0.271 OA
ENDROOT
BRANCH   4   7
HETATM    7  N3  UNL     1       4.920   5.924  21.927  1.00  0.00    -0.300 N 
ATOM      8  H3  UNL     1       4.753   5.596  22.878  1.00  0.00     0.173 HD
BRANCH   7   9
HETATM    9  S1  UNL     1       4.576   4.985  20.540  1.00  0.00     0.275 S 
HETATM   10  O3  UNL     1       3.927   5.822  19.472  1.00  0.00    -0.199 OA
HETATM   11  O4  UNL     1       3.560   3.929  20.952  1.00  0.00    -0.199 OA
BRANCH   9  12
HETATM   12  C11 UNL     1       5.969   4.196  19.877  1.00  0.00     0.150 A 
HETATM   13  C12 UNL     1       6.341   2.863  19.951  1.00  0.00     0.057 A 
HETATM   14  C13 UNL     1       7.532   2.683  19.274  1.00  0.00    -0.005 A 
HETATM   15  C14 UNL     1       8.359   1.609  19.016  1.00  0.00     0.037 A 
HETATM   16  C18 UNL     1       7.863   3.938  18.793  1.00  0.00     0.043 A 
HETATM   17  C15 UNL     1       9.525   1.724  18.288  1.00  0.00     0.035 A 
HETATM   18 CL1  UNL     1      10.580   0.385  17.951  1.00  0.00    -0.084 Cl
HETATM   19  C16 UNL     1       9.850   2.988  17.809  1.00  0.00     0.026 A 
HETATM   20  C17 UNL     1       9.026   4.059  18.066  1.00  0.00     0.032 A 
HETATM   21  N4  UNL     1       6.918   4.819  19.165  1.00  0.00    -0.345 N 
ATOM     22  H4  UNL     1       6.923   5.813  18.939  1.00  0.00     0.167 HD
ENDBRANCH   9  12
ENDBRANCH   7   9
ENDBRANCH   4   7
BRANCH   1  23
HETATM   23  C2  UNL     1       8.398   8.946  23.299  1.00  0.00     0.175 C 
HETATM   24  C1  UNL     1       8.293  10.474  23.335  1.00  0.00     0.042 C 
BRANCH  23  25
HETATM   25  C3  UNL     1       8.467   8.460  24.665  1.00  0.00     0.242 C 
HETATM   26  O1  UNL     1       7.433   7.945  25.163  1.00  0.00    -0.271 OA
HETATM   27  N1  UNL     1       9.625   8.538  25.439  1.00  0.00    -0.346 N 
HETATM   28  C4  UNL     1      10.842   9.110  24.922  1.00  0.00     0.152 C 
HETATM   29  C7  UNL     1       9.612   8.017  26.825  1.00  0.00     0.152 C 
HETATM   30  C5  UNL     1      12.045   8.286  25.375  1.00  0.00     0.187 C 
HETATM   31  O2  UNL     1      11.958   8.021  26.751  1.00  0.00    -0.388 OA
HETATM   32  C6  UNL     1      10.874   7.164  26.932  1.00  0.00     0.187 C 
ENDBRANCH  23  25
ENDBRANCH   1  23
TORSDOF 5
ENDMDL
