MODEL 3
REMARK VINA RESULT: -8.860676640      2.052      3.817
REMARK  5 active torsions:
REMARK  status: ('A' for Active; 'I' for Inactive)
REMARK    1  A    between atoms: C2_2  and  C3_3 
REMARK    2  A    between atoms: C2_2  and  N2_11 
REMARK       I    between atoms: C3_3  and  N1_5 
REMARK    3  A    between atoms: C10_14  and  N3_15 
REMARK    4  A    between atoms: N3_15  and  S1_17 
REMARK    5  A    between atoms: S1_17  and  C11_20 
ROOT
HETATM    1  N2  UNL     1       6.197   8.761  23.684  1.00  0.00    -0.337 N 
HETATM    2  C8  UNL     1       4.934   8.971  24.356  1.00  0.00     0.129 C 
HETATM    3  C9  UNL     1       4.503   7.521  24.614  1.00  0.00     0.055 C 
HETATM    4  C10 UNL     1       4.791   6.908  23.242  1.00  0.00     0.186 C 
HETATM    5  C19 UNL     1       6.084   7.598  22.905  1.00  0.00     0.244 C 
HETATM    6  O5  UNL     1       6.936   7.213  22.064  1.00  0.00    -0.271 OA
ENDROOT
BRANCH   4   7
HETATM    7  N3  UNL     1       4.997   5.495  23.305  1.00  0.00    -0.300 N 
ATOM      8  H3  UNL     1       5.412   5.027  24.111  1.00  0.00     0.173 HD
BRANCH   7   9
HETATM    9  S1  UNL     1       4.483   4.663  21.903  1.00  0.00     0.275 S 
HETATM   10  O3  UNL     1       3.593   5.533  21.058  1.00  0.00    -0.199 OA
HETATM   11  O4  UNL     1       3.638   3.484  22.364  1.00  0.00    -0.199 OA
BRANCH   9  12
HETATM   12  C11 UNL     1       5.790   4.071  20.931  1.00  0.00     0.150 A 
HETATM   13  C12 UNL     1       6.250   2.773  20.775  1.00  0.00     0.057 A 
HETATM   14  C13 UNL     1       7.319   2.770  19.899  1.00  0.00    -0.005 A 
HETATM   15  C14 UNL     1       8.154   1.804  19.378  1.00  0.00     0.037 A 
HETATM   16  C18 UNL     1       7.487   4.095  19.536  1.00  0.00     0.043 A 
HETATM   17  C15 UNL     1       9.172   2.097  18.494  1.00  0.00     0.035 A 
HETATM   18 CL1  UNL     1      10.236   0.895  17.826  1.00  0.00    -0.084 Cl
HETATM   19  C16 UNL     1       9.334   3.430  18.135  1.00  0.00     0.026 A 
HETATM   20  C17 UNL     1       8.501   4.394  18.654  1.00  0.00     0.032 A 
HETATM   21  N4  UNL     1       6.566   4.847  20.162  1.00  0.00    -0.345 N 
ATOM     22  H4  UNL     1       6.472   5.858  20.067  1.00  0.00     0.167 HD
ENDBRANCH   9  12
ENDBRANCH   7   9
ENDBRANCH   4   7
BRANCH   1  23
HETATM   23  C2  UNL     1       7.333   9.662  23.854  1.00  0.00     0.175 C 
HETATM   24  C1  UNL     1       8.299   8.921  24.783  1.00  0.00     0.042 C 
BRANCH  23  25
HETATM   25  C3  UNL     1       8.016   9.933  22.603  1.00  0.00     0.242 C 
HETATM   26  O1  UNL     1       9.206   9.543  22.482  1.00  0.00    -0.271 OA
HETATM   27  N1  UNL     1       7.411  10.602  21.539  1.00  0.00    -0.346 N 
HETATM   28  C4  UNL     1       6.049  11.067  21.615  1.00  0.00     0.152 C 
HETATM   29  C7  UNL     1       8.179  10.839  20.295  1.00  0.00     0.152 C 
HETATM   30  C5  UNL     1       5.333  10.820  20.289  1.00  0.00     0.187 C 
HETATM   31  O2  UNL     1       6.134  11.255  19.221  1.00  0.00    -0.388 OA
HETATM   32  C6  UNL     1       7.239  10.409  19.171  1.00  0.00     0.187 C 
ENDBRANCH  23  25
ENDBRANCH   1  23
TORSDOF 5
ENDMDL
