MODEL 2
REMARK VINA RESULT: -8.413614213      3.799      8.501
REMARK  5 active torsions:
REMARK  status: ('A' for Active; 'I' for Inactive)
REMARK    1  A    between atoms: C2_2  and  C3_3 
REMARK    2  A    between atoms: C2_2  and  N2_11 
REMARK       I    between atoms: C3_3  and  N1_5 
REMARK    3  A    between atoms: C10_14  and  N3_15 
REMARK    4  A    between atoms: N3_15  and  S1_17 
REMARK    5  A    between atoms: S1_17  and  C11_20 
ROOT
HETATM    1  N2  UNL     1       7.507   8.196  22.011  1.00  0.00    -0.337 N 
HETATM    2  C8  UNL     1       8.123   6.889  21.910  1.00  0.00     0.129 C 
HETATM    3  C9  UNL     1       7.096   6.126  21.086  1.00  0.00     0.055 C 
HETATM    4  C10 UNL     1       6.573   7.120  20.101  1.00  0.00     0.186 C 
HETATM    5  C19 UNL     1       6.858   8.434  20.775  1.00  0.00     0.244 C 
HETATM    6  O5  UNL     1       6.572   9.572  20.321  1.00  0.00    -0.271 OA
ENDROOT
BRANCH   4   7
HETATM    7  N3  UNL     1       7.219   7.036  18.831  1.00  0.00    -0.301 N 
ATOM      8  H3  UNL     1       8.002   7.623  18.544  1.00  0.00     0.173 HD
BRANCH   7   9
HETATM    9  S1  UNL     1       6.522   5.838  17.862  1.00  0.00     0.266 S 
HETATM   10  O3  UNL     1       5.112   5.491  18.325  1.00  0.00    -0.200 OA
HETATM   11  O4  UNL     1       6.339   6.407  16.466  1.00  0.00    -0.200 OA
BRANCH   9  12
HETATM   12  C11 UNL     1       7.410   4.342  17.764  1.00  0.00     0.121 A 
HETATM   13  C12 UNL     1       8.544   3.913  18.381  1.00  0.00     0.045 A 
HETATM   14  C13 UNL     1       8.983   2.663  18.068  1.00  0.00    -0.017 A 
HETATM   15  C14 UNL     1      10.132   2.036  18.596  1.00  0.00     0.014 A 
HETATM   16  C18 UNL     1       8.251   1.953  17.166  1.00  0.00     0.018 A 
HETATM   17  C15 UNL     1      10.449   0.767  18.183  1.00  0.00     0.024 A 
HETATM   18  C16 UNL     1       9.725   0.030  17.273  1.00  0.00     0.035 A 
HETATM   19 CL1  UNL     1      10.155  -1.582  16.767  1.00  0.00    -0.084 Cl
HETATM   20  C17 UNL     1       8.591   0.655  16.756  1.00  0.00     0.043 A 
HETATM   21  S2  UNL     1       6.981   3.024  16.777  1.00  0.00    -0.076 SA
ENDBRANCH   9  12
ENDBRANCH   7   9
ENDBRANCH   4   7
BRANCH   1  22
HETATM   22  C2  UNL     1       7.576   9.058  23.184  1.00  0.00     0.175 C 
HETATM   23  C1  UNL     1       6.190   9.605  23.442  1.00  0.00     0.042 C 
BRANCH  22  24
HETATM   24  C3  UNL     1       7.950   8.258  24.392  1.00  0.00     0.242 C 
HETATM   25  O1  UNL     1       7.022   7.716  25.051  1.00  0.00    -0.271 OA
HETATM   26  N1  UNL     1       9.288   8.099  24.801  1.00  0.00    -0.346 N 
HETATM   27  C4  UNL     1       9.592   7.326  25.982  1.00  0.00     0.152 C 
HETATM   28  C7  UNL     1      10.371   8.690  24.060  1.00  0.00     0.152 C 
HETATM   29  C5  UNL     1      10.767   8.041  26.665  1.00  0.00     0.187 C 
HETATM   30  O2  UNL     1      10.745   9.405  26.334  1.00  0.00    -0.388 OA
HETATM   31  C6  UNL     1      11.164   9.572  25.028  1.00  0.00     0.187 C 
ENDBRANCH  22  24
ENDBRANCH   1  22
TORSDOF 5
ENDMDL
