MODEL 7
REMARK VINA RESULT: -7.871121176      0.950      1.136
REMARK  5 active torsions:
REMARK  status: ('A' for Active; 'I' for Inactive)
REMARK    1  A    between atoms: C2_2  and  C3_3 
REMARK    2  A    between atoms: C2_2  and  N2_11 
REMARK       I    between atoms: C3_3  and  N1_5 
REMARK    3  A    between atoms: C10_14  and  N3_15 
REMARK    4  A    between atoms: N3_15  and  S1_17 
REMARK    5  A    between atoms: S1_17  and  C11_20 
ROOT
HETATM    1  N2  UNL     1       6.290   4.720  20.900  1.00  0.00    -0.337 N 
HETATM    2  C8  UNL     1       4.881   5.006  21.083  1.00  0.00     0.129 C 
HETATM    3  C9  UNL     1       4.902   5.869  22.336  1.00  0.00     0.055 C 
HETATM    4  C10 UNL     1       6.137   6.701  22.215  1.00  0.00     0.186 C 
HETATM    5  C19 UNL     1       6.994   5.886  21.285  1.00  0.00     0.244 C 
HETATM    6  O5  UNL     1       8.154   6.185  20.902  1.00  0.00    -0.271 OA
ENDROOT
BRANCH   4   7
HETATM    7  N3  UNL     1       5.881   8.001  21.682  1.00  0.00    -0.301 N 
ATOM      8  H3  UNL     1       5.467   8.175  20.767  1.00  0.00     0.173 HD
BRANCH   7   9
HETATM    9  S1  UNL     1       6.351   9.214  22.762  1.00  0.00     0.266 S 
HETATM   10  O3  UNL     1       6.648  10.524  22.042  1.00  0.00    -0.200 OA
HETATM   11  O4  UNL     1       5.168   9.529  23.661  1.00  0.00    -0.200 OA
BRANCH   9  12
HETATM   12  C11 UNL     1       7.741   8.845  23.745  1.00  0.00     0.121 A 
HETATM   13  C12 UNL     1       7.864   8.463  25.045  1.00  0.00     0.045 A 
HETATM   14  C13 UNL     1       9.125   8.257  25.513  1.00  0.00    -0.017 A 
HETATM   15  C14 UNL     1       9.464   7.861  26.825  1.00  0.00     0.014 A 
HETATM   16  C18 UNL     1      10.152   8.452  24.641  1.00  0.00     0.018 A 
HETATM   17  C15 UNL     1      10.786   7.693  27.150  1.00  0.00     0.024 A 
HETATM   18  C16 UNL     1      11.841   7.883  26.286  1.00  0.00     0.035 A 
HETATM   19 CL1  UNL     1      13.512   7.661  26.731  1.00  0.00    -0.084 Cl
HETATM   20  C17 UNL     1      11.499   8.274  24.993  1.00  0.00     0.043 A 
HETATM   21  S2  UNL     1       9.354   8.910  23.205  1.00  0.00    -0.076 SA
ENDBRANCH   9  12
ENDBRANCH   7   9
ENDBRANCH   4   7
BRANCH   1  22
HETATM   22  C2  UNL     1       6.822   3.455  20.409  1.00  0.00     0.175 C 
HETATM   23  C1  UNL     1       6.564   2.401  21.464  1.00  0.00     0.042 C 
BRANCH  22  24
HETATM   24  C3  UNL     1       6.080   3.022  19.184  1.00  0.00     0.242 C 
HETATM   25  O1  UNL     1       5.031   2.343  19.340  1.00  0.00    -0.271 OA
HETATM   26  N1  UNL     1       6.520   3.350  17.888  1.00  0.00    -0.346 N 
HETATM   27  C4  UNL     1       5.772   2.896  16.738  1.00  0.00     0.152 C 
HETATM   28  C7  UNL     1       7.705   4.139  17.677  1.00  0.00     0.152 C 
HETATM   29  C5  UNL     1       6.815   2.552  15.665  1.00  0.00     0.187 C 
HETATM   30  O2  UNL     1       8.026   2.199  16.279  1.00  0.00    -0.388 OA
HETATM   31  C6  UNL     1       8.642   3.332  16.775  1.00  0.00     0.187 C 
ENDBRANCH  22  24
ENDBRANCH   1  22
TORSDOF 5
ENDMDL
