MODEL 4
REMARK VINA RESULT: -8.287986854      0.786      1.210
REMARK  5 active torsions:
REMARK  status: ('A' for Active; 'I' for Inactive)
REMARK    1  A    between atoms: C2_2  and  C3_3 
REMARK    2  A    between atoms: C2_2  and  N2_11 
REMARK       I    between atoms: C3_3  and  N1_5 
REMARK    3  A    between atoms: C10_14  and  N3_15 
REMARK    4  A    between atoms: N3_15  and  S1_17 
REMARK    5  A    between atoms: S1_17  and  C11_20 
ROOT
HETATM    1  N2  UNL     1       6.150   4.657  20.499  1.00  0.00    -0.337 N 
HETATM    2  C8  UNL     1       4.753   4.906  20.791  1.00  0.00     0.129 C 
HETATM    3  C9  UNL     1       4.848   5.804  22.015  1.00  0.00     0.055 C 
HETATM    4  C10 UNL     1       6.041   6.669  21.771  1.00  0.00     0.186 C 
HETATM    5  C19 UNL     1       6.845   5.855  20.795  1.00  0.00     0.244 C 
HETATM    6  O5  UNL     1       7.959   6.178  20.309  1.00  0.00    -0.271 OA
ENDROOT
BRANCH   4   7
HETATM    7  N3  UNL     1       5.700   7.945  21.228  1.00  0.00    -0.301 N 
ATOM      8  H3  UNL     1       5.255   8.082  20.320  1.00  0.00     0.173 HD
BRANCH   7   9
HETATM    9  S1  UNL     1       6.126   9.198  22.280  1.00  0.00     0.266 S 
HETATM   10  O3  UNL     1       6.470  10.475  21.524  1.00  0.00    -0.200 OA
HETATM   11  O4  UNL     1       4.903   9.557  23.105  1.00  0.00    -0.200 OA
BRANCH   9  12
HETATM   12  C11 UNL     1       7.462   8.860  23.346  1.00  0.00     0.121 A 
HETATM   13  C12 UNL     1       8.803   9.056  23.218  1.00  0.00     0.045 A 
HETATM   14  C13 UNL     1       9.587   8.664  24.259  1.00  0.00    -0.017 A 
HETATM   15  C14 UNL     1      10.992   8.780  24.323  1.00  0.00     0.014 A 
HETATM   16  C18 UNL     1       8.964   8.110  25.334  1.00  0.00     0.018 A 
HETATM   17  C15 UNL     1      11.648   8.338  25.443  1.00  0.00     0.024 A 
HETATM   18  C16 UNL     1      11.040   7.775  26.542  1.00  0.00     0.035 A 
HETATM   19 CL1  UNL     1      11.903   7.222  27.952  1.00  0.00    -0.084 Cl
HETATM   20  C17 UNL     1       9.652   7.663  26.473  1.00  0.00     0.043 A 
HETATM   21  S2  UNL     1       7.319   8.145  24.884  1.00  0.00    -0.076 SA
ENDBRANCH   9  12
ENDBRANCH   7   9
ENDBRANCH   4   7
BRANCH   1  22
HETATM   22  C2  UNL     1       6.682   3.395  19.999  1.00  0.00     0.175 C 
HETATM   23  C1  UNL     1       5.647   2.321  20.254  1.00  0.00     0.042 C 
BRANCH  22  24
HETATM   24  C3  UNL     1       6.868   3.464  18.517  1.00  0.00     0.242 C 
HETATM   25  O1  UNL     1       5.843   3.619  17.800  1.00  0.00    -0.271 OA
HETATM   26  N1  UNL     1       8.137   3.361  17.916  1.00  0.00    -0.346 N 
HETATM   27  C4  UNL     1       8.259   3.421  16.478  1.00  0.00     0.152 C 
HETATM   28  C7  UNL     1       9.328   3.200  18.708  1.00  0.00     0.152 C 
HETATM   29  C5  UNL     1       9.372   2.430  16.106  1.00  0.00     0.187 C 
HETATM   30  O2  UNL     1       9.452   1.423  17.080  1.00  0.00    -0.388 OA
HETATM   31  C6  UNL     1      10.034   1.930  18.226  1.00  0.00     0.187 C 
ENDBRANCH  22  24
ENDBRANCH   1  22
TORSDOF 5
ENDMDL
