MODEL 1
REMARK VINA RESULT: -8.495027666      0.000      0.000
REMARK  5 active torsions:
REMARK  status: ('A' for Active; 'I' for Inactive)
REMARK    1  A    between atoms: C2_2  and  C3_3 
REMARK    2  A    between atoms: C2_2  and  N2_11 
REMARK       I    between atoms: C3_3  and  N1_5 
REMARK    3  A    between atoms: C10_14  and  N3_15 
REMARK    4  A    between atoms: N3_15  and  S1_17 
REMARK    5  A    between atoms: S1_17  and  C11_20 
ROOT
HETATM    1  N2  UNL     1       6.369   4.771  20.733  1.00  0.00    -0.337 N 
HETATM    2  C8  UNL     1       4.986   5.049  21.063  1.00  0.00     0.129 C 
HETATM    3  C9  UNL     1       5.132   5.899  22.317  1.00  0.00     0.055 C 
HETATM    4  C10 UNL     1       6.346   6.737  22.078  1.00  0.00     0.186 C 
HETATM    5  C19 UNL     1       7.105   5.936  21.056  1.00  0.00     0.244 C 
HETATM    6  O5  UNL     1       8.218   6.244  20.559  1.00  0.00    -0.271 OA
ENDROOT
BRANCH   4   7
HETATM    7  N3  UNL     1       6.031   8.042  21.588  1.00  0.00    -0.301 N 
ATOM      8  H3  UNL     1       5.590   8.226  20.687  1.00  0.00     0.173 HD
BRANCH   7   9
HETATM    9  S1  UNL     1       6.483   9.241  22.691  1.00  0.00     0.266 S 
HETATM   10  O3  UNL     1       6.810  10.555  21.990  1.00  0.00    -0.200 OA
HETATM   11  O4  UNL     1       5.280   9.558  23.561  1.00  0.00    -0.200 OA
BRANCH   9  12
HETATM   12  C11 UNL     1       7.844   8.851  23.706  1.00  0.00     0.121 A 
HETATM   13  C12 UNL     1       7.928   8.420  24.994  1.00  0.00     0.045 A 
HETATM   14  C13 UNL     1       9.175   8.212  25.497  1.00  0.00    -0.017 A 
HETATM   15  C14 UNL     1       9.475   7.768  26.802  1.00  0.00     0.014 A 
HETATM   16  C18 UNL     1      10.228   8.453  24.669  1.00  0.00     0.018 A 
HETATM   17  C15 UNL     1      10.787   7.604  27.167  1.00  0.00     0.024 A 
HETATM   18  C16 UNL     1      11.868   7.841  26.348  1.00  0.00     0.035 A 
HETATM   19 CL1  UNL     1      13.526   7.623  26.841  1.00  0.00    -0.084 Cl
HETATM   20  C17 UNL     1      11.565   8.279  25.060  1.00  0.00     0.043 A 
HETATM   21  S2  UNL     1       9.473   8.957  23.225  1.00  0.00    -0.076 SA
ENDBRANCH   9  12
ENDBRANCH   7   9
ENDBRANCH   4   7
BRANCH   1  22
HETATM   22  C2  UNL     1       6.852   3.513  20.178  1.00  0.00     0.175 C 
HETATM   23  C1  UNL     1       5.803   2.454  20.441  1.00  0.00     0.042 C 
BRANCH  22  24
HETATM   24  C3  UNL     1       6.985   3.621  18.692  1.00  0.00     0.242 C 
HETATM   25  O1  UNL     1       5.955   3.913  18.027  1.00  0.00    -0.271 OA
HETATM   26  N1  UNL     1       8.210   3.408  18.032  1.00  0.00    -0.346 N 
HETATM   27  C4  UNL     1       8.280   3.514  16.593  1.00  0.00     0.152 C 
HETATM   28  C7  UNL     1       9.408   3.091  18.764  1.00  0.00     0.152 C 
HETATM   29  C5  UNL     1       9.264   2.427  16.137  1.00  0.00     0.187 C 
HETATM   30  O2  UNL     1       9.274   1.378  17.070  1.00  0.00    -0.388 OA
HETATM   31  C6  UNL     1       9.954   1.774  18.206  1.00  0.00     0.187 C 
ENDBRANCH  22  24
ENDBRANCH   1  22
TORSDOF 5
ENDMDL
