MODEL 3
REMARK VINA RESULT: -8.356812418      3.788      8.443
REMARK  5 active torsions:
REMARK  status: ('A' for Active; 'I' for Inactive)
REMARK    1  A    between atoms: C2_2  and  C3_3 
REMARK    2  A    between atoms: C2_2  and  N2_11 
REMARK       I    between atoms: C3_3  and  N1_5 
REMARK    3  A    between atoms: C10_14  and  N3_15 
REMARK    4  A    between atoms: N3_15  and  S1_17 
REMARK    5  A    between atoms: S1_17  and  C11_20 
ROOT
HETATM    1  N2  UNL     1       7.463   9.195  21.254  1.00  0.00    -0.337 N 
HETATM    2  C8  UNL     1       6.225   9.743  20.738  1.00  0.00     0.129 C 
HETATM    3  C9  UNL     1       6.262   9.279  19.289  1.00  0.00     0.055 C 
HETATM    4  C10 UNL     1       6.870   7.916  19.333  1.00  0.00     0.186 C 
HETATM    5  C19 UNL     1       7.645   7.941  20.622  1.00  0.00     0.244 C 
HETATM    6  O5  UNL     1       8.346   7.002  21.078  1.00  0.00    -0.271 OA
ENDROOT
BRANCH   4   7
HETATM    7  N3  UNL     1       5.895   6.873  19.333  1.00  0.00    -0.301 N 
ATOM      8  H3  UNL     1       5.282   6.659  20.120  1.00  0.00     0.173 HD
BRANCH   7   9
HETATM    9  S1  UNL     1       5.884   6.038  17.863  1.00  0.00     0.266 S 
HETATM   10  O3  UNL     1       4.480   5.581  17.485  1.00  0.00    -0.200 OA
HETATM   11  O4  UNL     1       6.280   7.010  16.766  1.00  0.00    -0.200 OA
BRANCH   9  12
HETATM   12  C11 UNL     1       6.914   4.634  17.791  1.00  0.00     0.121 A 
HETATM   13  C12 UNL     1       8.141   4.375  18.319  1.00  0.00     0.045 A 
HETATM   14  C13 UNL     1       8.680   3.152  18.061  1.00  0.00    -0.017 A 
HETATM   15  C14 UNL     1       9.934   2.691  18.514  1.00  0.00     0.014 A 
HETATM   16  C18 UNL     1       7.946   2.297  17.297  1.00  0.00     0.018 A 
HETATM   17  C15 UNL     1      10.345   1.428  18.171  1.00  0.00     0.024 A 
HETATM   18  C16 UNL     1       9.621   0.546  17.401  1.00  0.00     0.035 A 
HETATM   19 CL1  UNL     1      10.171  -1.054  16.981  1.00  0.00    -0.084 Cl
HETATM   20  C17 UNL     1       8.383   1.007  16.957  1.00  0.00     0.043 A 
HETATM   21  S2  UNL     1       6.537   3.198  16.959  1.00  0.00    -0.076 SA
ENDBRANCH   9  12
ENDBRANCH   7   9
ENDBRANCH   4   7
BRANCH   1  22
HETATM   22  C2  UNL     1       8.316   9.854  22.235  1.00  0.00     0.175 C 
HETATM   23  C1  UNL     1       7.980  11.329  22.229  1.00  0.00     0.042 C 
BRANCH  22  24
HETATM   24  C3  UNL     1       8.007   9.352  23.610  1.00  0.00     0.242 C 
HETATM   25  O1  UNL     1       6.862   9.587  24.080  1.00  0.00    -0.271 OA
HETATM   26  N1  UNL     1       8.947   8.636  24.375  1.00  0.00    -0.346 N 
HETATM   27  C4  UNL     1       8.600   8.184  25.702  1.00  0.00     0.152 C 
HETATM   28  C7  UNL     1      10.257   8.336  23.860  1.00  0.00     0.152 C 
HETATM   29  C5  UNL     1       9.874   8.334  26.546  1.00  0.00     0.187 C 
HETATM   30  O2  UNL     1      10.680   9.349  26.008  1.00  0.00    -0.388 OA
HETATM   31  C6  UNL     1      11.281   8.899  24.849  1.00  0.00     0.187 C 
ENDBRANCH  22  24
ENDBRANCH   1  22
TORSDOF 5
ENDMDL
