MODEL 5
REMARK VINA RESULT: -8.263846280      3.554      8.339
REMARK  5 active torsions:
REMARK  status: ('A' for Active; 'I' for Inactive)
REMARK    1  A    between atoms: C2_2  and  C3_3 
REMARK    2  A    between atoms: C2_2  and  N2_11 
REMARK       I    between atoms: C3_3  and  N1_5 
REMARK    3  A    between atoms: C10_14  and  N3_15 
REMARK    4  A    between atoms: N3_15  and  S1_17 
REMARK    5  A    between atoms: S1_17  and  C11_20 
ROOT
HETATM    1  N2  UNL     1       7.588   9.483  21.505  1.00  0.00    -0.337 N 
HETATM    2  C8  UNL     1       6.438  10.219  21.020  1.00  0.00     0.129 C 
HETATM    3  C9  UNL     1       6.421   9.830  19.549  1.00  0.00     0.055 C 
HETATM    4  C10 UNL     1       6.841   8.397  19.521  1.00  0.00     0.186 C 
HETATM    5  C19 UNL     1       7.604   8.251  20.808  1.00  0.00     0.244 C 
HETATM    6  O5  UNL     1       8.170   7.203  21.213  1.00  0.00    -0.271 OA
ENDROOT
BRANCH   4   7
HETATM    7  N3  UNL     1       5.734   7.496  19.466  1.00  0.00    -0.301 N 
ATOM      8  H3  UNL     1       5.054   7.375  20.217  1.00  0.00     0.173 HD
BRANCH   7   9
HETATM    9  S1  UNL     1       5.694   6.655  18.000  1.00  0.00     0.266 S 
HETATM   10  O3  UNL     1       4.290   6.155  17.676  1.00  0.00    -0.200 OA
HETATM   11  O4  UNL     1       6.020   7.635  16.886  1.00  0.00    -0.200 OA
BRANCH   9  12
HETATM   12  C11 UNL     1       6.761   5.283  17.893  1.00  0.00     0.121 A 
HETATM   13  C12 UNL     1       7.331   4.650  16.832  1.00  0.00     0.045 A 
HETATM   14  C13 UNL     1       8.128   3.581  17.104  1.00  0.00    -0.017 A 
HETATM   15  C14 UNL     1       8.807   2.794  16.149  1.00  0.00     0.014 A 
HETATM   16  C18 UNL     1       8.284   3.237  18.411  1.00  0.00     0.018 A 
HETATM   17  C15 UNL     1       9.576   1.742  16.577  1.00  0.00     0.024 A 
HETATM   18  C16 UNL     1       9.750   1.376  17.892  1.00  0.00     0.035 A 
HETATM   19 CL1  UNL     1      10.736   0.032  18.404  1.00  0.00    -0.084 Cl
HETATM   20  C17 UNL     1       9.076   2.157  18.830  1.00  0.00     0.043 A 
HETATM   21  S2  UNL     1       7.333   4.394  19.228  1.00  0.00    -0.076 SA
ENDBRANCH   9  12
ENDBRANCH   7   9
ENDBRANCH   4   7
BRANCH   1  22
HETATM   22  C2  UNL     1       8.516   9.968  22.519  1.00  0.00     0.175 C 
HETATM   23  C1  UNL     1       8.326  11.464  22.646  1.00  0.00     0.042 C 
BRANCH  22  24
HETATM   24  C3  UNL     1       8.179   9.381  23.853  1.00  0.00     0.242 C 
HETATM   25  O1  UNL     1       7.024   9.586  24.313  1.00  0.00    -0.271 OA
HETATM   26  N1  UNL     1       9.105   8.620  24.591  1.00  0.00    -0.346 N 
HETATM   27  C4  UNL     1       8.731   8.085  25.880  1.00  0.00     0.152 C 
HETATM   28  C7  UNL     1      10.426   8.353  24.086  1.00  0.00     0.152 C 
HETATM   29  C5  UNL     1       9.987   8.182  26.758  1.00  0.00     0.187 C 
HETATM   30  O2  UNL     1      10.802   9.229  26.302  1.00  0.00    -0.388 OA
HETATM   31  C6  UNL     1      11.428   8.854  25.129  1.00  0.00     0.187 C 
ENDBRANCH  22  24
ENDBRANCH   1  22
TORSDOF 5
ENDMDL
