MODEL 1
REMARK VINA RESULT: -8.845943986      0.000      0.000
REMARK  7 active torsions:
REMARK  status: ('A' for Active; 'I' for Inactive)
REMARK       I    between atoms: C2_2  and  N1_4 
REMARK    1  A    between atoms: N1_4  and  C3_6 
REMARK    2  A    between atoms: C5_10  and  C6_11 
REMARK       I    between atoms: C6_11  and  N3_13 
REMARK    3  A    between atoms: N3_13  and  C7_15 
REMARK    4  A    between atoms: C14_23  and  C15_24 
REMARK    5  A    between atoms: C15_24  and  O3_25 
REMARK    6  A    between atoms: C16_27  and  O4_28 
REMARK    7  A    between atoms: C17_30  and  O5_31 
ROOT
HETATM    1  C3  UNL     1       0.876  -7.437  32.149  1.00  0.00     0.183 C 
HETATM    2  C4  UNL     1      -0.459  -7.160  32.715  1.00  0.00     0.110 A 
HETATM    3  N2  UNL     1      -1.149  -7.649  33.744  1.00  0.00    -0.338 N 
ATOM      4  H2  UNL     1      -0.828  -8.379  34.381  1.00  0.00     0.167 HD
HETATM    5  C5  UNL     1      -2.331  -7.024  33.804  1.00  0.00     0.118 A 
HETATM    6  C13 UNL     1      -2.371  -6.129  32.788  1.00  0.00     0.128 A 
HETATM    7  N4  UNL     1      -1.205  -6.227  32.127  1.00  0.00    -0.333 N 
HETATM    8  C14 UNL     1      -0.808  -5.454  30.963  1.00  0.00     0.145 C 
HETATM    9  C16 UNL     1       0.614  -5.636  30.557  1.00  0.00     0.174 C 
HETATM   10  C17 UNL     1       1.442  -6.068  31.744  1.00  0.00     0.179 C 
ENDROOT
BRANCH   5  11
HETATM   11  C6  UNL     1      -3.426  -7.246  34.790  1.00  0.00     0.274 C 
HETATM   12  O2  UNL     1      -4.071  -6.264  35.220  1.00  0.00    -0.266 OA
HETATM   13  N3  UNL     1      -3.726  -8.536  35.229  1.00  0.00    -0.322 N 
ATOM     14  H3  UNL     1      -3.169  -9.299  34.843  1.00  0.00     0.169 HD
BRANCH  13  15
HETATM   15  C7  UNL     1      -4.727  -8.882  36.156  1.00  0.00     0.035 A 
HETATM   16  C8  UNL     1      -4.388  -8.998  37.523  1.00  0.00     0.029 A 
HETATM   17  C9  UNL     1      -5.297  -9.315  38.467  1.00  0.00     0.002 A 
HETATM   18  C10 UNL     1      -6.628  -9.548  38.143  1.00  0.00     0.000 A 
HETATM   19  C11 UNL     1      -7.000  -9.448  36.840  1.00  0.00     0.002 A 
HETATM   20  C12 UNL     1      -6.049  -9.120  35.887  1.00  0.00     0.029 A 
ENDBRANCH  13  15
ENDBRANCH   5  11
BRANCH   1  21
HETATM   21  N1  UNL     1       1.754  -8.097  33.086  1.00  0.00    -0.347 N 
HETATM   22  C2  UNL     1       2.170  -7.414  34.262  1.00  0.00     0.214 C 
HETATM   23  C1  UNL     1       3.084  -8.062  35.266  1.00  0.00     0.117 C 
HETATM   24  O1  UNL     1       1.765  -6.241  34.466  1.00  0.00    -0.274 OA
ATOM     25  H1  UNL     1       2.074  -9.049  32.906  1.00  0.00     0.163 HD
ENDBRANCH   1  21
BRANCH   8  26
HETATM   26  C15 UNL     1      -1.783  -5.778  29.850  1.00  0.00     0.192 C 
BRANCH  26  27
HETATM   27  O3  UNL     1      -1.446  -6.965  29.204  1.00  0.00    -0.399 OA
ATOM     28  H3  UNL     1      -0.966  -6.801  28.401  1.00  0.00     0.209 HD
ENDBRANCH  26  27
ENDBRANCH   8  26
BRANCH  10  29
HETATM   29  O5  UNL     1       2.788  -6.142  31.463  1.00  0.00    -0.390 OA
ATOM     30  H5  UNL     1       3.265  -6.581  32.157  1.00  0.00     0.210 HD
ENDBRANCH  10  29
BRANCH   9  31
HETATM   31  O4  UNL     1       1.144  -4.482  29.964  1.00  0.00    -0.391 OA
ATOM     32  H4  UNL     1       0.562  -3.736  30.047  1.00  0.00     0.210 HD
ENDBRANCH   9  31
TORSDOF 7
ENDMDL
