MODEL 5
REMARK VINA RESULT: -7.837021203      4.436      7.700
REMARK  7 active torsions:
REMARK  status: ('A' for Active; 'I' for Inactive)
REMARK       I    between atoms: C2_2  and  N1_4 
REMARK    1  A    between atoms: N1_4  and  C3_6 
REMARK    2  A    between atoms: C5_10  and  C6_11 
REMARK       I    between atoms: C6_11  and  N3_13 
REMARK    3  A    between atoms: N3_13  and  C7_15 
REMARK    4  A    between atoms: C14_23  and  C15_24 
REMARK    5  A    between atoms: C15_24  and  O3_25 
REMARK    6  A    between atoms: C16_27  and  O4_28 
REMARK    7  A    between atoms: C17_30  and  O5_31 
ROOT
HETATM    1  C3  UNL     1      -4.261  -7.951  27.405  1.00  0.00     0.183 C 
HETATM    2  C4  UNL     1      -3.375  -7.319  28.403  1.00  0.00     0.110 A 
HETATM    3  N2  UNL     1      -2.192  -7.637  28.923  1.00  0.00    -0.338 N 
ATOM      4  H2  UNL     1      -1.643  -8.465  28.691  1.00  0.00     0.167 HD
HETATM    5  C5  UNL     1      -1.841  -6.690  29.803  1.00  0.00     0.118 A 
HETATM    6  C13 UNL     1      -2.832  -5.767  29.824  1.00  0.00     0.128 A 
HETATM    7  N4  UNL     1      -3.771  -6.172  28.952  1.00  0.00    -0.333 N 
HETATM    8  C14 UNL     1      -5.015  -5.489  28.646  1.00  0.00     0.145 C 
HETATM    9  C16 UNL     1      -5.772  -6.065  27.500  1.00  0.00     0.174 C 
HETATM   10  C17 UNL     1      -4.831  -6.795  26.570  1.00  0.00     0.179 C 
ENDROOT
BRANCH   5  11
HETATM   11  C6  UNL     1      -0.600  -6.629  30.625  1.00  0.00     0.274 C 
HETATM   12  O2  UNL     1       0.262  -5.760  30.368  1.00  0.00    -0.266 OA
HETATM   13  N3  UNL     1      -0.404  -7.534  31.670  1.00  0.00    -0.322 N 
ATOM     14  H3  UNL     1      -1.141  -8.218  31.835  1.00  0.00     0.169 HD
BRANCH  13  15
HETATM   15  C7  UNL     1       0.718  -7.587  32.516  1.00  0.00     0.035 A 
HETATM   16  C8  UNL     1       1.807  -8.416  32.162  1.00  0.00     0.029 A 
HETATM   17  C9  UNL     1       2.919  -8.509  32.920  1.00  0.00     0.002 A 
HETATM   18  C10 UNL     1       3.055  -7.788  34.100  1.00  0.00     0.000 A 
HETATM   19  C11 UNL     1       2.033  -6.978  34.480  1.00  0.00     0.002 A 
HETATM   20  C12 UNL     1       0.900  -6.898  33.686  1.00  0.00     0.029 A 
ENDBRANCH  13  15
ENDBRANCH   5  11
BRANCH   1  21
HETATM   21  N1  UNL     1      -3.569  -8.898  26.563  1.00  0.00    -0.347 N 
HETATM   22  C2  UNL     1      -4.224 -10.096  26.166  1.00  0.00     0.214 C 
HETATM   23  C1  UNL     1      -3.542 -11.111  25.289  1.00  0.00     0.117 C 
HETATM   24  O1  UNL     1      -5.400 -10.312  26.557  1.00  0.00    -0.274 OA
ATOM     25  H1  UNL     1      -2.616  -8.709  26.255  1.00  0.00     0.163 HD
ENDBRANCH   1  21
BRANCH   8  26
HETATM   26  C15 UNL     1      -5.830  -5.440  29.923  1.00  0.00     0.192 C 
BRANCH  26  27
HETATM   27  O3  UNL     1      -6.122  -4.129  30.294  1.00  0.00    -0.399 OA
ATOM     28  H3  UNL     1      -6.948  -4.074  30.759  1.00  0.00     0.209 HD
ENDBRANCH  26  27
ENDBRANCH   8  26
BRANCH  10  29
HETATM   29  O5  UNL     1      -5.450  -7.253  25.429  1.00  0.00    -0.390 OA
ATOM     30  H5  UNL     1      -6.357  -7.483  25.592  1.00  0.00     0.210 HD
ENDBRANCH  10  29
BRANCH   9  31
HETATM   31  O4  UNL     1      -6.509  -5.092  26.811  1.00  0.00    -0.391 OA
ATOM     32  H4  UNL     1      -7.394  -5.382  26.621  1.00  0.00     0.210 HD
ENDBRANCH   9  31
TORSDOF 7
ENDMDL
