MODEL 6
REMARK VINA RESULT: -7.801380578      4.470      8.197
REMARK  7 active torsions:
REMARK  status: ('A' for Active; 'I' for Inactive)
REMARK       I    between atoms: C2_2  and  N1_4 
REMARK    1  A    between atoms: N1_4  and  C3_6 
REMARK    2  A    between atoms: C5_10  and  C6_11 
REMARK       I    between atoms: C6_11  and  N3_13 
REMARK    3  A    between atoms: N3_13  and  C7_15 
REMARK    4  A    between atoms: C14_23  and  C15_24 
REMARK    5  A    between atoms: C15_24  and  O3_25 
REMARK    6  A    between atoms: C16_27  and  O4_28 
REMARK    7  A    between atoms: C17_30  and  O5_31 
ROOT
HETATM    1  C3  UNL     1      -5.671  -6.013  27.926  1.00  0.00     0.183 C 
HETATM    2  C4  UNL     1      -4.392  -6.361  28.577  1.00  0.00     0.110 A 
HETATM    3  N2  UNL     1      -3.629  -5.771  29.496  1.00  0.00    -0.338 N 
ATOM      4  H2  UNL     1      -3.828  -4.880  29.950  1.00  0.00     0.167 HD
HETATM    5  C5  UNL     1      -2.559  -6.542  29.724  1.00  0.00     0.118 A 
HETATM    6  C13 UNL     1      -2.664  -7.633  28.927  1.00  0.00     0.128 A 
HETATM    7  N4  UNL     1      -3.804  -7.503  28.227  1.00  0.00    -0.333 N 
HETATM    8  C14 UNL     1      -4.323  -8.441  27.246  1.00  0.00     0.145 C 
HETATM    9  C16 UNL     1      -5.701  -8.136  26.770  1.00  0.00     0.174 C 
HETATM   10  C17 UNL     1      -6.446  -7.333  27.810  1.00  0.00     0.179 C 
ENDROOT
BRANCH   5  11
HETATM   11  C6  UNL     1      -1.438  -6.282  30.670  1.00  0.00     0.274 C 
HETATM   12  O2  UNL     1      -1.237  -5.116  31.076  1.00  0.00    -0.266 OA
HETATM   13  N3  UNL     1      -0.620  -7.330  31.097  1.00  0.00    -0.322 N 
ATOM     14  H3  UNL     1      -0.832  -8.260  30.735  1.00  0.00     0.169 HD
BRANCH  13  15
HETATM   15  C7  UNL     1       0.468  -7.221  31.981  1.00  0.00     0.035 A 
HETATM   16  C8  UNL     1       1.777  -7.146  31.454  1.00  0.00     0.029 A 
HETATM   17  C9  UNL     1       2.866  -7.030  32.240  1.00  0.00     0.002 A 
HETATM   18  C10 UNL     1       2.759  -6.978  33.625  1.00  0.00     0.000 A 
HETATM   19  C11 UNL     1       1.520  -7.047  34.177  1.00  0.00     0.002 A 
HETATM   20  C12 UNL     1       0.415  -7.165  33.348  1.00  0.00     0.029 A 
ENDBRANCH  13  15
ENDBRANCH   5  11
BRANCH   1  21
HETATM   21  N1  UNL     1      -6.430  -5.037  28.672  1.00  0.00    -0.347 N 
HETATM   22  C2  UNL     1      -6.943  -3.888  28.009  1.00  0.00     0.214 C 
HETATM   23  C1  UNL     1      -7.739  -2.845  28.746  1.00  0.00     0.117 C 
HETATM   24  O1  UNL     1      -6.725  -3.740  26.780  1.00  0.00    -0.274 OA
ATOM     25  H1  UNL     1      -6.597  -5.171  29.670  1.00  0.00     0.163 HD
ENDBRANCH   1  21
BRANCH   8  26
HETATM   26  C15 UNL     1      -3.316  -8.521  26.118  1.00  0.00     0.192 C 
BRANCH  26  27
HETATM   27  O3  UNL     1      -3.884  -8.164  24.897  1.00  0.00    -0.399 OA
ATOM     28  H3  UNL     1      -3.250  -8.203  24.192  1.00  0.00     0.209 HD
ENDBRANCH  26  27
ENDBRANCH   8  26
BRANCH  10  29
HETATM   29  O5  UNL     1      -7.765  -7.116  27.481  1.00  0.00    -0.390 OA
ATOM     30  H5  UNL     1      -8.049  -7.694  26.783  1.00  0.00     0.210 HD
ENDBRANCH  10  29
BRANCH   9  31
HETATM   31  O4  UNL     1      -6.409  -9.296  26.424  1.00  0.00    -0.391 OA
ATOM     32  H4  UNL     1      -7.035  -9.138  25.728  1.00  0.00     0.210 HD
ENDBRANCH   9  31
TORSDOF 7
ENDMDL
