MODEL 7
REMARK VINA RESULT: -7.766666159      4.472      7.649
REMARK  7 active torsions:
REMARK  status: ('A' for Active; 'I' for Inactive)
REMARK       I    between atoms: C2_2  and  N1_4 
REMARK    1  A    between atoms: N1_4  and  C3_6 
REMARK    2  A    between atoms: C5_10  and  C6_11 
REMARK       I    between atoms: C6_11  and  N3_13 
REMARK    3  A    between atoms: N3_13  and  C7_15 
REMARK    4  A    between atoms: C14_23  and  C15_24 
REMARK    5  A    between atoms: C15_24  and  O3_25 
REMARK    6  A    between atoms: C16_27  and  O4_28 
REMARK    7  A    between atoms: C17_30  and  O5_31 
ROOT
HETATM    1  C3  UNL     1      -4.627  -7.867  27.211  1.00  0.00     0.183 C 
HETATM    2  C4  UNL     1      -3.975  -7.533  28.493  1.00  0.00     0.110 A 
HETATM    3  N2  UNL     1      -3.010  -8.097  29.215  1.00  0.00    -0.338 N 
ATOM      4  H2  UNL     1      -2.506  -8.950  28.971  1.00  0.00     0.167 HD
HETATM    5  C5  UNL     1      -2.810  -7.359  30.315  1.00  0.00     0.118 A 
HETATM    6  C13 UNL     1      -3.672  -6.316  30.268  1.00  0.00     0.128 A 
HETATM    7  N4  UNL     1      -4.384  -6.440  29.135  1.00  0.00    -0.333 N 
HETATM    8  C14 UNL     1      -5.428  -5.544  28.671  1.00  0.00     0.145 C 
HETATM    9  C16 UNL     1      -5.910  -5.819  27.289  1.00  0.00     0.174 C 
HETATM   10  C17 UNL     1      -4.836  -6.525  26.495  1.00  0.00     0.179 C 
ENDROOT
BRANCH   5  11
HETATM   11  C6  UNL     1      -1.829  -7.608  31.409  1.00  0.00     0.274 C 
HETATM   12  O2  UNL     1      -2.199  -8.224  32.433  1.00  0.00    -0.266 OA
HETATM   13  N3  UNL     1      -0.514  -7.157  31.290  1.00  0.00    -0.322 N 
ATOM     14  H3  UNL     1      -0.269  -6.663  30.432  1.00  0.00     0.169 HD
BRANCH  13  15
HETATM   15  C7  UNL     1       0.505  -7.321  32.246  1.00  0.00     0.035 A 
HETATM   16  C8  UNL     1       1.490  -8.313  32.038  1.00  0.00     0.029 A 
HETATM   17  C9  UNL     1       2.501  -8.519  32.906  1.00  0.00     0.002 A 
HETATM   18  C10 UNL     1       2.630  -7.760  34.062  1.00  0.00     0.000 A 
HETATM   19  C11 UNL     1       1.705  -6.795  34.305  1.00  0.00     0.002 A 
HETATM   20  C12 UNL     1       0.675  -6.601  33.398  1.00  0.00     0.029 A 
ENDBRANCH  13  15
ENDBRANCH   5  11
BRANCH   1  21
HETATM   21  N1  UNL     1      -3.837  -8.762  26.399  1.00  0.00    -0.347 N 
HETATM   22  C2  UNL     1      -4.329 -10.064  26.105  1.00  0.00     0.214 C 
HETATM   23  C1  UNL     1      -3.540 -11.031  25.263  1.00  0.00     0.117 C 
HETATM   24  O1  UNL     1      -5.448 -10.414  26.559  1.00  0.00    -0.274 OA
ATOM     25  H1  UNL     1      -2.931  -8.463  26.039  1.00  0.00     0.163 HD
ENDBRANCH   1  21
BRANCH   8  26
HETATM   26  C15 UNL     1      -6.541  -5.575  29.699  1.00  0.00     0.192 C 
BRANCH  26  27
HETATM   27  O3  UNL     1      -7.730  -5.064  29.182  1.00  0.00    -0.399 OA
ATOM     28  H3  UNL     1      -8.482  -5.354  29.684  1.00  0.00     0.209 HD
ENDBRANCH  26  27
ENDBRANCH   8  26
BRANCH  10  29
HETATM   29  O5  UNL     1      -5.176  -6.705  25.173  1.00  0.00    -0.390 OA
ATOM     30  H5  UNL     1      -5.461  -7.595  25.005  1.00  0.00     0.210 HD
ENDBRANCH  10  29
BRANCH   9  31
HETATM   31  O4  UNL     1      -6.338  -4.654  26.637  1.00  0.00    -0.391 OA
ATOM     32  H4  UNL     1      -5.743  -4.393  25.944  1.00  0.00     0.210 HD
ENDBRANCH   9  31
TORSDOF 7
ENDMDL
