MODEL 3
REMARK VINA RESULT: -7.053730329      2.722      5.786
REMARK  6 active torsions:
REMARK  status: ('A' for Active; 'I' for Inactive)
REMARK    1  A    between atoms: C2_2  and  C3_3 
REMARK    2  A    between atoms: C3_3  and  C4_4 
REMARK    3  A    between atoms: C7_10  and  C8_11 
REMARK    4  A    between atoms: C8_11  and  O2_12 
REMARK    5  A    between atoms: C9_14  and  O3_15 
REMARK    6  A    between atoms: C10_17  and  O4_18 
ROOT
HETATM    1  C4  UNL     1      -0.617  -5.086  30.717  1.00  0.00     0.045 C 
HETATM    2  N1  UNL     1       0.273  -5.908  30.391  1.00  0.00    -0.377 N 
ATOM      3  H1  UNL     1       0.039  -6.690  29.780  1.00  0.00     0.160 HD
HETATM    4  C5  UNL     1       1.570  -5.762  30.855  1.00  0.00     0.152 C 
HETATM    5  C6  UNL     1       1.606  -5.027  32.179  1.00  0.00     0.214 C 
HETATM    6  O1  UNL     1       1.183  -5.856  33.185  1.00  0.00    -0.363 OA
HETATM    7  C7  UNL     1       2.056  -6.907  33.437  1.00  0.00     0.178 C 
HETATM    8  C9  UNL     1       3.003  -7.153  32.293  1.00  0.00     0.180 C 
HETATM    9  C10 UNL     1       2.194  -7.135  31.011  1.00  0.00     0.175 C 
HETATM   10  S1  UNL     1       0.197  -3.890  31.808  1.00  0.00    -0.083 SA
ENDROOT
BRANCH   1  11
HETATM   11  C3  UNL     1      -2.056  -5.026  30.355  1.00  0.00     0.064 C 
BRANCH  11  12
HETATM   12  C2  UNL     1      -2.392  -6.372  29.710  1.00  0.00     0.002 C 
HETATM   13  C1  UNL     1      -2.934  -6.135  28.341  1.00  0.00     0.005 C 
ENDBRANCH  11  12
ENDBRANCH   1  11
BRANCH   9  14
HETATM   14  O4  UNL     1       3.029  -7.462  29.958  1.00  0.00    -0.391 OA
ATOM     15  H4  UNL     1       3.940  -7.264  30.140  1.00  0.00     0.210 HD
ENDBRANCH   9  14
BRANCH   8  16
HETATM   16  O3  UNL     1       3.607  -8.386  32.476  1.00  0.00    -0.390 OA
ATOM     17  H3  UNL     1       3.367  -8.717  33.333  1.00  0.00     0.210 HD
ENDBRANCH   8  16
BRANCH   7  18
HETATM   18  C8  UNL     1       2.800  -6.560  34.719  1.00  0.00     0.198 C 
BRANCH  18  19
HETATM   19  O2  UNL     1       3.564  -7.629  35.179  1.00  0.00    -0.398 OA
ATOM     20  H2  UNL     1       3.573  -7.673  36.129  1.00  0.00     0.209 HD
ENDBRANCH  18  19
ENDBRANCH   7  18
TORSDOF 6
ENDMDL
