MODEL 11
REMARK VINA RESULT: -5.769031637      1.969      2.653
REMARK  6 active torsions:
REMARK  status: ('A' for Active; 'I' for Inactive)
REMARK    1  A    between atoms: C2_2  and  C3_3 
REMARK    2  A    between atoms: C3_3  and  C4_4 
REMARK    3  A    between atoms: C7_10  and  C8_11 
REMARK    4  A    between atoms: C8_11  and  O2_12 
REMARK    5  A    between atoms: C9_14  and  O3_15 
REMARK    6  A    between atoms: C10_17  and  O4_18 
ROOT
HETATM    1  C4  UNL     1       3.512  -6.027  35.296  1.00  0.00     0.045 C 
HETATM    2  N1  UNL     1       3.568  -6.889  34.385  1.00  0.00    -0.377 N 
ATOM      3  H1  UNL     1       4.412  -7.450  34.270  1.00  0.00     0.160 HD
HETATM    4  C5  UNL     1       2.492  -7.085  33.535  1.00  0.00     0.152 C 
HETATM    5  C6  UNL     1       1.658  -5.828  33.397  1.00  0.00     0.214 C 
HETATM    6  O1  UNL     1       2.309  -4.920  32.603  1.00  0.00    -0.363 OA
HETATM    7  C7  UNL     1       2.412  -5.321  31.277  1.00  0.00     0.178 C 
HETATM    8  C9  UNL     1       2.200  -6.802  31.108  1.00  0.00     0.180 C 
HETATM    9  C10 UNL     1       3.011  -7.510  32.175  1.00  0.00     0.175 C 
HETATM   10  S1  UNL     1       1.880  -5.256  35.140  1.00  0.00    -0.083 SA
ENDROOT
BRANCH   1  11
HETATM   11  C3  UNL     1       4.515  -5.638  36.319  1.00  0.00     0.064 C 
BRANCH  11  12
HETATM   12  C2  UNL     1       4.909  -6.926  37.045  1.00  0.00     0.002 C 
HETATM   13  C1  UNL     1       5.906  -6.601  38.106  1.00  0.00     0.005 C 
ENDBRANCH  11  12
ENDBRANCH   1  11
BRANCH   9  14
HETATM   14  O4  UNL     1       2.912  -8.874  31.971  1.00  0.00    -0.391 OA
ATOM     15  H4  UNL     1       3.256  -9.378  32.700  1.00  0.00     0.210 HD
ENDBRANCH   9  14
BRANCH   8  16
HETATM   16  O3  UNL     1       2.628  -7.168  29.842  1.00  0.00    -0.390 OA
ATOM     17  H3  UNL     1       3.075  -8.005  29.903  1.00  0.00     0.210 HD
ENDBRANCH   8  16
BRANCH   7  18
HETATM   18  C8  UNL     1       1.386  -4.513  30.495  1.00  0.00     0.198 C 
BRANCH  18  19
HETATM   19  O2  UNL     1       0.226  -5.245  30.254  1.00  0.00    -0.398 OA
ATOM     20  H2  UNL     1      -0.086  -5.129  29.363  1.00  0.00     0.209 HD
ENDBRANCH  18  19
ENDBRANCH   7  18
TORSDOF 6
ENDMDL
