MODEL 5
REMARK VINA RESULT: -6.828263083      2.609      5.387
REMARK  6 active torsions:
REMARK  status: ('A' for Active; 'I' for Inactive)
REMARK    1  A    between atoms: C2_2  and  C3_3 
REMARK    2  A    between atoms: C3_3  and  C4_4 
REMARK    3  A    between atoms: C7_10  and  C8_11 
REMARK    4  A    between atoms: C8_11  and  O2_12 
REMARK    5  A    between atoms: C9_14  and  O3_15 
REMARK    6  A    between atoms: C10_17  and  O4_18 
ROOT
HETATM    1  C4  UNL     1      -0.705  -5.110  30.677  1.00  0.00     0.045 C 
HETATM    2  N1  UNL     1       0.250  -5.858  30.358  1.00  0.00    -0.377 N 
ATOM      3  H1  UNL     1       0.089  -6.640  29.723  1.00  0.00     0.160 HD
HETATM    4  C5  UNL     1       1.520  -5.633  30.861  1.00  0.00     0.152 C 
HETATM    5  C6  UNL     1       1.469  -4.929  32.201  1.00  0.00     0.214 C 
HETATM    6  O1  UNL     1       1.080  -5.809  33.177  1.00  0.00    -0.363 OA
HETATM    7  C7  UNL     1       2.018  -6.801  33.430  1.00  0.00     0.178 C 
HETATM    8  C9  UNL     1       3.010  -6.952  32.308  1.00  0.00     0.180 C 
HETATM    9  C10 UNL     1       2.237  -6.961  31.005  1.00  0.00     0.175 C 
HETATM   10  S1  UNL     1      -0.007  -3.885  31.816  1.00  0.00    -0.083 SA
ENDROOT
BRANCH   1  11
HETATM   11  C3  UNL     1      -2.134  -5.143  30.275  1.00  0.00     0.064 C 
BRANCH  11  12
HETATM   12  C2  UNL     1      -2.724  -6.411  30.897  1.00  0.00     0.002 C 
HETATM   13  C1  UNL     1      -3.056  -6.144  32.326  1.00  0.00     0.005 C 
ENDBRANCH  11  12
ENDBRANCH   1  11
BRANCH   9  14
HETATM   14  O4  UNL     1       3.120  -7.203  29.969  1.00  0.00    -0.391 OA
ATOM     15  H4  UNL     1       4.021  -7.260  30.264  1.00  0.00     0.210 HD
ENDBRANCH   9  14
BRANCH   8  16
HETATM   16  O3  UNL     1       3.696  -8.144  32.481  1.00  0.00    -0.390 OA
ATOM     17  H3  UNL     1       3.851  -8.531  31.627  1.00  0.00     0.210 HD
ENDBRANCH   8  16
BRANCH   7  18
HETATM   18  C8  UNL     1       2.701  -6.433  34.740  1.00  0.00     0.198 C 
BRANCH  18  19
HETATM   19  O2  UNL     1       3.829  -5.642  34.530  1.00  0.00    -0.398 OA
ATOM     20  H2  UNL     1       4.129  -5.235  35.334  1.00  0.00     0.209 HD
ENDBRANCH  18  19
ENDBRANCH   7  18
TORSDOF 6
ENDMDL
