MODEL 4
REMARK VINA RESULT: -6.932622189      2.684      5.858
REMARK  6 active torsions:
REMARK  status: ('A' for Active; 'I' for Inactive)
REMARK    1  A    between atoms: C2_2  and  C3_3 
REMARK    2  A    between atoms: C3_3  and  C4_4 
REMARK    3  A    between atoms: C7_10  and  C8_11 
REMARK    4  A    between atoms: C8_11  and  O2_12 
REMARK    5  A    between atoms: C9_14  and  O3_15 
REMARK    6  A    between atoms: C10_17  and  O4_18 
ROOT
HETATM    1  C4  UNL     1      -1.636  -6.078  30.833  1.00  0.00     0.045 C 
HETATM    2  N1  UNL     1      -0.511  -5.597  30.554  1.00  0.00    -0.377 N 
ATOM      3  H1  UNL     1      -0.168  -5.636  29.595  1.00  0.00     0.160 HD
HETATM    4  C5  UNL     1       0.269  -5.013  31.539  1.00  0.00     0.152 C 
HETATM    5  C6  UNL     1      -0.037  -5.593  32.905  1.00  0.00     0.214 C 
HETATM    6  O1  UNL     1       0.505  -6.847  33.013  1.00  0.00    -0.363 OA
HETATM    7  C7  UNL     1       1.894  -6.848  33.025  1.00  0.00     0.178 C 
HETATM    8  C9  UNL     1       2.473  -5.569  32.481  1.00  0.00     0.180 C 
HETATM    9  C10 UNL     1       1.731  -5.232  31.203  1.00  0.00     0.175 C 
HETATM   10  S1  UNL     1      -1.847  -5.826  32.615  1.00  0.00    -0.083 SA
ENDROOT
BRANCH   1  11
HETATM   11  C3  UNL     1      -2.643  -6.742  29.968  1.00  0.00     0.064 C 
BRANCH  11  12
HETATM   12  C2  UNL     1      -2.535  -6.076  28.595  1.00  0.00     0.002 C 
HETATM   13  C1  UNL     1      -2.800  -7.094  27.537  1.00  0.00     0.005 C 
ENDBRANCH  11  12
ENDBRANCH   1  11
BRANCH   9  14
HETATM   14  O4  UNL     1       2.318  -4.118  30.633  1.00  0.00    -0.391 OA
ATOM     15  H4  UNL     1       2.873  -4.335  29.894  1.00  0.00     0.210 HD
ENDBRANCH   9  14
BRANCH   8  16
HETATM   16  O3  UNL     1       3.821  -5.766  32.229  1.00  0.00    -0.390 OA
ATOM     17  H3  UNL     1       4.320  -5.134  32.734  1.00  0.00     0.210 HD
ENDBRANCH   8  16
BRANCH   7  18
HETATM   18  C8  UNL     1       2.317  -7.088  34.467  1.00  0.00     0.198 C 
BRANCH  18  19
HETATM   19  O2  UNL     1       3.603  -7.618  34.548  1.00  0.00    -0.398 OA
ATOM     20  H2  UNL     1       3.739  -8.092  35.360  1.00  0.00     0.209 HD
ENDBRANCH  18  19
ENDBRANCH   7  18
TORSDOF 6
ENDMDL
