MODEL 1
REMARK VINA RESULT: -7.632869788      0.000      0.000
REMARK  6 active torsions:
REMARK  status: ('A' for Active; 'I' for Inactive)
REMARK    1  A    between atoms: N1_5  and  C4_6 
REMARK    2  A    between atoms: C5_8  and  C6_9 
REMARK    3  A    between atoms: C6_9  and  O3_10 
REMARK    4  A    between atoms: O3_10  and  P1_11 
REMARK    5  A    between atoms: C7_15  and  O7_16 
REMARK    6  A    between atoms: C8_18  and  O8_19 
ROOT
HETATM    1  C4  UNL     1      40.534   9.567   0.637  1.00  0.00     0.263 C 
HETATM    2  O2  UNL     1      40.468  10.919   1.062  1.00  0.00    -0.353 OA
HETATM    3  C5  UNL     1      41.561  11.513   0.604  1.00  0.00     0.180 C 
HETATM    4  C7  UNL     1      42.007  10.800  -0.635  1.00  0.00     0.182 C 
HETATM    5  C8  UNL     1      41.864   9.381  -0.027  1.00  0.00     0.198 C 
ENDROOT
BRANCH   1   6
HETATM    6  N1  UNL     1      39.373   9.307  -0.126  1.00  0.00    -0.280 N 
HETATM    7  C3  UNL     1      38.549  10.271  -0.519  1.00  0.00     0.104 A 
HETATM    8  C2  UNL     1      37.442   9.948  -1.306  1.00  0.00     0.092 A 
HETATM    9  C1  UNL     1      37.213   8.640  -1.678  1.00  0.00     0.250 A 
HETATM   10  O1  UNL     1      36.245   8.383  -2.381  1.00  0.00    -0.268 OA
HETATM   11  N2  UNL     1      38.105   7.700  -1.237  1.00  0.00    -0.275 N 
HETATM   12  C9  UNL     1      39.143   8.019  -0.481  1.00  0.00     0.331 A 
ATOM     13  H2  UNL     1      37.965   6.724  -1.500  1.00  0.00     0.173 HD
HETATM   14  O9  UNL     1      39.885   7.050  -0.101  1.00  0.00    -0.246 OA
ENDBRANCH   1   6
BRANCH   5  15
HETATM   15  O8  UNL     1      42.835   9.369   0.988  1.00  0.00    -0.388 OA
ATOM     16  H8  UNL     1      42.698   8.578   1.497  1.00  0.00     0.210 HD
ENDBRANCH   5  15
BRANCH   3  17
HETATM   17  C6  UNL     1      41.714  12.989   0.581  1.00  0.00     0.217 C 
BRANCH  17  18
HETATM   18  O3  UNL     1      41.645  13.239  -0.849  1.00  0.00    -0.280 OA
BRANCH  18  19
HETATM   19  P1  UNL     1      40.321  14.216  -1.098  1.00  0.00     0.422 P 
HETATM   20  O4  UNL     1      39.765  13.986  -2.522  1.00  0.00    -0.617 OA
HETATM   21  O5  UNL     1      40.662  15.815  -0.893  1.00  0.00    -0.617 OA
HETATM   22  O6  UNL     1      39.051  13.758  -0.007  1.00  0.00    -0.617 OA
ENDBRANCH  18  19
ENDBRANCH  17  18
ENDBRANCH   3  17
BRANCH   4  23
HETATM   23  O7  UNL     1      43.334  11.030  -0.985  1.00  0.00    -0.390 OA
ATOM     24  H7  UNL     1      43.895  10.264  -0.927  1.00  0.00     0.210 HD
ENDBRANCH   4  23
TORSDOF 6
ENDMDL
