MODEL 11
REMARK VINA RESULT: -7.129883963      2.762      4.714
REMARK  6 active torsions:
REMARK  status: ('A' for Active; 'I' for Inactive)
REMARK    1  A    between atoms: N1_5  and  C4_6 
REMARK    2  A    between atoms: C5_8  and  C6_9 
REMARK    3  A    between atoms: C6_9  and  O3_10 
REMARK    4  A    between atoms: O3_10  and  P1_11 
REMARK    5  A    between atoms: C7_15  and  O7_16 
REMARK    6  A    between atoms: C8_18  and  O8_19 
ROOT
HETATM    1  C4  UNL     1      40.591  13.926   0.118  1.00  0.00     0.263 C 
HETATM    2  O2  UNL     1      39.876  14.337  -1.036  1.00  0.00    -0.353 OA
HETATM    3  C5  UNL     1      40.693  15.120  -1.727  1.00  0.00     0.180 C 
HETATM    4  C7  UNL     1      42.104  14.717  -1.428  1.00  0.00     0.182 C 
HETATM    5  C8  UNL     1      41.898  14.656   0.108  1.00  0.00     0.198 C 
ENDROOT
BRANCH   1   6
HETATM    6  N1  UNL     1      40.623  12.513   0.112  1.00  0.00    -0.280 N 
HETATM    7  C3  UNL     1      41.696  11.827  -0.267  1.00  0.00     0.104 A 
HETATM    8  C2  UNL     1      41.674  10.432  -0.208  1.00  0.00     0.092 A 
HETATM    9  C1  UNL     1      40.551   9.775   0.247  1.00  0.00     0.250 A 
HETATM   10  O1  UNL     1      40.561   8.552   0.304  1.00  0.00    -0.268 OA
HETATM   11  N2  UNL     1      39.484  10.545   0.621  1.00  0.00    -0.275 N 
HETATM   12  C9  UNL     1      39.514  11.867   0.549  1.00  0.00     0.331 A 
ATOM     13  H2  UNL     1      38.640  10.088   0.967  1.00  0.00     0.173 HD
HETATM   14  O9  UNL     1      38.445  12.476   0.892  1.00  0.00    -0.246 OA
ENDBRANCH   1   6
BRANCH   5  15
HETATM   15  O8  UNL     1      41.629  15.992   0.448  1.00  0.00    -0.388 OA
ATOM     16  H8  UNL     1      42.430  16.357   0.806  1.00  0.00     0.210 HD
ENDBRANCH   5  15
BRANCH   3  17
HETATM   17  C6  UNL     1      40.425  15.504  -3.135  1.00  0.00     0.217 C 
BRANCH  17  18
HETATM   18  O3  UNL     1      39.708  16.753  -2.936  1.00  0.00    -0.280 OA
BRANCH  18  19
HETATM   19  P1  UNL     1      40.664  17.957  -3.571  1.00  0.00     0.422 P 
HETATM   20  O4  UNL     1      41.015  18.981  -2.467  1.00  0.00    -0.617 OA
HETATM   21  O5  UNL     1      39.951  18.737  -4.835  1.00  0.00    -0.617 OA
HETATM   22  O6  UNL     1      42.174  17.281  -4.095  1.00  0.00    -0.617 OA
ENDBRANCH  18  19
ENDBRANCH  17  18
ENDBRANCH   3  17
BRANCH   4  23
HETATM   23  O7  UNL     1      43.057  15.685  -1.736  1.00  0.00    -0.390 OA
ATOM     24  H7  UNL     1      42.913  16.128  -2.564  1.00  0.00     0.210 HD
ENDBRANCH   4  23
TORSDOF 6
ENDMDL
