MODEL 2
REMARK VINA RESULT: -7.600036345      1.639      2.077
REMARK  6 active torsions:
REMARK  status: ('A' for Active; 'I' for Inactive)
REMARK    1  A    between atoms: N1_5  and  C4_6 
REMARK    2  A    between atoms: C5_8  and  C6_9 
REMARK    3  A    between atoms: C6_9  and  O3_10 
REMARK    4  A    between atoms: O3_10  and  P1_11 
REMARK    5  A    between atoms: C7_15  and  O7_16 
REMARK    6  A    between atoms: C8_18  and  O8_19 
ROOT
HETATM    1  C4  UNL     1      40.306  10.790  -0.053  1.00  0.00     0.263 C 
HETATM    2  O2  UNL     1      39.896  12.148  -0.052  1.00  0.00    -0.353 OA
HETATM    3  C5  UNL     1      40.753  12.802  -0.823  1.00  0.00     0.180 C 
HETATM    4  C7  UNL     1      41.301  11.849  -1.840  1.00  0.00     0.182 C 
HETATM    5  C8  UNL     1      41.593  10.722  -0.817  1.00  0.00     0.198 C 
ENDROOT
BRANCH   1   6
HETATM    6  N1  UNL     1      39.217  10.020  -0.522  1.00  0.00    -0.280 N 
HETATM    7  C3  UNL     1      38.140  10.571  -1.070  1.00  0.00     0.104 A 
HETATM    8  C2  UNL     1      37.119   9.749  -1.550  1.00  0.00     0.092 A 
HETATM    9  C1  UNL     1      37.234   8.378  -1.463  1.00  0.00     0.250 A 
HETATM   10  O1  UNL     1      36.332   7.677  -1.904  1.00  0.00    -0.268 OA
HETATM   11  N2  UNL     1      38.372   7.881  -0.888  1.00  0.00    -0.275 N 
HETATM   12  C9  UNL     1      39.327   8.673  -0.425  1.00  0.00     0.331 A 
ATOM     13  H2  UNL     1      38.488   6.870  -0.813  1.00  0.00     0.173 HD
HETATM   14  O9  UNL     1      40.325   8.094   0.123  1.00  0.00    -0.246 OA
ENDBRANCH   1   6
BRANCH   5  15
HETATM   15  O8  UNL     1      42.590  11.280  -0.000  1.00  0.00    -0.388 OA
ATOM     16  H8  UNL     1      42.480  10.910   0.868  1.00  0.00     0.210 HD
ENDBRANCH   5  15
BRANCH   3  17
HETATM   17  C6  UNL     1      40.491  14.178  -1.314  1.00  0.00     0.217 C 
BRANCH  17  18
HETATM   18  O3  UNL     1      39.839  13.887  -2.581  1.00  0.00    -0.280 OA
BRANCH  18  19
HETATM   19  P1  UNL     1      40.306  15.080  -3.642  1.00  0.00     0.422 P 
HETATM   20  O4  UNL     1      41.840  15.041  -3.828  1.00  0.00    -0.617 OA
HETATM   21  O5  UNL     1      39.852  16.585  -3.148  1.00  0.00    -0.617 OA
HETATM   22  O6  UNL     1      39.624  14.763  -5.206  1.00  0.00    -0.617 OA
ENDBRANCH  18  19
ENDBRANCH  17  18
ENDBRANCH   3  17
BRANCH   4  23
HETATM   23  O7  UNL     1      42.490  12.263  -2.435  1.00  0.00    -0.390 OA
ATOM     24  H7  UNL     1      43.233  12.301  -1.843  1.00  0.00     0.210 HD
ENDBRANCH   4  23
TORSDOF 6
ENDMDL
