MODEL 7
REMARK VINA RESULT: -7.329148703      1.437      1.743
REMARK  6 active torsions:
REMARK  status: ('A' for Active; 'I' for Inactive)
REMARK    1  A    between atoms: N1_5  and  C4_6 
REMARK    2  A    between atoms: C5_8  and  C6_9 
REMARK    3  A    between atoms: C6_9  and  O3_10 
REMARK    4  A    between atoms: O3_10  and  P1_11 
REMARK    5  A    between atoms: C7_15  and  O7_16 
REMARK    6  A    between atoms: C8_18  and  O8_19 
ROOT
HETATM    1  C4  UNL     1      40.396  10.118   0.648  1.00  0.00     0.263 C 
HETATM    2  O2  UNL     1      40.099  11.440   1.067  1.00  0.00    -0.353 OA
HETATM    3  C5  UNL     1      41.063  12.214   0.589  1.00  0.00     0.180 C 
HETATM    4  C7  UNL     1      41.608  11.582  -0.654  1.00  0.00     0.182 C 
HETATM    5  C8  UNL     1      41.727  10.164  -0.038  1.00  0.00     0.198 C 
ENDROOT
BRANCH   1   6
HETATM    6  N1  UNL     1      39.287   9.652  -0.094  1.00  0.00    -0.280 N 
HETATM    7  C3  UNL     1      38.343  10.468  -0.551  1.00  0.00     0.104 A 
HETATM    8  C2  UNL     1      37.296   9.945  -1.313  1.00  0.00     0.092 A 
HETATM    9  C1  UNL     1      37.249   8.596  -1.595  1.00  0.00     0.250 A 
HETATM   10  O1  UNL     1      36.330   8.164  -2.278  1.00  0.00    -0.268 OA
HETATM   11  N2  UNL     1      38.256   7.817  -1.093  1.00  0.00    -0.275 N 
HETATM   12  C9  UNL     1      39.236   8.324  -0.361  1.00  0.00     0.331 A 
ATOM     13  H2  UNL     1      38.251   6.816  -1.289  1.00  0.00     0.173 HD
HETATM   14  O9  UNL     1      40.098   7.493   0.082  1.00  0.00    -0.246 OA
ENDBRANCH   1   6
BRANCH   5  15
HETATM   15  O8  UNL     1      42.701  10.330   0.961  1.00  0.00    -0.388 OA
ATOM     16  H8  UNL     1      43.098   9.480   1.109  1.00  0.00     0.210 HD
ENDBRANCH   5  15
BRANCH   3  17
HETATM   17  C6  UNL     1      40.954  13.693   0.557  1.00  0.00     0.217 C 
BRANCH  17  18
HETATM   18  O3  UNL     1      42.249  14.066   1.102  1.00  0.00    -0.280 OA
BRANCH  18  19
HETATM   19  P1  UNL     1      42.708  15.465   0.326  1.00  0.00     0.422 P 
HETATM   20  O4  UNL     1      43.335  15.118  -1.043  1.00  0.00    -0.617 OA
HETATM   21  O5  UNL     1      43.772  16.362   1.207  1.00  0.00    -0.617 OA
HETATM   22  O6  UNL     1      41.302  16.422  -0.019  1.00  0.00    -0.617 OA
ENDBRANCH  18  19
ENDBRANCH  17  18
ENDBRANCH   3  17
BRANCH   4  23
HETATM   23  O7  UNL     1      42.869  12.038  -1.028  1.00  0.00    -0.390 OA
ATOM     24  H7  UNL     1      42.859  12.771  -1.634  1.00  0.00     0.210 HD
ENDBRANCH   4  23
TORSDOF 6
ENDMDL
