MODEL 5
REMARK VINA RESULT: -7.441553404      4.076      7.277
REMARK  6 active torsions:
REMARK  status: ('A' for Active; 'I' for Inactive)
REMARK    1  A    between atoms: N1_5  and  C4_6 
REMARK    2  A    between atoms: C5_8  and  C6_9 
REMARK    3  A    between atoms: C6_9  and  O3_10 
REMARK    4  A    between atoms: O3_10  and  P1_11 
REMARK    5  A    between atoms: C7_15  and  O7_16 
REMARK    6  A    between atoms: C8_18  and  O8_19 
ROOT
HETATM    1  C4  UNL     1      41.058  15.334  -1.530  1.00  0.00     0.263 C 
HETATM    2  O2  UNL     1      40.628  14.831  -0.275  1.00  0.00    -0.353 OA
HETATM    3  C5  UNL     1      40.640  13.510  -0.373  1.00  0.00     0.180 C 
HETATM    4  C7  UNL     1      41.668  13.117  -1.389  1.00  0.00     0.182 C 
HETATM    5  C8  UNL     1      41.211  14.157  -2.444  1.00  0.00     0.198 C 
ENDROOT
BRANCH   1   6
HETATM    6  N1  UNL     1      42.195  16.140  -1.295  1.00  0.00    -0.280 N 
HETATM    7  C3  UNL     1      43.425  15.739  -1.595  1.00  0.00     0.104 A 
HETATM    8  C2  UNL     1      44.500  16.603  -1.375  1.00  0.00     0.092 A 
HETATM    9  C1  UNL     1      44.283  17.863  -0.859  1.00  0.00     0.250 A 
HETATM   10  O1  UNL     1      45.239  18.608  -0.689  1.00  0.00    -0.268 OA
HETATM   11  N2  UNL     1      42.990  18.208  -0.576  1.00  0.00    -0.275 N 
HETATM   12  C9  UNL     1      41.981  17.374  -0.778  1.00  0.00     0.331 A 
ATOM     13  H2  UNL     1      42.796  19.136  -0.198  1.00  0.00     0.173 HD
HETATM   14  O9  UNL     1      40.823  17.796  -0.441  1.00  0.00    -0.246 OA
ENDBRANCH   1   6
BRANCH   5  15
HETATM   15  O8  UNL     1      39.917  13.724  -2.781  1.00  0.00    -0.388 OA
ATOM     16  H8  UNL     1      40.013  13.027  -3.420  1.00  0.00     0.210 HD
ENDBRANCH   5  15
BRANCH   3  17
HETATM   17  C6  UNL     1      40.545  12.623   0.814  1.00  0.00     0.217 C 
BRANCH  17  18
HETATM   18  O3  UNL     1      39.105  12.594   1.007  1.00  0.00    -0.280 OA
BRANCH  18  19
HETATM   19  P1  UNL     1      38.562  11.177   0.324  1.00  0.00     0.422 P 
HETATM   20  O4  UNL     1      39.276   9.975   0.983  1.00  0.00    -0.617 OA
HETATM   21  O5  UNL     1      38.791  11.126  -1.306  1.00  0.00    -0.617 OA
HETATM   22  O6  UNL     1      36.872  10.979   0.670  1.00  0.00    -0.617 OA
ENDBRANCH  18  19
ENDBRANCH  17  18
ENDBRANCH   3  17
BRANCH   4  23
HETATM   23  O7  UNL     1      41.511  11.831  -1.899  1.00  0.00    -0.390 OA
ATOM     24  H7  UNL     1      42.029  11.167  -1.458  1.00  0.00     0.210 HD
ENDBRANCH   4  23
TORSDOF 6
ENDMDL
