MODEL 6
REMARK VINA RESULT: -7.394507576      0.921      1.163
REMARK  6 active torsions:
REMARK  status: ('A' for Active; 'I' for Inactive)
REMARK    1  A    between atoms: N1_5  and  C4_6 
REMARK    2  A    between atoms: C5_8  and  C6_9 
REMARK    3  A    between atoms: C6_9  and  O3_10 
REMARK    4  A    between atoms: O3_10  and  P1_11 
REMARK    5  A    between atoms: C7_15  and  O7_16 
REMARK    6  A    between atoms: C8_18  and  O8_19 
ROOT
HETATM    1  C4  UNL     1      40.415   9.976   0.532  1.00  0.00     0.263 C 
HETATM    2  O2  UNL     1      40.133  11.278   1.019  1.00  0.00    -0.353 OA
HETATM    3  C5  UNL     1      41.071  12.075   0.531  1.00  0.00     0.180 C 
HETATM    4  C7  UNL     1      41.562  11.499  -0.761  1.00  0.00     0.182 C 
HETATM    5  C8  UNL     1      41.714  10.058  -0.210  1.00  0.00     0.198 C 
ENDROOT
BRANCH   1   6
HETATM    6  N1  UNL     1      39.275   9.535  -0.179  1.00  0.00    -0.280 N 
HETATM    7  C3  UNL     1      38.337  10.371  -0.608  1.00  0.00     0.104 A 
HETATM    8  C2  UNL     1      37.258   9.873  -1.341  1.00  0.00     0.092 A 
HETATM    9  C1  UNL     1      37.174   8.526  -1.623  1.00  0.00     0.250 A 
HETATM   10  O1  UNL     1      36.226   8.114  -2.280  1.00  0.00    -0.268 OA
HETATM   11  N2  UNL     1      38.177   7.725  -1.151  1.00  0.00    -0.275 N 
HETATM   12  C9  UNL     1      39.188   8.209  -0.446  1.00  0.00     0.331 A 
ATOM     13  H2  UNL     1      38.145   6.724  -1.347  1.00  0.00     0.173 HD
HETATM   14  O9  UNL     1      40.045   7.358  -0.028  1.00  0.00    -0.246 OA
ENDBRANCH   1   6
BRANCH   5  15
HETATM   15  O8  UNL     1      42.731  10.187   0.751  1.00  0.00    -0.388 OA
ATOM     16  H8  UNL     1      43.557  10.046   0.304  1.00  0.00     0.210 HD
ENDBRANCH   5  15
BRANCH   3  17
HETATM   17  C6  UNL     1      40.955  13.555   0.566  1.00  0.00     0.217 C 
BRANCH  17  18
HETATM   18  O3  UNL     1      40.280  13.796  -0.699  1.00  0.00    -0.280 OA
BRANCH  18  19
HETATM   19  P1  UNL     1      40.898  15.217  -1.304  1.00  0.00     0.422 P 
HETATM   20  O4  UNL     1      42.212  14.930  -2.067  1.00  0.00    -0.617 OA
HETATM   21  O5  UNL     1      41.178  16.341  -0.133  1.00  0.00    -0.617 OA
HETATM   22  O6  UNL     1      39.798  15.874  -2.475  1.00  0.00    -0.617 OA
ENDBRANCH  18  19
ENDBRANCH  17  18
ENDBRANCH   3  17
BRANCH   4  23
HETATM   23  O7  UNL     1      42.803  11.978  -1.170  1.00  0.00    -0.390 OA
ATOM     24  H7  UNL     1      42.782  12.493  -1.969  1.00  0.00     0.210 HD
ENDBRANCH   4  23
TORSDOF 6
ENDMDL
