MODEL 10
REMARK VINA RESULT: -7.194956942      2.877      4.935
REMARK  6 active torsions:
REMARK  status: ('A' for Active; 'I' for Inactive)
REMARK    1  A    between atoms: N1_5  and  C4_6 
REMARK    2  A    between atoms: C5_8  and  C6_9 
REMARK    3  A    between atoms: C6_9  and  O3_10 
REMARK    4  A    between atoms: O3_10  and  P1_11 
REMARK    5  A    between atoms: C7_15  and  O7_16 
REMARK    6  A    between atoms: C8_18  and  O8_19 
ROOT
HETATM    1  C4  UNL     1      41.539  14.176   1.133  1.00  0.00     0.263 C 
HETATM    2  O2  UNL     1      40.869  14.916   0.125  1.00  0.00    -0.353 OA
HETATM    3  C5  UNL     1      41.796  15.624  -0.504  1.00  0.00     0.180 C 
HETATM    4  C7  UNL     1      43.102  14.899  -0.397  1.00  0.00     0.182 C 
HETATM    5  C8  UNL     1      42.970  14.618   1.122  1.00  0.00     0.198 C 
ENDROOT
BRANCH   1   6
HETATM    6  N1  UNL     1      41.268  12.808   0.903  1.00  0.00    -0.280 N 
HETATM    7  C3  UNL     1      42.228  11.892   0.849  1.00  0.00     0.104 A 
HETATM    8  C2  UNL     1      41.887  10.551   0.660  1.00  0.00     0.092 A 
HETATM    9  C1  UNL     1      40.563  10.183   0.538  1.00  0.00     0.250 A 
HETATM   10  O1  UNL     1      40.287   9.000   0.388  1.00  0.00    -0.268 OA
HETATM   11  N2  UNL     1      39.628  11.180   0.605  1.00  0.00    -0.275 N 
HETATM   12  C9  UNL     1      39.968  12.449   0.772  1.00  0.00     0.331 A 
ATOM     13  H2  UNL     1      38.640  10.938   0.523  1.00  0.00     0.173 HD
HETATM   14  O9  UNL     1      39.009  13.294   0.782  1.00  0.00    -0.246 OA
ENDBRANCH   1   6
BRANCH   5  15
HETATM   15  O8  UNL     1      43.011  15.902   1.690  1.00  0.00    -0.388 OA
ATOM     16  H8  UNL     1      43.403  15.815   2.551  1.00  0.00     0.210 HD
ENDBRANCH   5  15
BRANCH   3  17
HETATM   17  C6  UNL     1      41.542  16.290  -1.805  1.00  0.00     0.217 C 
BRANCH  17  18
HETATM   18  O3  UNL     1      41.080  17.591  -1.350  1.00  0.00    -0.280 OA
BRANCH  18  19
HETATM   19  P1  UNL     1      42.418  18.577  -1.287  1.00  0.00     0.422 P 
HETATM   20  O4  UNL     1      41.991  20.048  -1.498  1.00  0.00    -0.617 OA
HETATM   21  O5  UNL     1      43.561  18.172  -2.403  1.00  0.00    -0.617 OA
HETATM   22  O6  UNL     1      43.117  18.504   0.299  1.00  0.00    -0.617 OA
ENDBRANCH  18  19
ENDBRANCH  17  18
ENDBRANCH   3  17
BRANCH   4  23
HETATM   23  O7  UNL     1      44.222  15.692  -0.632  1.00  0.00    -0.390 OA
ATOM     24  H7  UNL     1      44.205  16.161  -1.458  1.00  0.00     0.210 HD
ENDBRANCH   4  23
TORSDOF 6
ENDMDL
