MODEL 6
REMARK VINA RESULT: -8.857759186      6.333      8.952
REMARK  9 active torsions:
REMARK  status: ('A' for Active; 'I' for Inactive)
REMARK    1  A    between atoms: C2_2  and  C4_4 
REMARK       I    between atoms: C4_4  and  N1_6 
REMARK    2  A    between atoms: N1_6  and  C5_8 
REMARK    3  A    between atoms: C7_12  and  C8_13 
REMARK    4  A    between atoms: C8_13  and  C9_14 
REMARK    5  A    between atoms: C9_14  and  C10_15 
REMARK    6  A    between atoms: C17_23  and  C18_24 
REMARK    7  A    between atoms: C18_24  and  O2_25 
REMARK    8  A    between atoms: C19_27  and  O3_28 
REMARK    9  A    between atoms: C20_30  and  O4_31 
ROOT
HETATM    1  C5  UNL     1      35.820  38.550  13.331  1.00  0.00     0.183 C 
HETATM    2  C6  UNL     1      34.903  39.564  13.908  1.00  0.00     0.110 A 
HETATM    3  N2  UNL     1      33.706  39.491  14.549  1.00  0.00    -0.346 N 
ATOM      4  H2  UNL     1      33.206  38.625  14.751  1.00  0.00     0.167 HD
HETATM    5  C7  UNL     1      33.279  40.711  14.877  1.00  0.00     0.026 A 
HETATM    6  C16 UNL     1      34.247  41.582  14.424  1.00  0.00     0.118 A 
HETATM    7  N3  UNL     1      35.244  40.856  13.827  1.00  0.00    -0.334 N 
HETATM    8  C17 UNL     1      36.428  41.391  13.230  1.00  0.00     0.145 C 
HETATM    9  C19 UNL     1      37.292  40.313  12.637  1.00  0.00     0.174 C 
HETATM   10  C20 UNL     1      37.223  39.041  13.493  1.00  0.00     0.179 C 
ENDROOT
BRANCH   5  11
HETATM   11  C8  UNL     1      32.006  41.045  15.591  1.00  0.00     0.063 C 
BRANCH  11  12
HETATM   12  C9  UNL     1      31.816  39.969  16.665  1.00  0.00     0.044 C 
BRANCH  12  13
HETATM   13  C10 UNL     1      30.815  40.363  17.667  1.00  0.00    -0.058 A 
HETATM   14  C11 UNL     1      31.081  40.190  19.005  1.00  0.00     0.007 A 
HETATM   15  C12 UNL     1      30.096  40.581  19.911  1.00  0.00     0.001 A 
HETATM   16  C13 UNL     1      28.892  41.125  19.484  1.00  0.00     0.000 A 
HETATM   17  C14 UNL     1      28.635  41.293  18.149  1.00  0.00     0.001 A 
HETATM   18  C15 UNL     1      29.618  40.903  17.244  1.00  0.00     0.007 A 
ENDBRANCH  12  13
ENDBRANCH  11  12
ENDBRANCH   5  11
BRANCH   1  19
HETATM   19  N1  UNL     1      35.605  37.237  13.889  1.00  0.00    -0.347 N 
HETATM   20  C4  UNL     1      35.789  36.033  13.167  1.00  0.00     0.221 C 
HETATM   21  O1  UNL     1      36.162  36.090  11.965  1.00  0.00    -0.273 OA
ATOM     22  H1  UNL     1      35.303  37.172  14.862  1.00  0.00     0.163 HD
BRANCH  20  23
HETATM   23  C2  UNL     1      35.529  34.758  13.873  1.00  0.00     0.070 C 
HETATM   24  C1  UNL     1      35.802  33.619  12.933  1.00  0.00     0.019 C 
HETATM   25  C3  UNL     1      34.157  34.678  14.461  1.00  0.00     0.019 C 
ENDBRANCH  20  23
ENDBRANCH   1  19
BRANCH   8  26
HETATM   26  C18 UNL     1      36.000  42.340  12.128  1.00  0.00     0.192 C 
BRANCH  26  27
HETATM   27  O2  UNL     1      36.674  42.114  10.938  1.00  0.00    -0.399 OA
ATOM     28  H2  UNL     1      37.606  42.280  11.009  1.00  0.00     0.209 HD
ENDBRANCH  26  27
ENDBRANCH   8  26
BRANCH  10  29
HETATM   29  O4  UNL     1      38.131  38.148  12.920  1.00  0.00    -0.390 OA
ATOM     30  H4  UNL     1      38.879  38.610  12.561  1.00  0.00     0.210 HD
ENDBRANCH  10  29
BRANCH   9  31
HETATM   31  O3  UNL     1      38.593  40.711  12.444  1.00  0.00    -0.391 OA
ATOM     32  H3  UNL     1      38.852  41.426  13.014  1.00  0.00     0.210 HD
ENDBRANCH   9  31
TORSDOF 9
ENDMDL
