MODEL 1
REMARK VINA RESULT: -10.886630263      0.000      0.000
REMARK  9 active torsions:
REMARK  status: ('A' for Active; 'I' for Inactive)
REMARK    1  A    between atoms: C2_2  and  C4_4 
REMARK       I    between atoms: C4_4  and  N1_6 
REMARK    2  A    between atoms: N1_6  and  C5_8 
REMARK    3  A    between atoms: C7_12  and  C8_13 
REMARK    4  A    between atoms: C8_13  and  C9_14 
REMARK    5  A    between atoms: C9_14  and  C10_15 
REMARK    6  A    between atoms: C17_23  and  C18_24 
REMARK    7  A    between atoms: C18_24  and  O2_25 
REMARK    8  A    between atoms: C19_27  and  O3_28 
REMARK    9  A    between atoms: C20_30  and  O4_31 
ROOT
HETATM    1  C5  UNL     1      32.700  42.401  21.456  1.00  0.00     0.183 C 
HETATM    2  C6  UNL     1      32.151  41.603  20.333  1.00  0.00     0.110 A 
HETATM    3  N2  UNL     1      32.628  41.251  19.109  1.00  0.00    -0.346 N 
ATOM      4  H2  UNL     1      33.542  41.515  18.743  1.00  0.00     0.167 HD
HETATM    5  C7  UNL     1      31.732  40.510  18.456  1.00  0.00     0.026 A 
HETATM    6  C16 UNL     1      30.651  40.393  19.305  1.00  0.00     0.118 A 
HETATM    7  N3  UNL     1      30.927  41.075  20.461  1.00  0.00    -0.334 N 
HETATM    8  C17 UNL     1      30.059  41.195  21.591  1.00  0.00     0.145 C 
HETATM    9  C19 UNL     1      30.665  42.044  22.674  1.00  0.00     0.174 C 
HETATM   10  C20 UNL     1      32.184  41.828  22.736  1.00  0.00     0.179 C 
ENDROOT
BRANCH   5  11
HETATM   11  C8  UNL     1      31.887  39.932  17.084  1.00  0.00     0.063 C 
BRANCH  11  12
HETATM   12  C9  UNL     1      31.467  41.029  16.101  1.00  0.00     0.044 C 
BRANCH  12  13
HETATM   13  C10 UNL     1      30.008  41.084  15.929  1.00  0.00    -0.058 A 
HETATM   14  C11 UNL     1      29.342  40.007  15.393  1.00  0.00     0.007 A 
HETATM   15  C12 UNL     1      27.958  40.114  15.252  1.00  0.00     0.001 A 
HETATM   16  C13 UNL     1      27.276  41.260  15.637  1.00  0.00     0.000 A 
HETATM   17  C14 UNL     1      27.949  42.329  16.169  1.00  0.00     0.001 A 
HETATM   18  C15 UNL     1      29.329  42.223  16.309  1.00  0.00     0.007 A 
ENDBRANCH  12  13
ENDBRANCH  11  12
ENDBRANCH   5  11
BRANCH   1  19
HETATM   19  N1  UNL     1      34.140  42.493  21.409  1.00  0.00    -0.347 N 
HETATM   20  C4  UNL     1      35.010  41.590  22.067  1.00  0.00     0.221 C 
HETATM   21  O1  UNL     1      34.518  40.644  22.737  1.00  0.00    -0.273 OA
ATOM     22  H1  UNL     1      34.555  43.254  20.870  1.00  0.00     0.163 HD
BRANCH  20  23
HETATM   23  C2  UNL     1      36.467  41.811  21.928  1.00  0.00     0.070 C 
HETATM   24  C1  UNL     1      37.193  40.616  22.476  1.00  0.00     0.019 C 
HETATM   25  C3  UNL     1      36.934  43.083  22.560  1.00  0.00     0.019 C 
ENDBRANCH  20  23
ENDBRANCH   1  19
BRANCH   8  26
HETATM   26  C18 UNL     1      28.773  41.845  21.118  1.00  0.00     0.192 C 
BRANCH  26  27
HETATM   27  O2  UNL     1      27.764  40.923  20.886  1.00  0.00    -0.399 OA
ATOM     28  H2  UNL     1      26.935  41.335  20.675  1.00  0.00     0.209 HD
ENDBRANCH  26  27
ENDBRANCH   8  26
BRANCH  10  29
HETATM   29  O4  UNL     1      32.628  42.574  23.830  1.00  0.00    -0.390 OA
ATOM     30  H4  UNL     1      31.942  43.148  24.150  1.00  0.00     0.210 HD
ENDBRANCH  10  29
BRANCH   9  31
HETATM   31  O3  UNL     1      30.085  41.842  23.903  1.00  0.00    -0.391 OA
ATOM     32  H3  UNL     1      30.717  41.801  24.611  1.00  0.00     0.210 HD
ENDBRANCH   9  31
TORSDOF 9
ENDMDL
