MODEL 5
REMARK VINA RESULT: -8.986041960      2.944      7.245
REMARK  9 active torsions:
REMARK  status: ('A' for Active; 'I' for Inactive)
REMARK    1  A    between atoms: C2_2  and  C4_4 
REMARK       I    between atoms: C4_4  and  N1_6 
REMARK    2  A    between atoms: N1_6  and  C5_8 
REMARK    3  A    between atoms: C7_12  and  C8_13 
REMARK    4  A    between atoms: C8_13  and  C9_14 
REMARK    5  A    between atoms: C9_14  and  C10_15 
REMARK    6  A    between atoms: C17_23  and  C18_24 
REMARK    7  A    between atoms: C18_24  and  O2_25 
REMARK    8  A    between atoms: C19_27  and  O3_28 
REMARK    9  A    between atoms: C20_30  and  O4_31 
ROOT
HETATM    1  C5  UNL     1      31.156  39.922  16.994  1.00  0.00     0.183 C 
HETATM    2  C6  UNL     1      31.323  40.695  18.249  1.00  0.00     0.110 A 
HETATM    3  N2  UNL     1      32.337  40.824  19.145  1.00  0.00    -0.346 N 
ATOM      4  H2  UNL     1      33.239  40.353  19.076  1.00  0.00     0.167 HD
HETATM    5  C7  UNL     1      31.987  41.656  20.127  1.00  0.00     0.026 A 
HETATM    6  C16 UNL     1      30.704  42.064  19.834  1.00  0.00     0.118 A 
HETATM    7  N3  UNL     1      30.307  41.460  18.669  1.00  0.00    -0.334 N 
HETATM    8  C17 UNL     1      29.039  41.624  18.029  1.00  0.00     0.145 C 
HETATM    9  C19 UNL     1      28.928  40.787  16.785  1.00  0.00     0.174 C 
HETATM   10  C20 UNL     1      30.284  40.709  16.070  1.00  0.00     0.179 C 
ENDROOT
BRANCH   5  11
HETATM   11  C8  UNL     1      32.831  42.053  21.299  1.00  0.00     0.063 C 
BRANCH  11  12
HETATM   12  C9  UNL     1      33.728  40.852  21.615  1.00  0.00     0.044 C 
BRANCH  12  13
HETATM   13  C10 UNL     1      35.081  41.266  22.014  1.00  0.00    -0.058 A 
HETATM   14  C11 UNL     1      35.373  42.602  22.154  1.00  0.00     0.007 A 
HETATM   15  C12 UNL     1      36.673  42.938  22.534  1.00  0.00     0.001 A 
HETATM   16  C13 UNL     1      37.636  41.965  22.765  1.00  0.00     0.000 A 
HETATM   17  C14 UNL     1      37.335  40.636  22.623  1.00  0.00     0.001 A 
HETATM   18  C15 UNL     1      36.038  40.300  22.243  1.00  0.00     0.007 A 
ENDBRANCH  12  13
ENDBRANCH  11  12
ENDBRANCH   5  11
BRANCH   1  19
HETATM   19  N1  UNL     1      32.422  39.549  16.409  1.00  0.00    -0.347 N 
HETATM   20  C4  UNL     1      33.142  40.363  15.501  1.00  0.00     0.221 C 
HETATM   21  O1  UNL     1      32.667  41.482  15.173  1.00  0.00    -0.273 OA
ATOM     22  H1  UNL     1      32.821  38.645  16.664  1.00  0.00     0.163 HD
BRANCH  20  23
HETATM   23  C2  UNL     1      34.429  39.847  14.983  1.00  0.00     0.070 C 
HETATM   24  C1  UNL     1      34.604  40.315  13.567  1.00  0.00     0.019 C 
HETATM   25  C3  UNL     1      34.559  38.362  15.099  1.00  0.00     0.019 C 
ENDBRANCH  20  23
ENDBRANCH   1  19
BRANCH   8  26
HETATM   26  C18 UNL     1      27.968  41.191  19.011  1.00  0.00     0.192 C 
BRANCH  26  27
HETATM   27  O2  UNL     1      26.773  40.867  18.387  1.00  0.00    -0.399 OA
ATOM     28  H2  UNL     1      26.800  40.017  17.966  1.00  0.00     0.209 HD
ENDBRANCH  26  27
ENDBRANCH   8  26
BRANCH  10  29
HETATM   29  O4  UNL     1      30.049  40.005  14.887  1.00  0.00    -0.390 OA
ATOM     30  H4  UNL     1      30.670  40.257  14.214  1.00  0.00     0.210 HD
ENDBRANCH  10  29
BRANCH   9  31
HETATM   31  O3  UNL     1      27.941  41.218  15.932  1.00  0.00    -0.391 OA
ATOM     32  H3  UNL     1      28.089  40.959  15.030  1.00  0.00     0.210 HD
ENDBRANCH   9  31
TORSDOF 9
ENDMDL
