MODEL 3
REMARK VINA RESULT: -9.380324961      2.532      7.158
REMARK  9 active torsions:
REMARK  status: ('A' for Active; 'I' for Inactive)
REMARK    1  A    between atoms: C2_2  and  C4_4 
REMARK       I    between atoms: C4_4  and  N1_6 
REMARK    2  A    between atoms: N1_6  and  C5_8 
REMARK    3  A    between atoms: C7_12  and  C8_13 
REMARK    4  A    between atoms: C8_13  and  C9_14 
REMARK    5  A    between atoms: C9_14  and  C10_15 
REMARK    6  A    between atoms: C17_23  and  C18_24 
REMARK    7  A    between atoms: C18_24  and  O2_25 
REMARK    8  A    between atoms: C19_27  and  O3_28 
REMARK    9  A    between atoms: C20_30  and  O4_31 
ROOT
HETATM    1  C5  UNL     1      31.215  40.654  17.146  1.00  0.00     0.183 C 
HETATM    2  C6  UNL     1      31.434  41.144  18.529  1.00  0.00     0.110 A 
HETATM    3  N2  UNL     1      32.541  41.314  19.301  1.00  0.00    -0.346 N 
ATOM      4  H2  UNL     1      33.494  41.106  19.005  1.00  0.00     0.167 HD
HETATM    5  C7  UNL     1      32.203  41.792  20.500  1.00  0.00     0.026 A 
HETATM    6  C16 UNL     1      30.831  41.927  20.477  1.00  0.00     0.118 A 
HETATM    7  N3  UNL     1      30.371  41.522  19.251  1.00  0.00    -0.334 N 
HETATM    8  C17 UNL     1      29.005  41.508  18.831  1.00  0.00     0.145 C 
HETATM    9  C19 UNL     1      28.854  40.970  17.435  1.00  0.00     0.174 C 
HETATM   10  C20 UNL     1      30.049  41.390  16.567  1.00  0.00     0.179 C 
ENDROOT
BRANCH   5  11
HETATM   11  C8  UNL     1      33.138  42.111  21.625  1.00  0.00     0.063 C 
BRANCH  11  12
HETATM   12  C9  UNL     1      34.019  40.874  21.821  1.00  0.00     0.044 C 
BRANCH  12  13
HETATM   13  C10 UNL     1      35.401  41.234  22.173  1.00  0.00    -0.058 A 
HETATM   14  C11 UNL     1      35.776  42.556  22.202  1.00  0.00     0.007 A 
HETATM   15  C12 UNL     1      37.099  42.840  22.542  1.00  0.00     0.001 A 
HETATM   16  C13 UNL     1      38.004  41.831  22.841  1.00  0.00     0.000 A 
HETATM   17  C14 UNL     1      37.620  40.516  22.809  1.00  0.00     0.001 A 
HETATM   18  C15 UNL     1      36.301  40.232  22.469  1.00  0.00     0.007 A 
ENDBRANCH  12  13
ENDBRANCH  11  12
ENDBRANCH   5  11
BRANCH   1  19
HETATM   19  N1  UNL     1      32.407  40.745  16.338  1.00  0.00    -0.347 N 
HETATM   20  C4  UNL     1      33.205  39.631  15.981  1.00  0.00     0.221 C 
HETATM   21  O1  UNL     1      32.871  38.485  16.382  1.00  0.00    -0.273 OA
ATOM     22  H1  UNL     1      32.692  41.666  16.004  1.00  0.00     0.163 HD
BRANCH  20  23
HETATM   23  C2  UNL     1      34.402  39.878  15.145  1.00  0.00     0.070 C 
HETATM   24  C1  UNL     1      34.017  40.770  14.000  1.00  0.00     0.019 C 
HETATM   25  C3  UNL     1      35.062  38.622  14.675  1.00  0.00     0.019 C 
ENDBRANCH  20  23
ENDBRANCH   1  19
BRANCH   8  26
HETATM   26  C18 UNL     1      28.237  40.617  19.787  1.00  0.00     0.192 C 
BRANCH  26  27
HETATM   27  O2  UNL     1      27.800  41.296  20.914  1.00  0.00    -0.399 OA
ATOM     28  H2  UNL     1      27.392  40.722  21.551  1.00  0.00     0.209 HD
ENDBRANCH  26  27
ENDBRANCH   8  26
BRANCH  10  29
HETATM   29  O4  UNL     1      29.762  40.932  15.280  1.00  0.00    -0.390 OA
ATOM     30  H4  UNL     1      29.398  41.629  14.746  1.00  0.00     0.210 HD
ENDBRANCH  10  29
BRANCH   9  31
HETATM   31  O3  UNL     1      27.665  41.325  16.846  1.00  0.00    -0.391 OA
ATOM     32  H3  UNL     1      27.769  41.638  15.955  1.00  0.00     0.210 HD
ENDBRANCH   9  31
TORSDOF 9
ENDMDL
