MODEL 11
REMARK VINA RESULT: -5.360490364      7.545      9.155
REMARK  5 active torsions:
REMARK  status: ('A' for Active; 'I' for Inactive)
REMARK    1  A    between atoms: O1_1  and  C1_3 
REMARK    2  A    between atoms: C1_3  and  C2_4 
REMARK    3  A    between atoms: C4_9  and  O2_10 
REMARK    4  A    between atoms: C5_12  and  O3_13 
REMARK    5  A    between atoms: C6_15  and  O4_16 
ROOT
HETATM    1  C2  UNL     1      -1.343   6.848  15.726  1.00  0.00     0.066 C 
HETATM    2  C3  UNL     1      -2.230   7.981  15.342  1.00  0.00     0.244 C 
HETATM    3  N1  UNL     1      -3.372   8.167  16.173  1.00  0.00    -0.046 N 
ATOM      4  H11 UNL     1      -4.008   8.846  15.755  1.00  0.00     0.280 HD
ATOM      5  H12 UNL     1      -3.115   8.668  17.023  1.00  0.00     0.280 HD
HETATM    6  C4  UNL     1      -4.078   6.956  16.499  1.00  0.00     0.350 C 
HETATM    7  C5  UNL     1      -3.075   6.051  17.211  1.00  0.00     0.203 C 
HETATM    8  C6  UNL     1      -2.104   5.607  16.138  1.00  0.00     0.159 C 
ENDROOT
BRANCH   1   9
HETATM    9  C1  UNL     1      -0.331   6.579  14.655  1.00  0.00     0.173 C 
BRANCH   9  10
HETATM   10  O1  UNL     1       0.869   6.239  15.289  1.00  0.00    -0.400 OA
ATOM     11  H1  UNL     1       0.818   6.556  16.184  1.00  0.00     0.209 HD
ENDBRANCH   9  10
ENDBRANCH   1   9
BRANCH   8  12
HETATM   12  O4  UNL     1      -1.220   4.646  16.572  1.00  0.00    -0.392 OA
ATOM     13  H4  UNL     1      -0.330   4.928  16.396  1.00  0.00     0.210 HD
ENDBRANCH   8  12
BRANCH   7  14
HETATM   14  O3  UNL     1      -3.667   5.010  17.869  1.00  0.00    -0.389 OA
ATOM     15  H3  UNL     1      -3.340   4.895  18.753  1.00  0.00     0.210 HD
ENDBRANCH   7  14
BRANCH   6  16
HETATM   16  O2  UNL     1      -5.154   7.232  17.301  1.00  0.00    -0.368 OA
ATOM     17  H2  UNL     1      -5.745   7.834  16.864  1.00  0.00     0.212 HD
ENDBRANCH   6  16
TORSDOF 5
ENDMDL
