MODEL 14
REMARK VINA RESULT: -5.283668828      7.657      9.324
REMARK  5 active torsions:
REMARK  status: ('A' for Active; 'I' for Inactive)
REMARK    1  A    between atoms: O1_1  and  C1_3 
REMARK    2  A    between atoms: C1_3  and  C2_4 
REMARK    3  A    between atoms: C4_9  and  O2_10 
REMARK    4  A    between atoms: C5_12  and  O3_13 
REMARK    5  A    between atoms: C6_15  and  O4_16 
ROOT
HETATM    1  C2  UNL     1      -3.200   7.513  15.851  1.00  0.00     0.066 C 
HETATM    2  C3  UNL     1      -3.684   6.939  14.565  1.00  0.00     0.244 C 
HETATM    3  N1  UNL     1      -4.099   5.577  14.626  1.00  0.00    -0.046 N 
ATOM      4  H11 UNL     1      -4.257   5.213  13.687  1.00  0.00     0.280 HD
ATOM      5  H12 UNL     1      -5.044   5.511  15.002  1.00  0.00     0.280 HD
HETATM    6  C4  UNL     1      -3.208   4.713  15.354  1.00  0.00     0.350 C 
HETATM    7  C5  UNL     1      -3.120   5.280  16.769  1.00  0.00     0.203 C 
HETATM    8  C6  UNL     1      -2.326   6.562  16.639  1.00  0.00     0.159 C 
ENDROOT
BRANCH   1   9
HETATM    9  C1  UNL     1      -2.552   8.845  15.628  1.00  0.00     0.173 C 
BRANCH   9  10
HETATM   10  O1  UNL     1      -3.080   9.731  16.574  1.00  0.00    -0.400 OA
ATOM     11  H1  UNL     1      -2.518  10.497  16.591  1.00  0.00     0.209 HD
ENDBRANCH   9  10
ENDBRANCH   1   9
BRANCH   8  12
HETATM   12  O4  UNL     1      -2.006   7.127  17.852  1.00  0.00    -0.392 OA
ATOM     13  H4  UNL     1      -2.036   6.462  18.531  1.00  0.00     0.210 HD
ENDBRANCH   8  12
BRANCH   7  14
HETATM   14  O3  UNL     1      -2.581   4.400  17.666  1.00  0.00    -0.389 OA
ATOM     15  H3  UNL     1      -2.801   4.605  18.567  1.00  0.00     0.210 HD
ENDBRANCH   7  14
BRANCH   6  16
HETATM   16  O2  UNL     1      -3.689   3.430  15.362  1.00  0.00    -0.368 OA
ATOM     17  H2  UNL     1      -3.044   2.833  15.001  1.00  0.00     0.212 HD
ENDBRANCH   6  16
TORSDOF 5
ENDMDL
