MODEL 1
REMARK VINA RESULT: -7.011990393      0.000      0.000
REMARK  5 active torsions:
REMARK  status: ('A' for Active; 'I' for Inactive)
REMARK    1  A    between atoms: O1_1  and  C1_3 
REMARK    2  A    between atoms: C1_3  and  C2_4 
REMARK    3  A    between atoms: C4_9  and  O2_10 
REMARK    4  A    between atoms: C5_12  and  O3_13 
REMARK    5  A    between atoms: C6_15  and  O4_16 
ROOT
HETATM    1  C2  UNL     1      -2.379  10.275   9.145  1.00  0.00     0.066 C 
HETATM    2  C3  UNL     1      -1.898  10.191  10.552  1.00  0.00     0.244 C 
HETATM    3  N1  UNL     1      -0.871  11.117  10.899  1.00  0.00    -0.046 N 
ATOM      4  H11 UNL     1      -0.484  10.891  11.814  1.00  0.00     0.280 HD
ATOM      5  H12 UNL     1      -1.272  12.033  11.099  1.00  0.00     0.280 HD
HETATM    6  C4  UNL     1       0.183  11.234   9.925  1.00  0.00     0.350 C 
HETATM    7  C5  UNL     1      -0.482  11.677   8.623  1.00  0.00     0.203 C 
HETATM    8  C6  UNL     1      -1.264  10.473   8.143  1.00  0.00     0.159 C 
ENDROOT
BRANCH   1   9
HETATM    9  C1  UNL     1      -3.255   9.107   8.814  1.00  0.00     0.173 C 
BRANCH   9  10
HETATM   10  O1  UNL     1      -2.521   7.944   9.077  1.00  0.00    -0.400 OA
ATOM     11  H1  UNL     1      -2.665   7.717   9.989  1.00  0.00     0.209 HD
ENDBRANCH   9  10
ENDBRANCH   1   9
BRANCH   8  12
HETATM   12  O4  UNL     1      -1.798  10.641   6.885  1.00  0.00    -0.392 OA
ATOM     13  H4  UNL     1      -1.100  10.640   6.240  1.00  0.00     0.210 HD
ENDBRANCH   8  12
BRANCH   7  14
HETATM   14  O3  UNL     1       0.410  12.146   7.700  1.00  0.00    -0.389 OA
ATOM     15  H3  UNL     1      -0.007  12.590   6.972  1.00  0.00     0.210 HD
ENDBRANCH   7  14
BRANCH   6  16
HETATM   16  O2  UNL     1       1.116  12.146  10.341  1.00  0.00    -0.368 OA
ATOM     17  H2  UNL     1       1.914  12.057   9.832  1.00  0.00     0.212 HD
ENDBRANCH   6  16
TORSDOF 5
ENDMDL
