MODEL 13
REMARK VINA RESULT: -5.334712011      7.706      9.469
REMARK  5 active torsions:
REMARK  status: ('A' for Active; 'I' for Inactive)
REMARK    1  A    between atoms: O1_1  and  C1_3 
REMARK    2  A    between atoms: C1_3  and  C2_4 
REMARK    3  A    between atoms: C4_9  and  O2_10 
REMARK    4  A    between atoms: C5_12  and  O3_13 
REMARK    5  A    between atoms: C6_15  and  O4_16 
ROOT
HETATM    1  C2  UNL     1      -2.729   7.373  15.636  1.00  0.00     0.066 C 
HETATM    2  C3  UNL     1      -1.411   6.693  15.768  1.00  0.00     0.244 C 
HETATM    3  N1  UNL     1      -1.461   5.369  16.293  1.00  0.00    -0.046 N 
ATOM      4  H11 UNL     1      -0.520   5.037  16.506  1.00  0.00     0.280 HD
ATOM      5  H12 UNL     1      -1.720   4.706  15.562  1.00  0.00     0.280 HD
HETATM    6  C4  UNL     1      -2.318   5.212  17.439  1.00  0.00     0.350 C 
HETATM    7  C5  UNL     1      -3.716   5.633  16.991  1.00  0.00     0.203 C 
HETATM    8  C6  UNL     1      -3.645   7.135  16.816  1.00  0.00     0.159 C 
ENDROOT
BRANCH   1   9
HETATM    9  C1  UNL     1      -2.548   8.827  15.327  1.00  0.00     0.173 C 
BRANCH   9  10
HETATM   10  O1  UNL     1      -2.895   9.546  16.477  1.00  0.00    -0.400 OA
ATOM     11  H1  UNL     1      -3.188  10.405  16.197  1.00  0.00     0.209 HD
ENDBRANCH   9  10
ENDBRANCH   1   9
BRANCH   8  12
HETATM   12  O4  UNL     1      -4.872   7.709  16.572  1.00  0.00    -0.392 OA
ATOM     13  H4  UNL     1      -5.134   8.233  17.320  1.00  0.00     0.210 HD
ENDBRANCH   8  12
BRANCH   7  14
HETATM   14  O3  UNL     1      -4.697   5.235  17.855  1.00  0.00    -0.389 OA
ATOM     15  H3  UNL     1      -5.477   4.920  17.414  1.00  0.00     0.210 HD
ENDBRANCH   7  14
BRANCH   6  16
HETATM   16  O2  UNL     1      -2.305   3.911  17.869  1.00  0.00    -0.368 OA
ATOM     17  H2  UNL     1      -2.142   3.875  18.804  1.00  0.00     0.212 HD
ENDBRANCH   6  16
TORSDOF 5
ENDMDL
