MODEL 17
REMARK VINA RESULT: -4.904058925      5.735      8.081
REMARK  5 active torsions:
REMARK  status: ('A' for Active; 'I' for Inactive)
REMARK    1  A    between atoms: O1_1  and  C1_3 
REMARK    2  A    between atoms: C1_3  and  C2_4 
REMARK    3  A    between atoms: C4_8  and  O2_9 
REMARK    4  A    between atoms: C5_11  and  O3_12 
REMARK    5  A    between atoms: C6_14  and  O4_15 
ROOT
HETATM    1  C2  UNL     1      -1.223   7.149  15.331  1.00  0.00     0.131 C 
HETATM    2  N1  UNL     1      -2.056   8.283  15.059  1.00  0.00    -0.410 N 
ATOM      3  H1  UNL     1      -1.905   8.894  14.256  1.00  0.00     0.153 HD
HETATM    4  C3  UNL     1      -3.110   8.494  15.994  1.00  0.00     0.148 C 
HETATM    5  C4  UNL     1      -3.932   7.215  16.175  1.00  0.00     0.166 C 
HETATM    6  C5  UNL     1      -2.937   6.199  16.756  1.00  0.00     0.179 C 
HETATM    7  C6  UNL     1      -1.995   5.890  15.610  1.00  0.00     0.173 C 
ENDROOT
BRANCH   1   8
HETATM    8  C1  UNL     1      -0.212   6.994  14.231  1.00  0.00     0.191 C 
BRANCH   8   9
HETATM    9  O1  UNL     1      -0.449   8.008  13.299  1.00  0.00    -0.399 OA
ATOM     10  H1  UNL     1       0.396   8.319  12.996  1.00  0.00     0.209 HD
ENDBRANCH   8   9
ENDBRANCH   1   8
BRANCH   7  11
HETATM   11  O4  UNL     1      -1.109   4.873  15.898  1.00  0.00    -0.391 OA
ATOM     12  H4  UNL     1      -1.511   4.279  16.519  1.00  0.00     0.210 HD
ENDBRANCH   7  11
BRANCH   6  13
HETATM   13  O3  UNL     1      -3.558   5.092  17.265  1.00  0.00    -0.390 OA
ATOM     14  H3  UNL     1      -3.448   4.328  16.713  1.00  0.00     0.210 HD
ENDBRANCH   6  13
BRANCH   5  15
HETATM   15  O2  UNL     1      -5.018   7.404  16.988  1.00  0.00    -0.391 OA
ATOM     16  H2  UNL     1      -5.272   6.609  17.442  1.00  0.00     0.210 HD
ENDBRANCH   5  15
TORSDOF 5
ENDMDL
