MODEL 10
REMARK VINA RESULT: -5.131868674      5.364      7.558
REMARK  5 active torsions:
REMARK  status: ('A' for Active; 'I' for Inactive)
REMARK    1  A    between atoms: O1_1  and  C1_3 
REMARK    2  A    between atoms: C1_3  and  C2_4 
REMARK    3  A    between atoms: C4_8  and  O2_9 
REMARK    4  A    between atoms: C5_11  and  O3_12 
REMARK    5  A    between atoms: C6_14  and  O4_15 
ROOT
HETATM    1  C2  UNL     1      -2.628   6.926  13.886  1.00  0.00     0.131 C 
HETATM    2  N1  UNL     1      -3.403   5.809  14.339  1.00  0.00    -0.410 N 
ATOM      3  H1  UNL     1      -3.191   4.848  14.067  1.00  0.00     0.153 HD
HETATM    4  C3  UNL     1      -4.491   6.140  15.196  1.00  0.00     0.148 C 
HETATM    5  C4  UNL     1      -4.013   7.011  16.360  1.00  0.00     0.166 C 
HETATM    6  C5  UNL     1      -3.489   8.290  15.693  1.00  0.00     0.179 C 
HETATM    7  C6  UNL     1      -2.217   7.860  14.989  1.00  0.00     0.173 C 
ENDROOT
BRANCH   1   8
HETATM    8  C1  UNL     1      -1.470   6.433  13.064  1.00  0.00     0.191 C 
BRANCH   8   9
HETATM    9  O1  UNL     1      -1.324   7.305  11.981  1.00  0.00    -0.399 OA
ATOM     10  H1  UNL     1      -1.968   7.996  12.084  1.00  0.00     0.209 HD
ENDBRANCH   8   9
ENDBRANCH   1   8
BRANCH   7  11
HETATM   11  O4  UNL     1      -1.515   8.915  14.448  1.00  0.00    -0.391 OA
ATOM     12  H4  UNL     1      -0.655   8.612  14.184  1.00  0.00     0.210 HD
ENDBRANCH   7  11
BRANCH   6  13
HETATM   13  O3  UNL     1      -3.299   9.307  16.588  1.00  0.00    -0.390 OA
ATOM     14  H3  UNL     1      -3.424   9.027  17.487  1.00  0.00     0.210 HD
ENDBRANCH   6  13
BRANCH   5  15
HETATM   15  O2  UNL     1      -5.010   7.266  17.265  1.00  0.00    -0.391 OA
ATOM     16  H2  UNL     1      -4.673   7.581  18.095  1.00  0.00     0.210 HD
ENDBRANCH   5  15
TORSDOF 5
ENDMDL
