MODEL 12
REMARK VINA RESULT: -5.095848000      2.099      3.129
REMARK  5 active torsions:
REMARK  status: ('A' for Active; 'I' for Inactive)
REMARK    1  A    between atoms: O1_1  and  C1_3 
REMARK    2  A    between atoms: C1_3  and  C2_4 
REMARK    3  A    between atoms: C4_8  and  O2_9 
REMARK    4  A    between atoms: C5_11  and  O3_12 
REMARK    5  A    between atoms: C6_14  and  O4_15 
ROOT
HETATM    1  C2  UNL     1      -1.587   8.336  12.320  1.00  0.00     0.131 C 
HETATM    2  N1  UNL     1      -1.420   9.702  11.918  1.00  0.00    -0.410 N 
ATOM      3  H1  UNL     1      -1.221  10.449  12.584  1.00  0.00     0.153 HD
HETATM    4  C3  UNL     1      -1.552   9.938  10.519  1.00  0.00     0.148 C 
HETATM    5  C4  UNL     1      -0.643   8.995   9.727  1.00  0.00     0.166 C 
HETATM    6  C5  UNL     1      -1.168   7.590  10.053  1.00  0.00     0.179 C 
HETATM    7  C6  UNL     1      -0.783   7.366  11.502  1.00  0.00     0.173 C 
ENDROOT
BRANCH   1   8
HETATM    8  C1  UNL     1      -1.342   8.215  13.797  1.00  0.00     0.191 C 
BRANCH   8   9
HETATM    9  O1  UNL     1      -0.010   7.824  13.969  1.00  0.00    -0.399 OA
ATOM     10  H1  UNL     1       0.021   7.246  14.722  1.00  0.00     0.209 HD
ENDBRANCH   8   9
ENDBRANCH   1   8
BRANCH   7  11
HETATM   11  O4  UNL     1      -1.043   6.085  11.939  1.00  0.00    -0.391 OA
ATOM     12  H4  UNL     1      -0.368   5.502  11.612  1.00  0.00     0.210 HD
ENDBRANCH   7  11
BRANCH   6  13
HETATM   13  O3  UNL     1      -0.676   6.637   9.205  1.00  0.00    -0.390 OA
ATOM     14  H3  UNL     1       0.171   6.874   8.845  1.00  0.00     0.210 HD
ENDBRANCH   6  13
BRANCH   5  15
HETATM   15  O2  UNL     1      -0.663   9.259   8.382  1.00  0.00    -0.391 OA
ATOM     16  H2  UNL     1      -1.313   8.741   7.922  1.00  0.00     0.210 HD
ENDBRANCH   5  15
TORSDOF 5
ENDMDL
