MODEL 2
REMARK VINA RESULT: -6.101911260      1.716      2.383
REMARK  5 active torsions:
REMARK  status: ('A' for Active; 'I' for Inactive)
REMARK    1  A    between atoms: O1_1  and  C1_3 
REMARK    2  A    between atoms: C1_3  and  C2_4 
REMARK    3  A    between atoms: C4_8  and  O2_9 
REMARK    4  A    between atoms: C5_11  and  O3_12 
REMARK    5  A    between atoms: C6_14  and  O4_15 
ROOT
HETATM    1  C2  UNL     1      -2.528  10.478   9.002  1.00  0.00     0.131 C 
HETATM    2  N1  UNL     1      -2.140  10.287  10.368  1.00  0.00    -0.410 N 
ATOM      3  H1  UNL     1      -2.570   9.581  10.967  1.00  0.00     0.153 HD
HETATM    4  C3  UNL     1      -1.110  11.156  10.829  1.00  0.00     0.148 C 
HETATM    5  C4  UNL     1       0.093  11.111   9.884  1.00  0.00     0.166 C 
HETATM    6  C5  UNL     1      -0.449  11.636   8.546  1.00  0.00     0.179 C 
HETATM    7  C6  UNL     1      -1.366  10.536   8.050  1.00  0.00     0.173 C 
ENDROOT
BRANCH   1   8
HETATM    8  C1  UNL     1      -3.555   9.449   8.623  1.00  0.00     0.191 C 
BRANCH   8   9
HETATM    9  O1  UNL     1      -3.036   8.196   8.960  1.00  0.00    -0.399 OA
ATOM     10  H1  UNL     1      -3.584   7.838   9.649  1.00  0.00     0.209 HD
ENDBRANCH   8   9
ENDBRANCH   1   8
BRANCH   7  11
HETATM   11  O4  UNL     1      -1.840  10.761   6.775  1.00  0.00    -0.391 OA
ATOM     12  H4  UNL     1      -1.264  11.374   6.334  1.00  0.00     0.210 HD
ENDBRANCH   7  11
BRANCH   6  13
HETATM   13  O3  UNL     1       0.549  11.952   7.666  1.00  0.00    -0.390 OA
ATOM     14  H3  UNL     1       0.228  12.432   6.912  1.00  0.00     0.210 HD
ENDBRANCH   6  13
BRANCH   5  15
HETATM   15  O2  UNL     1       1.147  11.855  10.346  1.00  0.00    -0.391 OA
ATOM     16  H2  UNL     1       1.914  11.323  10.525  1.00  0.00     0.210 HD
ENDBRANCH   5  15
TORSDOF 5
ENDMDL
