MODEL 2
REMARK VINA RESULT: -6.522601959      1.406      3.804
REMARK  6 active torsions:
REMARK  status: ('A' for Active; 'I' for Inactive)
REMARK    1  A    between atoms: O1_1  and  C1_3 
REMARK    2  A    between atoms: C1_3  and  C2_4 
REMARK    3  A    between atoms: N2_8  and  O2_10 
REMARK    4  A    between atoms: C4_12  and  O3_13 
REMARK    5  A    between atoms: C5_15  and  O4_16 
REMARK    6  A    between atoms: C6_18  and  O5_19 
ROOT
HETATM    1  C2  UNL     1      -1.340  11.221   8.611  1.00  0.00     0.137 C 
HETATM    2  N1  UNL     1      -1.066  10.608   9.897  1.00  0.00    -0.367 N 
ATOM      3  H1  UNL     1      -1.820  10.261  10.490  1.00  0.00     0.161 HD
HETATM    4  C3  UNL     1       0.292  10.509  10.296  1.00  0.00     0.129 C 
HETATM    5  N2  UNL     1       0.716   9.566  11.085  1.00  0.00    -0.255 N 
ATOM      6  H2  UNL     1       0.051   8.872  11.430  1.00  0.00     0.195 HD
HETATM    7  C4  UNL     1       1.282  11.500   9.816  1.00  0.00     0.218 C 
HETATM    8  C5  UNL     1       0.938  12.057   8.451  1.00  0.00     0.185 C 
HETATM    9  C6  UNL     1      -0.044  11.101   7.805  1.00  0.00     0.174 C 
ENDROOT
BRANCH   5  10
HETATM   10  O2  UNL     1       2.024   9.478  11.464  1.00  0.00    -0.288 OA
ATOM     11  H2  UNL     1       2.725   9.843  10.937  1.00  0.00     0.244 HD
ENDBRANCH   5  10
BRANCH   7  12
HETATM   12  O3  UNL     1       1.344  12.588  10.689  1.00  0.00    -0.385 OA
ATOM     13  H3  UNL     1       2.245  12.867  10.806  1.00  0.00     0.210 HD
ENDBRANCH   7  12
BRANCH   1  14
HETATM   14  C1  UNL     1      -2.480  10.529   7.893  1.00  0.00     0.191 C 
BRANCH  14  15
HETATM   15  O1  UNL     1      -2.508   9.181   8.161  1.00  0.00    -0.399 OA
ATOM     16  H1  UNL     1      -2.627   9.009   9.088  1.00  0.00     0.209 HD
ENDBRANCH  14  15
ENDBRANCH   1  14
BRANCH   8  17
HETATM   17  O4  UNL     1       2.084  12.185   7.658  1.00  0.00    -0.390 OA
ATOM     18  H4  UNL     1       2.005  12.920   7.062  1.00  0.00     0.210 HD
ENDBRANCH   8  17
BRANCH   9  19
HETATM   19  O5  UNL     1      -0.220  11.430   6.484  1.00  0.00    -0.391 OA
ATOM     20  H5  UNL     1       0.312  10.896   5.906  1.00  0.00     0.210 HD
ENDBRANCH   9  19
TORSDOF 6
ENDMDL
