MODEL 11
REMARK VINA RESULT: -5.937216126      6.405      8.961
REMARK  6 active torsions:
REMARK  status: ('A' for Active; 'I' for Inactive)
REMARK    1  A    between atoms: O1_1  and  C1_3 
REMARK    2  A    between atoms: C1_3  and  C2_4 
REMARK    3  A    between atoms: N2_8  and  O2_10 
REMARK    4  A    between atoms: C4_12  and  O3_13 
REMARK    5  A    between atoms: C5_15  and  O4_16 
REMARK    6  A    between atoms: C6_18  and  O5_19 
ROOT
HETATM    1  C2  UNL     1      -1.218   8.148  14.816  1.00  0.00     0.137 C 
HETATM    2  N1  UNL     1      -0.297   7.146  15.317  1.00  0.00    -0.367 N 
ATOM      3  H1  UNL     1       0.608   6.988  14.873  1.00  0.00     0.161 HD
HETATM    4  C3  UNL     1      -0.705   6.393  16.449  1.00  0.00     0.129 C 
HETATM    5  N2  UNL     1       0.149   5.896  17.295  1.00  0.00    -0.255 N 
ATOM      6  H2  UNL     1       1.146   6.050  17.141  1.00  0.00     0.195 HD
HETATM    7  C4  UNL     1      -2.144   6.149  16.701  1.00  0.00     0.218 C 
HETATM    8  C5  UNL     1      -3.025   7.264  16.181  1.00  0.00     0.185 C 
HETATM    9  C6  UNL     1      -2.149   8.484  15.985  1.00  0.00     0.174 C 
ENDROOT
BRANCH   5  10
HETATM   10  O2  UNL     1      -0.251   5.173  18.382  1.00  0.00    -0.288 OA
ATOM     11  H2  UNL     1       0.096   4.308  18.563  1.00  0.00     0.244 HD
ENDBRANCH   5  10
BRANCH   7  12
HETATM   12  O3  UNL     1      -2.558   4.979  16.062  1.00  0.00    -0.385 OA
ATOM     13  H3  UNL     1      -3.501   4.884  16.125  1.00  0.00     0.210 HD
ENDBRANCH   7  12
BRANCH   1  14
HETATM   14  C1  UNL     1      -0.490   9.389  14.342  1.00  0.00     0.191 C 
BRANCH  14  15
HETATM   15  O1  UNL     1       0.636   9.075  13.619  1.00  0.00    -0.399 OA
ATOM     16  H1  UNL     1       0.990   9.834  13.170  1.00  0.00     0.209 HD
ENDBRANCH  14  15
ENDBRANCH   1  14
BRANCH   8  17
HETATM   17  O4  UNL     1      -4.058   7.548  17.083  1.00  0.00    -0.390 OA
ATOM     18  H4  UNL     1      -3.892   8.362  17.544  1.00  0.00     0.210 HD
ENDBRANCH   8  17
BRANCH   9  19
HETATM   19  O5  UNL     1      -2.926   9.586  15.732  1.00  0.00    -0.391 OA
ATOM     20  H5  UNL     1      -2.406  10.360  15.550  1.00  0.00     0.210 HD
ENDBRANCH   9  19
TORSDOF 6
ENDMDL
