MODEL 10
REMARK VINA RESULT: -5.996018399      7.974      8.939
REMARK  6 active torsions:
REMARK  status: ('A' for Active; 'I' for Inactive)
REMARK    1  A    between atoms: O1_1  and  C1_3 
REMARK    2  A    between atoms: C1_3  and  C2_4 
REMARK    3  A    between atoms: N2_8  and  O2_10 
REMARK    4  A    between atoms: C4_12  and  O3_13 
REMARK    5  A    between atoms: C5_15  and  O4_16 
REMARK    6  A    between atoms: C6_18  and  O5_19 
ROOT
HETATM    1  C2  UNL     1      -0.198   5.787  14.929  1.00  0.00     0.137 C 
HETATM    2  N1  UNL     1      -1.556   6.241  14.697  1.00  0.00    -0.367 N 
ATOM      3  H1  UNL     1      -2.026   6.076  13.807  1.00  0.00     0.161 HD
HETATM    4  C3  UNL     1      -2.205   6.925  15.759  1.00  0.00     0.129 C 
HETATM    5  N2  UNL     1      -3.496   6.902  15.910  1.00  0.00    -0.255 N 
ATOM      6  H2  UNL     1      -4.064   6.377  15.245  1.00  0.00     0.195 HD
HETATM    7  C4  UNL     1      -1.410   7.698  16.741  1.00  0.00     0.218 C 
HETATM    8  C5  UNL     1      -0.023   7.129  16.948  1.00  0.00     0.185 C 
HETATM    9  C6  UNL     1      -0.039   5.699  16.449  1.00  0.00     0.174 C 
ENDROOT
BRANCH   5  10
HETATM   10  O2  UNL     1      -4.113   7.562  16.934  1.00  0.00    -0.288 OA
ATOM     11  H2  UNL     1      -4.720   8.275  16.776  1.00  0.00     0.244 HD
ENDBRANCH   5  10
BRANCH   7  12
HETATM   12  O3  UNL     1      -1.243   9.013  16.302  1.00  0.00    -0.385 OA
ATOM     13  H3  UNL     1      -1.153   9.600  17.044  1.00  0.00     0.210 HD
ENDBRANCH   7  12
BRANCH   1  14
HETATM   14  C1  UNL     1       0.057   4.438  14.288  1.00  0.00     0.191 C 
BRANCH  14  15
HETATM   15  O1  UNL     1      -0.506   3.414  15.013  1.00  0.00    -0.399 OA
ATOM     16  H1  UNL     1      -0.889   2.753  14.449  1.00  0.00     0.209 HD
ENDBRANCH  14  15
ENDBRANCH   1  14
BRANCH   8  17
HETATM   17  O4  UNL     1       0.336   7.168  18.301  1.00  0.00    -0.390 OA
ATOM     18  H4  UNL     1       1.155   6.710  18.448  1.00  0.00     0.210 HD
ENDBRANCH   8  17
BRANCH   9  19
HETATM   19  O5  UNL     1       1.120   5.060  16.815  1.00  0.00    -0.391 OA
ATOM     20  H5  UNL     1       1.882   5.418  16.377  1.00  0.00     0.210 HD
ENDBRANCH   9  19
TORSDOF 6
ENDMDL
