MODEL 12
REMARK VINA RESULT: -5.935471970      5.493      7.867
REMARK  6 active torsions:
REMARK  status: ('A' for Active; 'I' for Inactive)
REMARK    1  A    between atoms: O1_1  and  C1_3 
REMARK    2  A    between atoms: C1_3  and  C2_4 
REMARK    3  A    between atoms: N2_8  and  O2_10 
REMARK    4  A    between atoms: C4_12  and  O3_13 
REMARK    5  A    between atoms: C5_15  and  O4_16 
REMARK    6  A    between atoms: C6_18  and  O5_19 
ROOT
HETATM    1  C2  UNL     1      -0.497   7.799  13.731  1.00  0.00     0.137 C 
HETATM    2  N1  UNL     1      -0.064   6.778  14.665  1.00  0.00    -0.367 N 
ATOM      3  H1  UNL     1       0.304   5.884  14.339  1.00  0.00     0.161 HD
HETATM    4  C3  UNL     1      -0.172   7.071  16.049  1.00  0.00     0.129 C 
HETATM    5  N2  UNL     1       0.623   6.544  16.933  1.00  0.00    -0.255 N 
ATOM      6  H2  UNL     1       1.350   5.898  16.624  1.00  0.00     0.195 HD
HETATM    7  C4  UNL     1      -1.217   8.003  16.532  1.00  0.00     0.218 C 
HETATM    8  C5  UNL     1      -1.577   9.058  15.508  1.00  0.00     0.185 C 
HETATM    9  C6  UNL     1      -0.446   9.121  14.502  1.00  0.00     0.174 C 
ENDROOT
BRANCH   5  10
HETATM   10  O2  UNL     1       0.513   6.832  18.263  1.00  0.00    -0.288 OA
ATOM     11  H2  UNL     1       1.143   6.513  18.898  1.00  0.00     0.244 HD
ENDBRANCH   5  10
BRANCH   7  12
HETATM   12  O3  UNL     1      -2.392   7.308  16.822  1.00  0.00    -0.385 OA
ATOM     13  H3  UNL     1      -2.872   7.745  17.516  1.00  0.00     0.210 HD
ENDBRANCH   7  12
BRANCH   1  14
HETATM   14  C1  UNL     1       0.400   7.860  12.512  1.00  0.00     0.191 C 
BRANCH  14  15
HETATM   15  O1  UNL     1       1.515   8.631  12.736  1.00  0.00    -0.399 OA
ATOM     16  H1  UNL     1       2.314   8.120  12.683  1.00  0.00     0.209 HD
ENDBRANCH  14  15
ENDBRANCH   1  14
BRANCH   8  17
HETATM   17  O4  UNL     1      -1.755  10.306  16.117  1.00  0.00    -0.390 OA
ATOM     18  H4  UNL     1      -1.613  11.010  15.496  1.00  0.00     0.210 HD
ENDBRANCH   8  17
BRANCH   9  19
HETATM   19  O5  UNL     1      -0.607  10.209  13.681  1.00  0.00    -0.391 OA
ATOM     20  H5  UNL     1      -1.487  10.268  13.329  1.00  0.00     0.210 HD
ENDBRANCH   9  19
TORSDOF 6
ENDMDL
