MODEL 13
REMARK VINA RESULT: -5.655053841      6.895      8.500
REMARK  6 active torsions:
REMARK  status: ('A' for Active; 'I' for Inactive)
REMARK    1  A    between atoms: O1_1  and  C1_3 
REMARK    2  A    between atoms: C1_3  and  C2_4 
REMARK    3  A    between atoms: N2_8  and  O2_10 
REMARK    4  A    between atoms: C4_12  and  O3_13 
REMARK    5  A    between atoms: C5_15  and  O4_16 
REMARK    6  A    between atoms: C6_18  and  O5_19 
ROOT
HETATM    1  C2  UNL     1      -2.467   5.557  16.702  1.00  0.00     0.137 C 
HETATM    2  N1  UNL     1      -2.842   6.953  16.600  1.00  0.00    -0.367 N 
ATOM      3  H1  UNL     1      -3.520   7.352  17.251  1.00  0.00     0.161 HD
HETATM    4  C3  UNL     1      -2.263   7.762  15.591  1.00  0.00     0.129 C 
HETATM    5  N2  UNL     1      -2.309   9.045  15.555  1.00  0.00    -0.255 N 
ATOM      6  H2  UNL     1      -1.849   9.502  14.768  1.00  0.00     0.195 HD
HETATM    7  C4  UNL     1      -1.556   7.058  14.497  1.00  0.00     0.218 C 
HETATM    8  C5  UNL     1      -0.585   6.088  15.102  1.00  0.00     0.185 C 
HETATM    9  C6  UNL     1      -0.972   5.524  16.425  1.00  0.00     0.174 C 
ENDROOT
BRANCH   5  10
HETATM   10  O2  UNL     1      -2.907   9.845  16.461  1.00  0.00    -0.288 OA
ATOM     11  H2  UNL     1      -3.388   9.562  17.228  1.00  0.00     0.244 HD
ENDBRANCH   5  10
BRANCH   7  12
HETATM   12  O3  UNL     1      -2.453   6.386  13.655  1.00  0.00    -0.385 OA
ATOM     13  H3  UNL     1      -2.071   5.591  13.301  1.00  0.00     0.210 HD
ENDBRANCH   7  12
BRANCH   1  14
HETATM   14  C1  UNL     1      -2.642   5.046  18.119  1.00  0.00     0.191 C 
BRANCH  14  15
HETATM   15  O1  UNL     1      -1.980   3.824  18.207  1.00  0.00    -0.399 OA
ATOM     16  H1  UNL     1      -2.331   3.364  18.961  1.00  0.00     0.209 HD
ENDBRANCH  14  15
ENDBRANCH   1  14
BRANCH   8  17
HETATM   17  O4  UNL     1       0.692   6.659  15.240  1.00  0.00    -0.390 OA
ATOM     18  H4  UNL     1       1.273   6.381  14.543  1.00  0.00     0.210 HD
ENDBRANCH   8  17
BRANCH   9  19
HETATM   19  O5  UNL     1      -0.394   6.359  17.410  1.00  0.00    -0.391 OA
ATOM     20  H5  UNL     1       0.369   6.743  16.994  1.00  0.00     0.210 HD
ENDBRANCH   9  19
TORSDOF 6
ENDMDL
