MODEL 11
REMARK VINA RESULT: -5.767204116      7.175      8.519
REMARK  6 active torsions:
REMARK  status: ('A' for Active; 'I' for Inactive)
REMARK    1  A    between atoms: O1_1  and  C1_3 
REMARK    2  A    between atoms: C1_3  and  C2_4 
REMARK    3  A    between atoms: N2_8  and  O2_10 
REMARK    4  A    between atoms: C4_12  and  O3_13 
REMARK    5  A    between atoms: C5_15  and  O4_16 
REMARK    6  A    between atoms: C6_18  and  O5_19 
ROOT
HETATM    1  C2  UNL     1      -2.132   6.988  14.815  1.00  0.00     0.137 C 
HETATM    2  N1  UNL     1      -1.371   6.683  16.011  1.00  0.00    -0.367 N 
ATOM      3  H1  UNL     1      -0.380   6.920  16.064  1.00  0.00     0.161 HD
HETATM    4  C3  UNL     1      -2.013   6.053  17.107  1.00  0.00     0.129 C 
HETATM    5  N2  UNL     1      -1.532   5.968  18.295  1.00  0.00    -0.255 N 
ATOM      6  H2  UNL     1      -2.101   5.484  18.990  1.00  0.00     0.195 HD
HETATM    7  C4  UNL     1      -3.339   5.449  16.845  1.00  0.00     0.218 C 
HETATM    8  C5  UNL     1      -4.203   6.470  16.165  1.00  0.00     0.185 C 
HETATM    9  C6  UNL     1      -3.488   7.461  15.314  1.00  0.00     0.174 C 
ENDROOT
BRANCH   5  10
HETATM   10  O2  UNL     1      -0.346   6.456  18.710  1.00  0.00    -0.288 OA
ATOM     11  H2  UNL     1      -0.216   7.212  19.270  1.00  0.00     0.244 HD
ENDBRANCH   5  10
BRANCH   7  12
HETATM   12  O3  UNL     1      -3.232   4.298  16.052  1.00  0.00    -0.385 OA
ATOM     13  H3  UNL     1      -3.557   3.530  16.507  1.00  0.00     0.210 HD
ENDBRANCH   7  12
BRANCH   1  14
HETATM   14  C1  UNL     1      -1.528   8.162  14.068  1.00  0.00     0.191 C 
BRANCH  14  15
HETATM   15  O1  UNL     1      -0.168   7.903  13.916  1.00  0.00    -0.399 OA
ATOM     16  H1  UNL     1       0.305   8.633  14.299  1.00  0.00     0.209 HD
ENDBRANCH  14  15
ENDBRANCH   1  14
BRANCH   8  17
HETATM   17  O4  UNL     1      -4.977   7.188  17.094  1.00  0.00    -0.390 OA
ATOM     18  H4  UNL     1      -4.516   7.298  17.918  1.00  0.00     0.210 HD
ENDBRANCH   8  17
BRANCH   9  19
HETATM   19  O5  UNL     1      -3.213   8.580  16.133  1.00  0.00    -0.391 OA
ATOM     20  H5  UNL     1      -3.749   9.282  15.784  1.00  0.00     0.210 HD
ENDBRANCH   9  19
TORSDOF 6
ENDMDL
