MODEL 1
REMARK VINA RESULT: -6.600360168      0.000      0.000
REMARK  6 active torsions:
REMARK  status: ('A' for Active; 'I' for Inactive)
REMARK    1  A    between atoms: O1_1  and  C1_3 
REMARK    2  A    between atoms: C1_3  and  C2_4 
REMARK    3  A    between atoms: N2_8  and  O2_10 
REMARK    4  A    between atoms: C4_12  and  O3_13 
REMARK    5  A    between atoms: C5_15  and  O4_16 
REMARK    6  A    between atoms: C6_18  and  O5_19 
ROOT
HETATM    1  C2  UNL     1      -2.327  10.464   9.248  1.00  0.00     0.137 C 
HETATM    2  N1  UNL     1      -1.504   9.422   9.831  1.00  0.00    -0.367 N 
ATOM      3  H1  UNL     1      -1.897   8.499  10.015  1.00  0.00     0.161 HD
HETATM    4  C3  UNL     1      -0.148   9.695  10.142  1.00  0.00     0.129 C 
HETATM    5  N2  UNL     1       0.741   8.807  10.411  1.00  0.00    -0.255 N 
ATOM      6  H2  UNL     1       1.681   9.143  10.619  1.00  0.00     0.195 HD
HETATM    7  C4  UNL     1       0.259  11.118  10.158  1.00  0.00     0.218 C 
HETATM    8  C5  UNL     1      -0.190  11.758   8.877  1.00  0.00     0.185 C 
HETATM    9  C6  UNL     1      -1.421  11.187   8.264  1.00  0.00     0.174 C 
ENDROOT
BRANCH   5  10
HETATM   10  O2  UNL     1       0.549   7.473  10.443  1.00  0.00    -0.288 OA
ATOM     11  H2  UNL     1       1.095   6.818  10.026  1.00  0.00     0.244 HD
ENDBRANCH   5  10
BRANCH   7  12
HETATM   12  O3  UNL     1      -0.287  11.796  11.257  1.00  0.00    -0.385 OA
ATOM     13  H3  UNL     1       0.291  12.486  11.562  1.00  0.00     0.210 HD
ENDBRANCH   7  12
BRANCH   1  14
HETATM   14  C1  UNL     1      -3.454   9.871   8.423  1.00  0.00     0.191 C 
BRANCH  14  15
HETATM   15  O1  UNL     1      -3.409   8.489   8.588  1.00  0.00    -0.399 OA
ATOM     16  H1  UNL     1      -4.305   8.183   8.667  1.00  0.00     0.209 HD
ENDBRANCH  14  15
ENDBRANCH   1  14
BRANCH   8  17
HETATM   17  O4  UNL     1       0.824  11.723   7.904  1.00  0.00    -0.390 OA
ATOM     18  H4  UNL     1       0.490  11.958   7.046  1.00  0.00     0.210 HD
ENDBRANCH   8  17
BRANCH   9  19
HETATM   19  O5  UNL     1      -1.000  10.194   7.349  1.00  0.00    -0.391 OA
ATOM     20  H5  UNL     1      -0.137  10.470   7.062  1.00  0.00     0.210 HD
ENDBRANCH   9  19
TORSDOF 6
ENDMDL
