MODEL 14
REMARK VINA RESULT: -5.559926635      6.709      8.080
REMARK  6 active torsions:
REMARK  status: ('A' for Active; 'I' for Inactive)
REMARK    1  A    between atoms: O1_1  and  C1_3 
REMARK    2  A    between atoms: C1_3  and  C2_4 
REMARK    3  A    between atoms: N2_8  and  O2_10 
REMARK    4  A    between atoms: C4_12  and  O3_13 
REMARK    5  A    between atoms: C5_15  and  O4_16 
REMARK    6  A    between atoms: C6_18  and  O5_19 
ROOT
HETATM    1  C2  UNL     1      -3.499   6.175  15.941  1.00  0.00     0.137 C 
HETATM    2  N1  UNL     1      -3.446   7.621  15.850  1.00  0.00    -0.367 N 
ATOM      3  H1  UNL     1      -4.214   8.186  16.213  1.00  0.00     0.161 HD
HETATM    4  C3  UNL     1      -2.322   8.244  15.254  1.00  0.00     0.129 C 
HETATM    5  N2  UNL     1      -2.035   9.493  15.344  1.00  0.00    -0.255 N 
ATOM      6  H2  UNL     1      -1.193   9.810  14.863  1.00  0.00     0.195 HD
HETATM    7  C4  UNL     1      -1.418   7.375  14.467  1.00  0.00     0.218 C 
HETATM    8  C5  UNL     1      -1.055   6.182  15.302  1.00  0.00     0.185 C 
HETATM    9  C6  UNL     1      -2.082   5.745  16.287  1.00  0.00     0.174 C 
ENDROOT
BRANCH   5  10
HETATM   10  O2  UNL     1      -2.742  10.425  16.014  1.00  0.00    -0.288 OA
ATOM     11  H2  UNL     1      -2.863  10.468  16.955  1.00  0.00     0.244 HD
ENDBRANCH   5  10
BRANCH   7  12
HETATM   12  O3  UNL     1      -2.015   6.964  13.267  1.00  0.00    -0.385 OA
ATOM     13  H3  UNL     1      -2.026   6.018  13.189  1.00  0.00     0.210 HD
ENDBRANCH   7  12
BRANCH   1  14
HETATM   14  C1  UNL     1      -4.367   5.732  17.103  1.00  0.00     0.191 C 
BRANCH  14  15
HETATM   15  O1  UNL     1      -5.089   6.843  17.531  1.00  0.00    -0.399 OA
ATOM     16  H1  UNL     1      -4.916   7.549  16.918  1.00  0.00     0.209 HD
ENDBRANCH  14  15
ENDBRANCH   1  14
BRANCH   8  17
HETATM   17  O4  UNL     1       0.145   6.393  16.004  1.00  0.00    -0.390 OA
ATOM     18  H4  UNL     1       0.846   6.658  15.420  1.00  0.00     0.210 HD
ENDBRANCH   8  17
BRANCH   9  19
HETATM   19  O5  UNL     1      -1.784   6.397  17.506  1.00  0.00    -0.391 OA
ATOM     20  H5  UNL     1      -2.284   5.932  18.166  1.00  0.00     0.210 HD
ENDBRANCH   9  19
TORSDOF 6
ENDMDL
