MODEL 8
REMARK VINA RESULT: -6.060505539      6.246      7.485
REMARK  5 active torsions:
REMARK  status: ('A' for Active; 'I' for Inactive)
REMARK    1  A    between atoms: O1_1  and  C1_3 
REMARK    2  A    between atoms: C1_3  and  C2_4 
REMARK    3  A    between atoms: C3_5  and  O2_6 
REMARK    4  A    between atoms: C4_8  and  O3_9 
REMARK    5  A    between atoms: C5_11  and  O4_12 
ROOT
HETATM    1  C2  UNL     1      30.754  25.837  43.800  1.00  0.00     0.166 C 
HETATM    2  C3  UNL     1      30.583  24.859  44.973  1.00  0.00     0.176 C 
HETATM    3  C4  UNL     1      29.428  23.986  44.565  1.00  0.00     0.185 C 
HETATM    4  C5  UNL     1      29.848  23.172  43.389  1.00  0.00     0.219 C 
HETATM    5  C6  UNL     1      30.896  23.806  42.569  1.00  0.00     0.147 A 
HETATM    6  N1  UNL     1      31.586  23.296  41.539  1.00  0.00    -0.270 N 
ATOM      7  H1  UNL     1      31.476  22.354  41.164  1.00  0.00     0.190 HD
HETATM    8  N2  UNL     1      32.429  24.203  41.088  1.00  0.00    -0.227 N 
ATOM      9  H2  UNL     1      33.081  24.093  40.311  1.00  0.00     0.210 HD
HETATM   10  N3  UNL     1      32.272  25.270  41.826  1.00  0.00    -0.224 N 
ATOM     11  H3  UNL     1      32.793  26.139  41.711  1.00  0.00     0.210 HD
HETATM   12  N4  UNL     1      31.339  25.064  42.745  1.00  0.00    -0.252 N 
ENDROOT
BRANCH   1  13
HETATM   13  C1  UNL     1      31.608  26.958  44.296  1.00  0.00     0.194 C 
BRANCH  13  14
HETATM   14  O1  UNL     1      32.864  26.571  44.700  1.00  0.00    -0.399 OA
ATOM     15  H1  UNL     1      33.454  26.361  43.985  1.00  0.00     0.209 HD
ENDBRANCH  13  14
ENDBRANCH   1  13
BRANCH   2  16
HETATM   16  O2  UNL     1      30.376  25.570  46.124  1.00  0.00    -0.391 OA
ATOM     17  H2  UNL     1      29.921  26.377  45.915  1.00  0.00     0.210 HD
ENDBRANCH   2  16
BRANCH   3  18
HETATM   18  O3  UNL     1      28.977  23.242  45.638  1.00  0.00    -0.390 OA
ATOM     19  H3  UNL     1      28.379  22.563  45.347  1.00  0.00     0.210 HD
ENDBRANCH   3  18
BRANCH   4  20
HETATM   20  O4  UNL     1      28.702  22.906  42.619  1.00  0.00    -0.385 OA
ATOM     21  H4  UNL     1      28.972  22.838  41.710  1.00  0.00     0.210 HD
ENDBRANCH   4  20
TORSDOF 5
ENDMDL
