MODEL 10
REMARK VINA RESULT: -6.041806590      5.907      7.304
REMARK  5 active torsions:
REMARK  status: ('A' for Active; 'I' for Inactive)
REMARK    1  A    between atoms: O1_1  and  C1_3 
REMARK    2  A    between atoms: C1_3  and  C2_4 
REMARK    3  A    between atoms: C3_5  and  O2_6 
REMARK    4  A    between atoms: C4_8  and  O3_9 
REMARK    5  A    between atoms: C5_11  and  O4_12 
ROOT
HETATM    1  C2  UNL     1      30.301  23.814  43.620  1.00  0.00     0.166 C 
HETATM    2  C3  UNL     1      29.671  25.165  43.997  1.00  0.00     0.176 C 
HETATM    3  C4  UNL     1      30.740  25.867  44.788  1.00  0.00     0.185 C 
HETATM    4  C5  UNL     1      31.878  26.169  43.873  1.00  0.00     0.219 C 
HETATM    5  C6  UNL     1      31.994  25.235  42.738  1.00  0.00     0.147 A 
HETATM    6  N1  UNL     1      32.805  25.298  41.672  1.00  0.00    -0.270 N 
ATOM      7  H1  UNL     1      33.484  26.036  41.491  1.00  0.00     0.190 HD
HETATM    8  N2  UNL     1      32.584  24.256  40.896  1.00  0.00    -0.227 N 
ATOM      9  H2  UNL     1      33.056  24.044  40.016  1.00  0.00     0.210 HD
HETATM   10  N3  UNL     1      31.646  23.547  41.466  1.00  0.00    -0.224 N 
ATOM     11  H3  UNL     1      31.265  22.678  41.092  1.00  0.00     0.210 HD
HETATM   12  N4  UNL     1      31.259  24.117  42.598  1.00  0.00    -0.252 N 
ENDROOT
BRANCH   1  13
HETATM   13  C1  UNL     1      29.184  22.926  43.180  1.00  0.00     0.194 C 
BRANCH  13  14
HETATM   14  O1  UNL     1      28.533  23.360  42.049  1.00  0.00    -0.399 OA
ATOM     15  H1  UNL     1      27.643  23.655  42.203  1.00  0.00     0.209 HD
ENDBRANCH  13  14
ENDBRANCH   1  13
BRANCH   2  16
HETATM   16  O2  UNL     1      28.511  24.941  44.688  1.00  0.00    -0.391 OA
ATOM     17  H2  UNL     1      28.201  25.763  45.052  1.00  0.00     0.210 HD
ENDBRANCH   2  16
BRANCH   3  18
HETATM   18  O3  UNL     1      30.221  26.974  45.431  1.00  0.00    -0.390 OA
ATOM     19  H3  UNL     1      29.273  26.982  45.371  1.00  0.00     0.210 HD
ENDBRANCH   3  18
BRANCH   4  20
HETATM   20  O4  UNL     1      33.056  26.174  44.639  1.00  0.00    -0.385 OA
ATOM     21  H4  UNL     1      33.792  26.245  44.041  1.00  0.00     0.210 HD
ENDBRANCH   4  20
TORSDOF 5
ENDMDL
