MODEL 7
REMARK VINA RESULT: -6.075675049      6.304      7.543
REMARK  5 active torsions:
REMARK  status: ('A' for Active; 'I' for Inactive)
REMARK    1  A    between atoms: O1_1  and  C1_3 
REMARK    2  A    between atoms: C1_3  and  C2_4 
REMARK    3  A    between atoms: C3_5  and  O2_6 
REMARK    4  A    between atoms: C4_8  and  O3_9 
REMARK    5  A    between atoms: C5_11  and  O4_12 
ROOT
HETATM    1  C2  UNL     1      29.872  25.112  44.164  1.00  0.00     0.166 C 
HETATM    2  C3  UNL     1      29.794  26.646  44.125  1.00  0.00     0.176 C 
HETATM    3  C4  UNL     1      31.050  27.101  44.817  1.00  0.00     0.185 C 
HETATM    4  C5  UNL     1      32.216  26.713  43.973  1.00  0.00     0.219 C 
HETATM    5  C6  UNL     1      31.972  25.531  43.126  1.00  0.00     0.147 A 
HETATM    6  N1  UNL     1      32.745  25.007  42.165  1.00  0.00    -0.270 N 
ATOM      7  H1  UNL     1      33.652  25.371  41.873  1.00  0.00     0.190 HD
HETATM    8  N2  UNL     1      32.150  23.947  41.657  1.00  0.00    -0.227 N 
ATOM      9  H2  UNL     1      32.506  23.349  40.910  1.00  0.00     0.210 HD
HETATM   10  N3  UNL     1      31.016  23.807  42.290  1.00  0.00    -0.224 N 
ATOM     11  H3  UNL     1      30.336  23.067  42.111  1.00  0.00     0.210 HD
HETATM   12  N4  UNL     1      30.872  24.760  43.200  1.00  0.00    -0.252 N 
ENDROOT
BRANCH   1  13
HETATM   13  C1  UNL     1      28.503  24.603  43.852  1.00  0.00     0.194 C 
BRANCH  13  14
HETATM   14  O1  UNL     1      28.058  24.922  42.590  1.00  0.00    -0.399 OA
ATOM     15  H1  UNL     1      28.517  24.469  41.892  1.00  0.00     0.209 HD
ENDBRANCH  13  14
ENDBRANCH   1  13
BRANCH   2  16
HETATM   16  O2  UNL     1      28.636  27.053  44.731  1.00  0.00    -0.391 OA
ATOM     17  H2  UNL     1      28.812  27.244  45.645  1.00  0.00     0.210 HD
ENDBRANCH   2  16
BRANCH   3  18
HETATM   18  O3  UNL     1      30.984  28.450  45.107  1.00  0.00    -0.390 OA
ATOM     19  H3  UNL     1      30.424  28.604  45.858  1.00  0.00     0.210 HD
ENDBRANCH   3  18
BRANCH   4  20
HETATM   20  O4  UNL     1      33.312  26.499  44.827  1.00  0.00    -0.385 OA
ATOM     21  H4  UNL     1      33.786  27.319  44.904  1.00  0.00     0.210 HD
ENDBRANCH   4  20
TORSDOF 5
ENDMDL
