MODEL 1
REMARK VINA RESULT: -8.496648035      0.000      0.000
REMARK  5 active torsions:
REMARK  status: ('A' for Active; 'I' for Inactive)
REMARK    1  A    between atoms: O1_1  and  C1_3 
REMARK    2  A    between atoms: C1_3  and  C2_4 
REMARK    3  A    between atoms: C3_5  and  O2_6 
REMARK    4  A    between atoms: C4_8  and  O3_9 
REMARK    5  A    between atoms: C5_11  and  O4_12 
ROOT
HETATM    1  C2  UNL     1      34.007  25.886  37.346  1.00  0.00     0.166 C 
HETATM    2  C3  UNL     1      33.992  24.632  36.457  1.00  0.00     0.176 C 
HETATM    3  C4  UNL     1      35.070  23.755  37.033  1.00  0.00     0.185 C 
HETATM    4  C5  UNL     1      34.643  23.319  38.393  1.00  0.00     0.219 C 
HETATM    5  C6  UNL     1      33.727  24.261  39.061  1.00  0.00     0.147 A 
HETATM    6  N1  UNL     1      33.056  24.113  40.212  1.00  0.00    -0.270 N 
ATOM      7  H1  UNL     1      33.088  23.290  40.811  1.00  0.00     0.190 HD
HETATM    8  N2  UNL     1      32.348  25.200  40.445  1.00  0.00    -0.227 N 
ATOM      9  H2  UNL     1      31.741  25.369  41.248  1.00  0.00     0.210 HD
HETATM   10  N3  UNL     1      32.571  26.021  39.453  1.00  0.00    -0.224 N 
ATOM     11  H3  UNL     1      32.156  26.948  39.360  1.00  0.00     0.210 HD
HETATM   12  N4  UNL     1      33.412  25.479  38.584  1.00  0.00    -0.252 N 
ENDROOT
BRANCH   1  13
HETATM   13  C1  UNL     1      33.249  26.943  36.610  1.00  0.00     0.194 C 
BRANCH  13  14
HETATM   14  O1  UNL     1      31.886  26.756  36.605  1.00  0.00    -0.399 OA
ATOM     15  H1  UNL     1      31.398  27.451  37.031  1.00  0.00     0.209 HD
ENDBRANCH  13  14
ENDBRANCH   1  13
BRANCH   2  16
HETATM   16  O2  UNL     1      34.198  25.001  35.156  1.00  0.00    -0.391 OA
ATOM     17  H2  UNL     1      34.949  24.530  34.813  1.00  0.00     0.210 HD
ENDBRANCH   2  16
BRANCH   3  18
HETATM   18  O3  UNL     1      35.365  22.717  36.171  1.00  0.00    -0.390 OA
ATOM     19  H3  UNL     1      35.782  23.045  35.382  1.00  0.00     0.210 HD
ENDBRANCH   3  18
BRANCH   4  20
HETATM   20  O4  UNL     1      35.802  23.117  39.163  1.00  0.00    -0.385 OA
ATOM     21  H4  UNL     1      35.608  22.446  39.809  1.00  0.00     0.210 HD
ENDBRANCH   4  20
TORSDOF 5
ENDMDL
