MODEL 1
REMARK VINA RESULT: -6.520389933      0.000      0.000
REMARK  8 active torsions:
REMARK  status: ('A' for Active; 'I' for Inactive)
REMARK    1  A    between atoms: O1_2  and  C2_3 
REMARK    2  A    between atoms: C2_3  and  O2_4 
REMARK    3  A    between atoms: C2_3  and  C3_6 
REMARK    4  A    between atoms: C6_12  and  O3_13 
REMARK    5  A    between atoms: C7_15  and  O4_16 
REMARK    6  A    between atoms: C8_18  and  O5_19 
REMARK    7  A    between atoms: C9_21  and  C10_22 
REMARK    8  A    between atoms: C10_22  and  O6_23 
ROOT
HETATM    1  C3  UNL     1      -1.529   9.329   9.028  1.00  0.00     0.081 A 
HETATM    2  C4  UNL     1      -1.913   9.203  10.347  1.00  0.00     0.123 A 
HETATM    3  N1  UNL     1      -1.406   8.029  10.808  1.00  0.00    -0.333 N 
HETATM    4  C5  UNL     1      -0.731   7.438   9.831  1.00  0.00     0.116 A 
HETATM    5  N2  UNL     1      -0.814   8.242   8.750  1.00  0.00    -0.342 N 
ATOM      6  H2  UNL     1      -0.388   8.044   7.845  1.00  0.00     0.167 HD
HETATM    7  C6  UNL     1      -0.081   6.134  10.094  1.00  0.00     0.217 C 
HETATM    8  C7  UNL     1       0.523   6.044  11.459  1.00  0.00     0.185 C 
HETATM    9  C8  UNL     1      -0.043   7.005  12.456  1.00  0.00     0.175 C 
HETATM   10  C9  UNL     1      -1.467   7.350  12.100  1.00  0.00     0.145 C 
ENDROOT
BRANCH   1  11
HETATM   11  C2  UNL     1      -1.891  10.492   8.164  1.00  0.00     0.308 C 
BRANCH  11  12
HETATM   12  O1  UNL     1      -0.786  11.069   7.598  1.00  0.00    -0.360 OA
HETATM   13  C1  UNL     1      -0.298  12.058   8.446  1.00  0.00     0.205 C 
ENDBRANCH  11  12
BRANCH  11  14
HETATM   14  O2  UNL     1      -2.602  11.437   8.941  1.00  0.00    -0.366 OA
ATOM     15  H2  UNL     1      -3.522  11.205   8.989  1.00  0.00     0.213 HD
ENDBRANCH  11  14
ENDBRANCH   1  11
BRANCH  10  16
HETATM   16  C10 UNL     1      -2.118   8.247  13.105  1.00  0.00     0.192 C 
BRANCH  16  17
HETATM   17  O6  UNL     1      -1.187   9.041  13.771  1.00  0.00    -0.399 OA
ATOM     18  H6  UNL     1      -1.148   9.919  13.409  1.00  0.00     0.209 HD
ENDBRANCH  16  17
ENDBRANCH  10  16
BRANCH   7  19
HETATM   19  O3  UNL     1      -0.966   5.097   9.827  1.00  0.00    -0.385 OA
ATOM     20  H3  UNL     1      -0.794   4.364  10.406  1.00  0.00     0.210 HD
ENDBRANCH   7  19
BRANCH   9  21
HETATM   21  O5  UNL     1      -0.060   6.477  13.747  1.00  0.00    -0.391 OA
ATOM     22  H5  UNL     1       0.409   7.025  14.366  1.00  0.00     0.210 HD
ENDBRANCH   9  21
BRANCH   8  23
HETATM   23  O4  UNL     1       1.911   6.171  11.427  1.00  0.00    -0.390 OA
ATOM     24  H4  UNL     1       2.311   5.916  12.249  1.00  0.00     0.210 HD
ENDBRANCH   8  23
TORSDOF 8
ENDMDL
