MODEL 2
REMARK VINA RESULT: -6.496765302      3.664      5.214
REMARK  8 active torsions:
REMARK  status: ('A' for Active; 'I' for Inactive)
REMARK    1  A    between atoms: O1_2  and  C2_3 
REMARK    2  A    between atoms: C2_3  and  O2_4 
REMARK    3  A    between atoms: C2_3  and  C3_6 
REMARK    4  A    between atoms: C6_12  and  O3_13 
REMARK    5  A    between atoms: C7_15  and  O4_16 
REMARK    6  A    between atoms: C8_18  and  O5_19 
REMARK    7  A    between atoms: C9_21  and  C10_22 
REMARK    8  A    between atoms: C10_22  and  O6_23 
ROOT
HETATM    1  C3  UNL     1      -1.514   8.086  13.524  1.00  0.00     0.081 A 
HETATM    2  C4  UNL     1      -2.673   7.578  14.070  1.00  0.00     0.123 A 
HETATM    3  N1  UNL     1      -2.315   6.732  15.071  1.00  0.00    -0.333 N 
HETATM    4  C5  UNL     1      -0.992   6.705  15.159  1.00  0.00     0.116 A 
HETATM    5  N2  UNL     1      -0.516   7.536  14.209  1.00  0.00    -0.342 N 
ATOM      6  H2  UNL     1       0.474   7.717  14.039  1.00  0.00     0.167 HD
HETATM    7  C6  UNL     1      -0.358   5.847  16.186  1.00  0.00     0.217 C 
HETATM    8  C7  UNL     1      -1.105   5.833  17.482  1.00  0.00     0.185 C 
HETATM    9  C8  UNL     1      -2.543   6.229  17.377  1.00  0.00     0.175 C 
HETATM   10  C9  UNL     1      -3.076   5.905  16.005  1.00  0.00     0.145 C 
ENDROOT
BRANCH   1  11
HETATM   11  C2  UNL     1      -1.484   9.059  12.391  1.00  0.00     0.308 C 
BRANCH  11  12
HETATM   12  O1  UNL     1      -2.512   8.847  11.512  1.00  0.00    -0.360 OA
HETATM   13  C1  UNL     1      -2.241   9.508  10.318  1.00  0.00     0.205 C 
ENDBRANCH  11  12
BRANCH  11  14
HETATM   14  O2  UNL     1      -0.237   8.957  11.731  1.00  0.00    -0.366 OA
ATOM     15  H2  UNL     1      -0.206   9.543  10.983  1.00  0.00     0.213 HD
ENDBRANCH  11  14
ENDBRANCH   1  11
BRANCH  10  16
HETATM   16  C10 UNL     1      -4.535   6.202  15.860  1.00  0.00     0.192 C 
BRANCH  16  17
HETATM   17  O6  UNL     1      -4.943   7.224  16.716  1.00  0.00    -0.399 OA
ATOM     18  H6  UNL     1      -5.890   7.290  16.760  1.00  0.00     0.209 HD
ENDBRANCH  16  17
ENDBRANCH  10  16
BRANCH   7  19
HETATM   19  O3  UNL     1      -0.142   4.573  15.677  1.00  0.00    -0.385 OA
ATOM     20  H3  UNL     1       0.709   4.530  15.256  1.00  0.00     0.210 HD
ENDBRANCH   7  19
BRANCH   9  21
HETATM   21  O5  UNL     1      -3.345   5.553  18.298  1.00  0.00    -0.391 OA
ATOM     22  H5  UNL     1      -4.200   5.958  18.395  1.00  0.00     0.210 HD
ENDBRANCH   9  21
BRANCH   8  23
HETATM   23  O4  UNL     1      -0.479   6.613  18.455  1.00  0.00    -0.390 OA
ATOM     24  H4  UNL     1       0.461   6.477  18.470  1.00  0.00     0.210 HD
ENDBRANCH   8  23
TORSDOF 8
ENDMDL
