MODEL 3
REMARK VINA RESULT: -6.412603243      3.342      4.819
REMARK  8 active torsions:
REMARK  status: ('A' for Active; 'I' for Inactive)
REMARK    1  A    between atoms: O1_2  and  C2_3 
REMARK    2  A    between atoms: C2_3  and  O2_4 
REMARK    3  A    between atoms: C2_3  and  C3_6 
REMARK    4  A    between atoms: C6_12  and  O3_13 
REMARK    5  A    between atoms: C7_15  and  O4_16 
REMARK    6  A    between atoms: C8_18  and  O5_19 
REMARK    7  A    between atoms: C9_21  and  C10_22 
REMARK    8  A    between atoms: C10_22  and  O6_23 
ROOT
HETATM    1  C3  UNL     1      -1.534   8.406  12.971  1.00  0.00     0.081 A 
HETATM    2  C4  UNL     1      -2.566   7.551  13.295  1.00  0.00     0.123 A 
HETATM    3  N1  UNL     1      -2.162   6.810  14.361  1.00  0.00    -0.333 N 
HETATM    4  C5  UNL     1      -0.935   7.178  14.699  1.00  0.00     0.116 A 
HETATM    5  N2  UNL     1      -0.563   8.152  13.843  1.00  0.00    -0.342 N 
ATOM      6  H2  UNL     1       0.339   8.629  13.862  1.00  0.00     0.167 HD
HETATM    7  C6  UNL     1      -0.274   6.508  15.843  1.00  0.00     0.217 C 
HETATM    8  C7  UNL     1      -1.210   6.217  16.973  1.00  0.00     0.185 C 
HETATM    9  C8  UNL     1      -2.655   6.167  16.589  1.00  0.00     0.175 C 
HETATM   10  C9  UNL     1      -2.799   5.755  15.146  1.00  0.00     0.145 C 
ENDROOT
BRANCH   1  11
HETATM   11  C2  UNL     1      -1.590   9.388  11.848  1.00  0.00     0.308 C 
BRANCH  11  12
HETATM   12  O1  UNL     1      -2.555   9.062  10.934  1.00  0.00    -0.360 OA
HETATM   13  C1  UNL     1      -2.345   9.786   9.765  1.00  0.00     0.205 C 
ENDBRANCH  11  12
BRANCH  11  14
HETATM   14  O2  UNL     1      -0.319   9.448  11.228  1.00  0.00    -0.366 OA
ATOM     15  H2  UNL     1       0.176   8.656  11.404  1.00  0.00     0.213 HD
ENDBRANCH  11  14
ENDBRANCH   1  11
BRANCH  10  16
HETATM   16  C10 UNL     1      -4.225   5.607  14.721  1.00  0.00     0.192 C 
BRANCH  16  17
HETATM   17  O6  UNL     1      -4.669   4.291  14.845  1.00  0.00    -0.399 OA
ATOM     18  H6  UNL     1      -5.007   3.954  14.024  1.00  0.00     0.209 HD
ENDBRANCH  16  17
ENDBRANCH  10  16
BRANCH   7  19
HETATM   19  O3  UNL     1       0.408   5.380  15.407  1.00  0.00    -0.385 OA
ATOM     20  H3  UNL     1       0.139   4.620  15.910  1.00  0.00     0.210 HD
ENDBRANCH   7  19
BRANCH   9  21
HETATM   21  O5  UNL     1      -3.372   5.244  17.352  1.00  0.00    -0.391 OA
ATOM     22  H5  UNL     1      -4.083   4.848  16.862  1.00  0.00     0.210 HD
ENDBRANCH   9  21
BRANCH   8  23
HETATM   23  O4  UNL     1      -1.042   7.107  18.034  1.00  0.00    -0.390 OA
ATOM     24  H4  UNL     1      -1.864   7.500  18.303  1.00  0.00     0.210 HD
ENDBRANCH   8  23
TORSDOF 8
ENDMDL
