MODEL 7
REMARK VINA RESULT: -6.543650454      2.196      6.179
REMARK  8 active torsions:
REMARK  status: ('A' for Active; 'I' for Inactive)
REMARK    1  A    between atoms: O1_2  and  C2_3 
REMARK    2  A    between atoms: C2_3  and  C3_5 
REMARK    3  A    between atoms: C3_5  and  C4_6 
REMARK    4  A    between atoms: C7_12  and  O3_13 
REMARK    5  A    between atoms: C8_15  and  O4_16 
REMARK    6  A    between atoms: C9_18  and  O5_19 
REMARK    7  A    between atoms: C10_21  and  C11_22 
REMARK    8  A    between atoms: C11_22  and  O6_23 
ROOT
HETATM    1  C4  UNL     1      -0.512   9.905  10.555  1.00  0.00     0.035 A 
HETATM    2  C5  UNL     1      -1.470   9.724  11.530  1.00  0.00     0.118 A 
HETATM    3  N1  UNL     1      -1.226   8.582  12.204  1.00  0.00    -0.333 N 
HETATM    4  C6  UNL     1      -0.135   8.052  11.666  1.00  0.00     0.116 A 
HETATM    5  N2  UNL     1       0.301   8.840  10.677  1.00  0.00    -0.345 N 
ATOM      6  H2  UNL     1       1.124   8.660  10.102  1.00  0.00     0.167 HD
HETATM    7  C7  UNL     1       0.406   6.778  12.185  1.00  0.00     0.217 C 
HETATM    8  C8  UNL     1      -0.815   5.900  12.493  1.00  0.00     0.185 C 
HETATM    9  C9  UNL     1      -1.569   6.586  13.585  1.00  0.00     0.175 C 
HETATM   10  C10 UNL     1      -1.964   7.993  13.302  1.00  0.00     0.145 C 
ENDROOT
BRANCH   1  11
HETATM   11  C3  UNL     1      -0.347  10.997   9.566  1.00  0.00     0.169 C 
BRANCH  11  12
HETATM   12  C2  UNL     1      -1.286  10.842   8.422  1.00  0.00     0.264 C 
HETATM   13  O2  UNL     1      -0.883  10.678   7.241  1.00  0.00    -0.265 OA
BRANCH  12  14
HETATM   14  O1  UNL     1      -2.654  10.875   8.641  1.00  0.00    -0.326 OA
HETATM   15  C1  UNL     1      -3.448   9.719   8.458  1.00  0.00     0.213 C 
ENDBRANCH  12  14
ENDBRANCH  11  12
ENDBRANCH   1  11
BRANCH  10  16
HETATM   16  C11 UNL     1      -1.784   8.825  14.577  1.00  0.00     0.192 C 
BRANCH  16  17
HETATM   17  O6  UNL     1      -2.255   8.138  15.679  1.00  0.00    -0.399 OA
ATOM     18  H6  UNL     1      -3.205   8.129  15.687  1.00  0.00     0.209 HD
ENDBRANCH  16  17
ENDBRANCH  10  16
BRANCH   7  19
HETATM   19  O3  UNL     1       1.219   6.129  11.264  1.00  0.00    -0.385 OA
ATOM     20  H3  UNL     1       0.838   5.318  10.949  1.00  0.00     0.210 HD
ENDBRANCH   7  19
BRANCH   9  21
HETATM   21  O5  UNL     1      -2.689   5.782  13.895  1.00  0.00    -0.391 OA
ATOM     22  H5  UNL     1      -3.207   5.701  13.103  1.00  0.00     0.210 HD
ENDBRANCH   9  21
BRANCH   8  23
HETATM   23  O4  UNL     1      -0.403   4.662  12.932  1.00  0.00    -0.390 OA
ATOM     24  H4  UNL     1       0.242   4.761  13.622  1.00  0.00     0.210 HD
ENDBRANCH   8  23
TORSDOF 8
ENDMDL
