MODEL 3
REMARK VINA RESULT: -6.979549403      2.376      5.785
REMARK  8 active torsions:
REMARK  status: ('A' for Active; 'I' for Inactive)
REMARK    1  A    between atoms: O1_2  and  C2_3 
REMARK    2  A    between atoms: C2_3  and  C3_5 
REMARK    3  A    between atoms: C3_5  and  C4_6 
REMARK    4  A    between atoms: C7_12  and  O3_13 
REMARK    5  A    between atoms: C8_15  and  O4_16 
REMARK    6  A    between atoms: C9_18  and  O5_19 
REMARK    7  A    between atoms: C10_21  and  C11_22 
REMARK    8  A    between atoms: C11_22  and  O6_23 
ROOT
HETATM    1  C4  UNL     1      -0.723   5.831   9.811  1.00  0.00     0.035 A 
HETATM    2  C5  UNL     1      -0.261   6.647  10.821  1.00  0.00     0.118 A 
HETATM    3  N1  UNL     1      -0.888   7.839  10.768  1.00  0.00    -0.333 N 
HETATM    4  C6  UNL     1      -1.731   7.778   9.745  1.00  0.00     0.116 A 
HETATM    5  N2  UNL     1      -1.638   6.575   9.165  1.00  0.00    -0.345 N 
ATOM      6  H2  UNL     1      -2.180   6.270   8.357  1.00  0.00     0.167 HD
HETATM    7  C7  UNL     1      -2.582   8.939   9.410  1.00  0.00     0.217 C 
HETATM    8  C8  UNL     1      -1.699  10.177   9.619  1.00  0.00     0.185 C 
HETATM    9  C9  UNL     1      -1.366  10.224  11.074  1.00  0.00     0.175 C 
HETATM   10  C10 UNL     1      -0.724   8.998  11.622  1.00  0.00     0.145 C 
ENDROOT
BRANCH   1  11
HETATM   11  C3  UNL     1      -0.348   4.441   9.456  1.00  0.00     0.169 C 
BRANCH  11  12
HETATM   12  C2  UNL     1       0.628   4.409   8.333  1.00  0.00     0.264 C 
HETATM   13  O2  UNL     1       0.926   5.438   7.674  1.00  0.00    -0.265 OA
BRANCH  12  14
HETATM   14  O1  UNL     1       1.244   3.217   7.986  1.00  0.00    -0.326 OA
HETATM   15  C1  UNL     1       1.042   2.640   6.711  1.00  0.00     0.213 C 
ENDBRANCH  12  14
ENDBRANCH  11  12
ENDBRANCH   1  11
BRANCH  10  16
HETATM   16  C11 UNL     1      -1.295   8.720  13.017  1.00  0.00     0.192 C 
BRANCH  16  17
HETATM   17  O6  UNL     1      -0.286   8.693  13.960  1.00  0.00    -0.399 OA
ATOM     18  H6  UNL     1       0.307   9.424  13.837  1.00  0.00     0.209 HD
ENDBRANCH  16  17
ENDBRANCH  10  16
BRANCH   7  19
HETATM   19  O3  UNL     1      -3.033   8.910   8.097  1.00  0.00    -0.385 OA
ATOM     20  H3  UNL     1      -2.608   9.561   7.551  1.00  0.00     0.210 HD
ENDBRANCH   7  19
BRANCH   9  21
HETATM   21  O5  UNL     1      -0.566  11.370  11.288  1.00  0.00    -0.391 OA
ATOM     22  H5  UNL     1      -0.713  11.656  12.182  1.00  0.00     0.210 HD
ENDBRANCH   9  21
BRANCH   8  23
HETATM   23  O4  UNL     1      -2.397  11.313   9.275  1.00  0.00    -0.390 OA
ATOM     24  H4  UNL     1      -1.938  12.083   9.590  1.00  0.00     0.210 HD
ENDBRANCH   8  23
TORSDOF 8
ENDMDL
