MODEL 2
REMARK VINA RESULT: -6.980372991      2.234      5.801
REMARK  8 active torsions:
REMARK  status: ('A' for Active; 'I' for Inactive)
REMARK    1  A    between atoms: O1_2  and  C2_3 
REMARK    2  A    between atoms: C2_3  and  C3_5 
REMARK    3  A    between atoms: C3_5  and  C4_6 
REMARK    4  A    between atoms: C7_12  and  O3_13 
REMARK    5  A    between atoms: C8_15  and  O4_16 
REMARK    6  A    between atoms: C9_18  and  O5_19 
REMARK    7  A    between atoms: C10_21  and  C11_22 
REMARK    8  A    between atoms: C11_22  and  O6_23 
ROOT
HETATM    1  C4  UNL     1      -0.333   9.899  10.399  1.00  0.00     0.035 A 
HETATM    2  C5  UNL     1       0.184   8.622  10.344  1.00  0.00     0.118 A 
HETATM    3  N1  UNL     1      -0.150   7.946  11.462  1.00  0.00    -0.333 N 
HETATM    4  C6  UNL     1      -0.864   8.779  12.208  1.00  0.00     0.116 A 
HETATM    5  N2  UNL     1      -0.979   9.952  11.577  1.00  0.00    -0.345 N 
ATOM      6  H2  UNL     1      -1.481  10.765  11.935  1.00  0.00     0.167 HD
HETATM    7  C7  UNL     1      -1.390   8.340  13.518  1.00  0.00     0.217 C 
HETATM    8  C8  UNL     1      -0.281   7.485  14.148  1.00  0.00     0.185 C 
HETATM    9  C9  UNL     1      -0.111   6.290  13.269  1.00  0.00     0.175 C 
HETATM   10  C10 UNL     1       0.173   6.584  11.838  1.00  0.00     0.145 C 
ENDROOT
BRANCH   1  11
HETATM   11  C3  UNL     1      -0.242  11.011   9.422  1.00  0.00     0.169 C 
BRANCH  11  12
HETATM   12  C2  UNL     1      -1.272  10.885   8.355  1.00  0.00     0.264 C 
HETATM   13  O2  UNL     1      -0.967  10.778   7.139  1.00  0.00    -0.265 OA
BRANCH  12  14
HETATM   14  O1  UNL     1      -2.617  10.882   8.688  1.00  0.00    -0.326 OA
HETATM   15  C1  UNL     1      -3.399   9.712   8.544  1.00  0.00     0.213 C 
ENDBRANCH  12  14
ENDBRANCH  11  12
ENDBRANCH   1  11
BRANCH  10  16
HETATM   16  C11 UNL     1      -0.599   5.590  10.963  1.00  0.00     0.192 C 
BRANCH  16  17
HETATM   17  O6  UNL     1      -0.612   4.337  11.546  1.00  0.00    -0.399 OA
ATOM     18  H6  UNL     1      -0.032   4.311  12.297  1.00  0.00     0.209 HD
ENDBRANCH  16  17
ENDBRANCH  10  16
BRANCH   7  19
HETATM   19  O3  UNL     1      -1.685   9.405  14.358  1.00  0.00    -0.385 OA
ATOM     20  H3  UNL     1      -1.000  10.063  14.368  1.00  0.00     0.210 HD
ENDBRANCH   7  19
BRANCH   9  21
HETATM   21  O5  UNL     1       0.896   5.482  13.844  1.00  0.00    -0.391 OA
ATOM     22  H5  UNL     1       0.677   4.577  13.654  1.00  0.00     0.210 HD
ENDBRANCH   9  21
BRANCH   8  23
HETATM   23  O4  UNL     1      -0.663   7.076  15.406  1.00  0.00    -0.390 OA
ATOM     24  H4  UNL     1      -0.035   6.450  15.747  1.00  0.00     0.210 HD
ENDBRANCH   8  23
TORSDOF 8
ENDMDL
