MODEL 3
REMARK VINA RESULT: -6.689474142      3.454      7.402
REMARK  6 active torsions:
REMARK  status: ('A' for Active; 'I' for Inactive)
REMARK    1  A    between atoms: C1_2  and  C2_4 
REMARK    2  A    between atoms: C5_10  and  O3_11 
REMARK    3  A    between atoms: C6_13  and  O4_14 
REMARK    4  A    between atoms: C7_16  and  O5_17 
REMARK    5  A    between atoms: C8_19  and  C9_20 
REMARK    6  A    between atoms: C9_20  and  O6_21 
ROOT
HETATM    1  C2  UNL     1      31.253  24.942  40.519  1.00  0.00     0.126 A 
HETATM    2  C3  UNL     1      31.829  25.900  39.714  1.00  0.00     0.129 A 
HETATM    3  N1  UNL     1      32.806  25.348  38.948  1.00  0.00    -0.333 N 
HETATM    4  C4  UNL     1      32.836  24.044  39.278  1.00  0.00     0.116 A 
HETATM    5  N2  UNL     1      31.917  23.791  40.210  1.00  0.00    -0.337 N 
ATOM      6  H2  UNL     1      31.738  22.878  40.629  1.00  0.00     0.167 HD
HETATM    7  C5  UNL     1      33.825  23.201  38.569  1.00  0.00     0.217 C 
HETATM    8  C6  UNL     1      33.644  23.569  37.089  1.00  0.00     0.185 C 
HETATM    9  C7  UNL     1      34.159  24.950  36.909  1.00  0.00     0.175 C 
HETATM   10  C8  UNL     1      33.704  25.889  37.960  1.00  0.00     0.145 C 
ENDROOT
BRANCH   1  11
HETATM   11  C1  UNL     1      30.174  25.114  41.485  1.00  0.00     0.228 C 
HETATM   12  O1  UNL     1      29.015  24.792  41.168  1.00  0.00    -0.643 OA
HETATM   13  O2  UNL     1      30.389  25.626  42.755  1.00  0.00    -0.643 OA
ENDBRANCH   1  11
BRANCH  10  14
HETATM   14  C9  UNL     1      33.058  27.086  37.267  1.00  0.00     0.192 C 
BRANCH  14  15
HETATM   15  O6  UNL     1      33.386  27.162  35.922  1.00  0.00    -0.399 OA
ATOM     16  H6  UNL     1      33.643  26.322  35.561  1.00  0.00     0.209 HD
ENDBRANCH  14  15
ENDBRANCH  10  14
BRANCH   7  17
HETATM   17  O3  UNL     1      35.095  23.643  38.925  1.00  0.00    -0.385 OA
ATOM     18  H3  UNL     1      35.352  23.182  39.714  1.00  0.00     0.210 HD
ENDBRANCH   7  17
BRANCH   9  19
HETATM   19  O5  UNL     1      35.569  24.873  36.923  1.00  0.00    -0.391 OA
ATOM     20  H5  UNL     1      35.884  25.368  36.177  1.00  0.00     0.210 HD
ENDBRANCH   9  19
BRANCH   8  21
HETATM   21  O4  UNL     1      32.261  23.534  36.844  1.00  0.00    -0.390 OA
ATOM     22  H4  UNL     1      31.989  22.636  36.991  1.00  0.00     0.210 HD
ENDBRANCH   8  21
TORSDOF 6
ENDMDL
