MODEL 2
REMARK VINA RESULT: -6.736914002      3.879      5.425
REMARK  6 active torsions:
REMARK  status: ('A' for Active; 'I' for Inactive)
REMARK    1  A    between atoms: C1_2  and  C2_4 
REMARK    2  A    between atoms: C5_10  and  O3_11 
REMARK    3  A    between atoms: C6_13  and  O4_14 
REMARK    4  A    between atoms: C7_16  and  O5_17 
REMARK    5  A    between atoms: C8_19  and  C9_20 
REMARK    6  A    between atoms: C9_20  and  O6_21 
ROOT
HETATM    1  C2  UNL     1      32.860  24.771  37.492  1.00  0.00     0.126 A 
HETATM    2  C3  UNL     1      32.537  25.277  38.731  1.00  0.00     0.129 A 
HETATM    3  N1  UNL     1      31.382  24.719  39.183  1.00  0.00    -0.333 N 
HETATM    4  C4  UNL     1      30.989  23.865  38.221  1.00  0.00     0.116 A 
HETATM    5  N2  UNL     1      31.860  23.887  37.211  1.00  0.00    -0.337 N 
ATOM      6  H2  UNL     1      31.790  23.329  36.360  1.00  0.00     0.167 HD
HETATM    7  C5  UNL     1      29.741  23.109  38.473  1.00  0.00     0.217 C 
HETATM    8  C6  UNL     1      29.909  22.565  39.899  1.00  0.00     0.185 C 
HETATM    9  C7  UNL     1      29.819  23.720  40.828  1.00  0.00     0.175 C 
HETATM   10  C8  UNL     1      30.614  24.891  40.389  1.00  0.00     0.145 C 
ENDROOT
BRANCH   1  11
HETATM   11  C1  UNL     1      34.013  25.103  36.662  1.00  0.00     0.228 C 
HETATM   12  O1  UNL     1      34.725  26.075  36.969  1.00  0.00    -0.643 OA
HETATM   13  O2  UNL     1      34.351  24.371  35.534  1.00  0.00    -0.643 OA
ENDBRANCH   1  11
BRANCH  10  14
HETATM   14  C9  UNL     1      31.533  25.287  41.542  1.00  0.00     0.192 C 
BRANCH  14  15
HETATM   15  O6  UNL     1      32.254  24.212  42.040  1.00  0.00    -0.399 OA
ATOM     16  H6  UNL     1      33.146  24.446  42.271  1.00  0.00     0.209 HD
ENDBRANCH  14  15
ENDBRANCH  10  14
BRANCH   7  17
HETATM   17  O3  UNL     1      28.694  24.022  38.527  1.00  0.00    -0.385 OA
ATOM     18  H3  UNL     1      28.064  23.705  39.163  1.00  0.00     0.210 HD
ENDBRANCH   7  17
BRANCH   9  19
HETATM   19  O5  UNL     1      28.456  24.081  40.911  1.00  0.00    -0.391 OA
ATOM     20  H5  UNL     1      28.320  24.801  40.306  1.00  0.00     0.210 HD
ENDBRANCH   9  19
BRANCH   8  21
HETATM   21  O4  UNL     1      31.195  22.002  39.954  1.00  0.00    -0.390 OA
ATOM     22  H4  UNL     1      31.564  22.268  40.788  1.00  0.00     0.210 HD
ENDBRANCH   8  21
TORSDOF 6
ENDMDL
