MODEL 1
REMARK VINA RESULT: -6.740405437      0.000      0.000
REMARK  6 active torsions:
REMARK  status: ('A' for Active; 'I' for Inactive)
REMARK    1  A    between atoms: C1_2  and  C2_4 
REMARK    2  A    between atoms: C5_10  and  O3_11 
REMARK    3  A    between atoms: C6_13  and  O4_14 
REMARK    4  A    between atoms: C7_16  and  O5_17 
REMARK    5  A    between atoms: C8_19  and  C9_20 
REMARK    6  A    between atoms: C9_20  and  O6_21 
ROOT
HETATM    1  C2  UNL     1      31.023  24.713  41.868  1.00  0.00     0.126 A 
HETATM    2  C3  UNL     1      30.680  25.936  42.399  1.00  0.00     0.129 A 
HETATM    3  N1  UNL     1      29.950  25.771  43.534  1.00  0.00    -0.333 N 
HETATM    4  C4  UNL     1      29.840  24.441  43.706  1.00  0.00     0.116 A 
HETATM    5  N2  UNL     1      30.474  23.802  42.723  1.00  0.00    -0.337 N 
ATOM      6  H2  UNL     1      30.539  22.789  42.624  1.00  0.00     0.167 HD
HETATM    7  C5  UNL     1      29.085  23.986  44.896  1.00  0.00     0.217 C 
HETATM    8  C6  UNL     1      29.657  24.820  46.050  1.00  0.00     0.185 C 
HETATM    9  C7  UNL     1      29.202  26.220  45.855  1.00  0.00     0.175 C 
HETATM   10  C8  UNL     1      29.350  26.697  44.459  1.00  0.00     0.145 C 
ENDROOT
BRANCH   1  11
HETATM   11  C1  UNL     1      31.799  24.445  40.662  1.00  0.00     0.228 C 
HETATM   12  O1  UNL     1      32.802  25.137  40.418  1.00  0.00    -0.643 OA
HETATM   13  O2  UNL     1      31.460  23.441  39.769  1.00  0.00    -0.643 OA
ENDBRANCH   1  11
BRANCH  10  14
HETATM   14  C9  UNL     1      30.152  27.995  44.494  1.00  0.00     0.192 C 
BRANCH  14  15
HETATM   15  O6  UNL     1      30.298  28.496  45.779  1.00  0.00    -0.399 OA
ATOM     16  H6  UNL     1      30.957  29.178  45.832  1.00  0.00     0.209 HD
ENDBRANCH  14  15
ENDBRANCH  10  14
BRANCH   7  17
HETATM   17  O3  UNL     1      27.763  24.391  44.743  1.00  0.00    -0.385 OA
ATOM     18  H3  UNL     1      27.234  23.897  45.357  1.00  0.00     0.210 HD
ENDBRANCH   7  17
BRANCH   9  19
HETATM   19  O5  UNL     1      27.841  26.270  46.229  1.00  0.00    -0.391 OA
ATOM     20  H5  UNL     1      27.698  27.109  46.650  1.00  0.00     0.210 HD
ENDBRANCH   9  19
BRANCH   8  21
HETATM   21  O4  UNL     1      31.055  24.747  45.930  1.00  0.00    -0.390 OA
ATOM     22  H4  UNL     1      31.310  23.913  46.306  1.00  0.00     0.210 HD
ENDBRANCH   8  21
TORSDOF 6
ENDMDL
