MODEL 4
REMARK VINA RESULT: -6.568858193      2.017      4.872
REMARK  6 active torsions:
REMARK  status: ('A' for Active; 'I' for Inactive)
REMARK    1  A    between atoms: C1_2  and  C2_4 
REMARK    2  A    between atoms: C5_10  and  O3_11 
REMARK    3  A    between atoms: C6_13  and  O4_14 
REMARK    4  A    between atoms: C7_16  and  O5_17 
REMARK    5  A    between atoms: C8_19  and  C9_20 
REMARK    6  A    between atoms: C9_20  and  O6_21 
ROOT
HETATM    1  C2  UNL     1      29.309  24.460  45.782  1.00  0.00     0.126 A 
HETATM    2  C3  UNL     1      30.478  25.147  45.541  1.00  0.00     0.129 A 
HETATM    3  N1  UNL     1      30.856  24.995  44.244  1.00  0.00    -0.333 N 
HETATM    4  C4  UNL     1      29.919  24.213  43.679  1.00  0.00     0.116 A 
HETATM    5  N2  UNL     1      28.994  23.889  44.584  1.00  0.00    -0.337 N 
ATOM      6  H2  UNL     1      28.177  23.304  44.407  1.00  0.00     0.167 HD
HETATM    7  C5  UNL     1      30.094  23.896  42.243  1.00  0.00     0.217 C 
HETATM    8  C6  UNL     1      30.392  25.253  41.590  1.00  0.00     0.185 C 
HETATM    9  C7  UNL     1      31.748  25.670  42.031  1.00  0.00     0.175 C 
HETATM   10  C8  UNL     1      31.977  25.487  43.483  1.00  0.00     0.145 C 
ENDROOT
BRANCH   1  11
HETATM   11  C1  UNL     1      28.569  24.364  47.035  1.00  0.00     0.228 C 
HETATM   12  O1  UNL     1      29.191  24.370  48.111  1.00  0.00    -0.643 OA
HETATM   13  O2  UNL     1      27.187  24.265  47.075  1.00  0.00    -0.643 OA
ENDBRANCH   1  11
BRANCH  10  14
HETATM   14  C9  UNL     1      32.448  26.823  44.051  1.00  0.00     0.192 C 
BRANCH  14  15
HETATM   15  O6  UNL     1      33.590  26.697  44.829  1.00  0.00    -0.399 OA
ATOM     16  H6  UNL     1      34.191  27.424  44.714  1.00  0.00     0.209 HD
ENDBRANCH  14  15
ENDBRANCH  10  14
BRANCH   7  17
HETATM   17  O3  UNL     1      31.253  23.140  42.112  1.00  0.00    -0.385 OA
ATOM     18  H3  UNL     1      31.257  22.762  41.241  1.00  0.00     0.210 HD
ENDBRANCH   7  17
BRANCH   9  19
HETATM   19  O5  UNL     1      32.677  24.891  41.306  1.00  0.00    -0.391 OA
ATOM     20  H5  UNL     1      33.515  24.974  41.746  1.00  0.00     0.210 HD
ENDBRANCH   9  19
BRANCH   8  21
HETATM   21  O4  UNL     1      29.429  26.147  42.088  1.00  0.00    -0.390 OA
ATOM     22  H4  UNL     1      29.451  26.061  43.033  1.00  0.00     0.210 HD
ENDBRANCH   8  21
TORSDOF 6
ENDMDL
