MODEL 5
REMARK VINA RESULT: -6.711801628      2.907      7.296
REMARK  7 active torsions:
REMARK  status: ('A' for Active; 'I' for Inactive)
REMARK    1  A    between atoms: C1_2  and  C2_4 
REMARK    2  A    between atoms: C2_4  and  C3_5 
REMARK    3  A    between atoms: C6_11  and  O3_12 
REMARK    4  A    between atoms: C7_14  and  O4_15 
REMARK    5  A    between atoms: C8_17  and  O5_18 
REMARK    6  A    between atoms: C9_20  and  C10_21 
REMARK    7  A    between atoms: C10_21  and  O6_22 
ROOT
HETATM    1  C3  UNL     1      -2.261   7.783  12.925  1.00  0.00     0.036 A 
HETATM    2  C4  UNL     1      -3.314   7.321  13.676  1.00  0.00     0.118 A 
HETATM    3  N1  UNL     1      -2.838   6.716  14.790  1.00  0.00    -0.333 N 
HETATM    4  C5  UNL     1      -1.514   6.809  14.719  1.00  0.00     0.116 A 
HETATM    5  N2  UNL     1      -1.129   7.459  13.587  1.00  0.00    -0.345 N 
ATOM      6  H2  UNL     1      -0.173   7.661  13.296  1.00  0.00     0.167 HD
HETATM    7  C6  UNL     1      -0.607   6.258  15.767  1.00  0.00     0.217 C 
HETATM    8  C7  UNL     1      -1.386   6.215  17.047  1.00  0.00     0.185 C 
HETATM    9  C8  UNL     1      -2.699   5.510  16.909  1.00  0.00     0.175 C 
HETATM   10  C9  UNL     1      -3.581   6.089  15.857  1.00  0.00     0.145 C 
ENDROOT
BRANCH   1  11
HETATM   11  C2  UNL     1      -2.347   8.509  11.624  1.00  0.00     0.171 C 
BRANCH  11  12
HETATM   12  C1  UNL     1      -1.037   9.190  11.333  1.00  0.00     0.178 C 
HETATM   13  O1  UNL     1      -1.014  10.438  11.268  1.00  0.00    -0.648 OA
HETATM   14  O2  UNL     1       0.107   8.441  11.143  1.00  0.00    -0.648 OA
ENDBRANCH  11  12
ENDBRANCH   1  11
BRANCH  10  15
HETATM   15  C10 UNL     1      -4.463   7.178  16.481  1.00  0.00     0.192 C 
BRANCH  15  16
HETATM   16  O6  UNL     1      -5.140   6.624  17.591  1.00  0.00    -0.399 OA
ATOM     17  H6  UNL     1      -5.721   5.941  17.278  1.00  0.00     0.209 HD
ENDBRANCH  15  16
ENDBRANCH  10  15
BRANCH   7  18
HETATM   18  O3  UNL     1      -0.119   5.030  15.378  1.00  0.00    -0.385 OA
ATOM     19  H3  UNL     1      -0.506   4.340  15.906  1.00  0.00     0.210 HD
ENDBRANCH   7  18
BRANCH   9  20
HETATM   20  O5  UNL     1      -2.528   4.121  16.743  1.00  0.00    -0.391 OA
ATOM     21  H5  UNL     1      -3.205   3.628  17.192  1.00  0.00     0.210 HD
ENDBRANCH   9  20
BRANCH   8  22
HETATM   22  O4  UNL     1      -1.642   7.526  17.446  1.00  0.00    -0.390 OA
ATOM     23  H4  UNL     1      -1.365   7.620  18.350  1.00  0.00     0.210 HD
ENDBRANCH   8  22
TORSDOF 7
ENDMDL
