MODEL 4
REMARK VINA RESULT: -6.716591766      4.775      8.736
REMARK  7 active torsions:
REMARK  status: ('A' for Active; 'I' for Inactive)
REMARK    1  A    between atoms: C1_2  and  C2_4 
REMARK    2  A    between atoms: C2_4  and  C3_5 
REMARK    3  A    between atoms: C6_11  and  O3_12 
REMARK    4  A    between atoms: C7_14  and  O4_15 
REMARK    5  A    between atoms: C8_17  and  O5_18 
REMARK    6  A    between atoms: C9_20  and  C10_21 
REMARK    7  A    between atoms: C10_21  and  O6_22 
ROOT
HETATM    1  C3  UNL     1      -0.006   5.555  14.363  1.00  0.00     0.036 A 
HETATM    2  C4  UNL     1       0.653   5.060  15.461  1.00  0.00     0.118 A 
HETATM    3  N1  UNL     1      -0.088   5.293  16.570  1.00  0.00    -0.333 N 
HETATM    4  C5  UNL     1      -1.183   5.922  16.153  1.00  0.00     0.116 A 
HETATM    5  N2  UNL     1      -1.162   6.096  14.804  1.00  0.00    -0.345 N 
ATOM      6  H2  UNL     1      -1.879   6.548  14.236  1.00  0.00     0.167 HD
HETATM    7  C6  UNL     1      -2.267   6.359  17.078  1.00  0.00     0.217 C 
HETATM    8  C7  UNL     1      -2.209   5.465  18.281  1.00  0.00     0.185 C 
HETATM    9  C8  UNL     1      -0.845   5.393  18.891  1.00  0.00     0.175 C 
HETATM   10  C9  UNL     1       0.213   4.948  17.940  1.00  0.00     0.145 C 
ENDROOT
BRANCH   1  11
HETATM   11  C2  UNL     1       0.464   5.505  12.947  1.00  0.00     0.171 C 
BRANCH  11  12
HETATM   12  C1  UNL     1       0.609   6.903  12.410  1.00  0.00     0.178 C 
HETATM   13  O1  UNL     1       1.387   7.097  11.451  1.00  0.00    -0.648 OA
HETATM   14  O2  UNL     1      -0.106   7.941  12.973  1.00  0.00    -0.648 OA
ENDBRANCH  11  12
ENDBRANCH   1  11
BRANCH  10  15
HETATM   15  C10 UNL     1       0.330   3.419  17.994  1.00  0.00     0.192 C 
BRANCH  15  16
HETATM   16  O6  UNL     1      -0.055   2.987  19.284  1.00  0.00    -0.399 OA
ATOM     17  H6  UNL     1       0.718   2.671  19.737  1.00  0.00     0.209 HD
ENDBRANCH  15  16
ENDBRANCH  10  15
BRANCH   7  18
HETATM   18  O3  UNL     1      -2.126   7.696  17.381  1.00  0.00    -0.385 OA
ATOM     19  H3  UNL     1      -1.207   7.938  17.389  1.00  0.00     0.210 HD
ENDBRANCH   7  18
BRANCH   9  20
HETATM   20  O5  UNL     1      -0.497   6.598  19.533  1.00  0.00    -0.391 OA
ATOM     21  H5  UNL     1      -0.823   6.626  20.426  1.00  0.00     0.210 HD
ENDBRANCH   9  20
BRANCH   8  22
HETATM   22  O4  UNL     1      -2.572   4.178  17.885  1.00  0.00    -0.390 OA
ATOM     23  H4  UNL     1      -2.804   3.683  18.662  1.00  0.00     0.210 HD
ENDBRANCH   8  22
TORSDOF 7
ENDMDL
