MODEL 3
REMARK VINA RESULT: -6.804903308      1.576      3.074
REMARK  7 active torsions:
REMARK  status: ('A' for Active; 'I' for Inactive)
REMARK    1  A    between atoms: C1_2  and  C2_4 
REMARK    2  A    between atoms: C2_4  and  C3_5 
REMARK    3  A    between atoms: C6_11  and  O3_12 
REMARK    4  A    between atoms: C7_14  and  O4_15 
REMARK    5  A    between atoms: C8_17  and  O5_18 
REMARK    6  A    between atoms: C9_20  and  C10_21 
REMARK    7  A    between atoms: C10_21  and  O6_22 
ROOT
HETATM    1  C3  UNL     1      -1.546   8.458  12.423  1.00  0.00     0.036 A 
HETATM    2  C4  UNL     1      -2.559   8.939  11.631  1.00  0.00     0.118 A 
HETATM    3  N1  UNL     1      -2.028   9.629  10.595  1.00  0.00    -0.333 N 
HETATM    4  C5  UNL     1      -0.709   9.569  10.753  1.00  0.00     0.116 A 
HETATM    5  N2  UNL     1      -0.383   8.858  11.865  1.00  0.00    -0.345 N 
ATOM      6  H2  UNL     1       0.558   8.663  12.210  1.00  0.00     0.167 HD
HETATM    7  C6  UNL     1       0.249  10.213   9.809  1.00  0.00     0.217 C 
HETATM    8  C7  UNL     1      -0.441  10.319   8.482  1.00  0.00     0.185 C 
HETATM    9  C8  UNL     1      -1.783  10.976   8.572  1.00  0.00     0.175 C 
HETATM   10  C9  UNL     1      -2.716  10.305   9.520  1.00  0.00     0.145 C 
ENDROOT
BRANCH   1  11
HETATM   11  C2  UNL     1      -1.698   7.647  13.666  1.00  0.00     0.171 C 
BRANCH  11  12
HETATM   12  C1  UNL     1      -0.436   6.867  13.923  1.00  0.00     0.178 C 
HETATM   13  O1  UNL     1       0.076   6.231  12.977  1.00  0.00    -0.648 OA
HETATM   14  O2  UNL     1       0.133   6.863  15.180  1.00  0.00    -0.648 OA
ENDBRANCH  11  12
ENDBRANCH   1  11
BRANCH  10  15
HETATM   15  C10 UNL     1      -3.517   9.235   8.766  1.00  0.00     0.192 C 
BRANCH  15  16
HETATM   16  O6  UNL     1      -3.780   9.709   7.461  1.00  0.00    -0.399 OA
ATOM     17  H6  UNL     1      -4.636   9.397   7.195  1.00  0.00     0.209 HD
ENDBRANCH  15  16
ENDBRANCH  10  15
BRANCH   7  18
HETATM   18  O3  UNL     1       0.669  11.427  10.309  1.00  0.00    -0.385 OA
ATOM     19  H3  UNL     1       0.640  12.091   9.629  1.00  0.00     0.210 HD
ENDBRANCH   7  18
BRANCH   9  20
HETATM   20  O5  UNL     1      -1.669  12.356   8.838  1.00  0.00    -0.391 OA
ATOM     21  H5  UNL     1      -1.278  12.823   8.108  1.00  0.00     0.210 HD
ENDBRANCH   9  20
BRANCH   8  22
HETATM   22  O4  UNL     1      -0.626   9.031   7.983  1.00  0.00    -0.390 OA
ATOM     23  H4  UNL     1      -0.393   9.033   7.062  1.00  0.00     0.210 HD
ENDBRANCH   8  22
TORSDOF 7
ENDMDL
