MODEL 2
REMARK VINA RESULT: -6.850561048      5.287      9.009
REMARK  7 active torsions:
REMARK  status: ('A' for Active; 'I' for Inactive)
REMARK    1  A    between atoms: C1_2  and  C2_4 
REMARK    2  A    between atoms: C2_4  and  C3_5 
REMARK    3  A    between atoms: C6_11  and  O3_12 
REMARK    4  A    between atoms: C7_14  and  O4_15 
REMARK    5  A    between atoms: C8_17  and  O5_18 
REMARK    6  A    between atoms: C9_20  and  C10_21 
REMARK    7  A    between atoms: C10_21  and  O6_22 
ROOT
HETATM    1  C3  UNL     1      -2.230   6.984  15.858  1.00  0.00     0.036 A 
HETATM    2  C4  UNL     1      -1.201   6.125  15.558  1.00  0.00     0.118 A 
HETATM    3  N1  UNL     1      -0.733   5.571  16.701  1.00  0.00    -0.333 N 
HETATM    4  C5  UNL     1      -1.467   6.084  17.683  1.00  0.00     0.116 A 
HETATM    5  N2  UNL     1      -2.394   6.953  17.198  1.00  0.00    -0.345 N 
ATOM      6  H2  UNL     1      -3.079   7.479  17.741  1.00  0.00     0.167 HD
HETATM    7  C6  UNL     1      -1.266   5.724  19.116  1.00  0.00     0.217 C 
HETATM    8  C7  UNL     1      -0.644   4.360  19.146  1.00  0.00     0.185 C 
HETATM    9  C8  UNL     1       0.577   4.254  18.288  1.00  0.00     0.175 C 
HETATM   10  C9  UNL     1       0.339   4.616  16.862  1.00  0.00     0.145 C 
ENDROOT
BRANCH   1  11
HETATM   11  C2  UNL     1      -3.020   7.797  14.888  1.00  0.00     0.171 C 
BRANCH  11  12
HETATM   12  C1  UNL     1      -2.569   9.232  14.941  1.00  0.00     0.178 C 
HETATM   13  O1  UNL     1      -1.976   9.708  13.949  1.00  0.00    -0.648 OA
HETATM   14  O2  UNL     1      -2.812   9.994  16.065  1.00  0.00    -0.648 OA
ENDBRANCH  11  12
ENDBRANCH   1  11
BRANCH  10  15
HETATM   15  C10 UNL     1      -0.069   3.359  16.084  1.00  0.00     0.192 C 
BRANCH  15  16
HETATM   16  O6  UNL     1       0.493   2.233  16.727  1.00  0.00    -0.399 OA
ATOM     17  H6  UNL     1       0.274   2.275  17.651  1.00  0.00     0.209 HD
ENDBRANCH  15  16
ENDBRANCH  10  15
BRANCH   7  18
HETATM   18  O3  UNL     1      -0.509   6.687  19.749  1.00  0.00    -0.385 OA
ATOM     19  H3  UNL     1       0.271   6.297  20.127  1.00  0.00     0.210 HD
ENDBRANCH   7  18
BRANCH   9  20
HETATM   20  O5  UNL     1       1.661   4.969  18.836  1.00  0.00    -0.391 OA
ATOM     21  H5  UNL     1       1.778   5.810  18.408  1.00  0.00     0.210 HD
ENDBRANCH   9  20
BRANCH   8  22
HETATM   22  O4  UNL     1      -1.582   3.443  18.674  1.00  0.00    -0.390 OA
ATOM     23  H4  UNL     1      -1.122   2.775  18.180  1.00  0.00     0.210 HD
ENDBRANCH   8  22
TORSDOF 7
ENDMDL
