MODEL 16
REMARK VINA RESULT: -4.691520767      6.804      7.674
REMARK  4 active torsions:
REMARK  status: ('A' for Active; 'I' for Inactive)
REMARK    1  A    between atoms: O1_1  and  C1_3 
REMARK    2  A    between atoms: C1_3  and  C2_4 
REMARK    3  A    between atoms: C4_8  and  O2_9 
REMARK    4  A    between atoms: C5_11  and  O3_12 
ROOT
HETATM    1  C2  UNL     1      -0.623   6.480  14.421  1.00  0.00     0.150 C 
HETATM    2  N1  UNL     1       0.639   6.351  15.108  1.00  0.00    -0.139 NA
HETATM    3  N2  UNL     1       0.560   5.675  16.308  1.00  0.00    -0.145 NA
HETATM    4  C3  UNL     1      -0.794   5.177  16.571  1.00  0.00     0.164 C 
HETATM    5  C4  UNL     1      -1.686   6.411  16.653  1.00  0.00     0.164 C 
HETATM    6  C5  UNL     1      -1.587   7.180  15.342  1.00  0.00     0.170 C 
ENDROOT
BRANCH   1   7
HETATM    7  C1  UNL     1      -0.381   7.339  13.195  1.00  0.00     0.189 C 
BRANCH   7   8
HETATM    8  O1  UNL     1      -0.571   8.683  13.560  1.00  0.00    -0.399 OA
ATOM      9  H1  UNL     1      -0.352   9.224  12.811  1.00  0.00     0.209 HD
ENDBRANCH   7   8
ENDBRANCH   1   7
BRANCH   6  10
HETATM   10  O3  UNL     1      -2.854   7.324  14.783  1.00  0.00    -0.391 OA
ATOM     11  H3  UNL     1      -3.484   6.713  15.146  1.00  0.00     0.210 HD
ENDBRANCH   6  10
BRANCH   5  12
HETATM   12  O2  UNL     1      -1.215   7.181  17.716  1.00  0.00    -0.392 OA
ATOM     13  H2  UNL     1      -1.565   8.056  17.599  1.00  0.00     0.210 HD
ENDBRANCH   5  12
TORSDOF 4
ENDMDL
