MODEL 8
REMARK VINA RESULT: -5.227977587      8.875      9.679
REMARK  4 active torsions:
REMARK  status: ('A' for Active; 'I' for Inactive)
REMARK    1  A    between atoms: O1_1  and  C1_3 
REMARK    2  A    between atoms: C1_3  and  C2_4 
REMARK    3  A    between atoms: C4_8  and  O2_9 
REMARK    4  A    between atoms: C5_11  and  O3_12 
ROOT
HETATM    1  C2  UNL     1      -3.253   5.706  16.741  1.00  0.00     0.150 C 
HETATM    2  N1  UNL     1      -3.233   4.419  16.088  1.00  0.00    -0.139 NA
HETATM    3  N2  UNL     1      -2.280   3.553  16.581  1.00  0.00    -0.145 NA
HETATM    4  C3  UNL     1      -1.550   4.126  17.716  1.00  0.00     0.164 C 
HETATM    5  C4  UNL     1      -0.843   5.366  17.177  1.00  0.00     0.164 C 
HETATM    6  C5  UNL     1      -1.885   6.319  16.607  1.00  0.00     0.170 C 
ENDROOT
BRANCH   1   7
HETATM    7  C1  UNL     1      -4.267   6.565  16.010  1.00  0.00     0.189 C 
BRANCH   7   8
HETATM    8  O1  UNL     1      -4.963   7.325  16.965  1.00  0.00    -0.399 OA
ATOM      9  H1  UNL     1      -5.141   6.767  17.712  1.00  0.00     0.209 HD
ENDBRANCH   7   8
ENDBRANCH   1   7
BRANCH   6  10
HETATM   10  O3  UNL     1      -1.788   7.556  17.239  1.00  0.00    -0.391 OA
ATOM     11  H3  UNL     1      -2.500   7.711  17.850  1.00  0.00     0.210 HD
ENDBRANCH   6  10
BRANCH   5  12
HETATM   12  O2  UNL     1       0.030   4.933  16.181  1.00  0.00    -0.392 OA
ATOM     13  H2  UNL     1       0.810   4.611  16.619  1.00  0.00     0.210 HD
ENDBRANCH   5  12
TORSDOF 4
ENDMDL
