MODEL 11
REMARK VINA RESULT: -4.970111930      8.536      8.956
REMARK  4 active torsions:
REMARK  status: ('A' for Active; 'I' for Inactive)
REMARK    1  A    between atoms: O1_1  and  C1_3 
REMARK    2  A    between atoms: C1_3  and  C2_4 
REMARK    3  A    between atoms: C4_8  and  O2_9 
REMARK    4  A    between atoms: C5_11  and  O3_12 
ROOT
HETATM    1  C2  UNL     1      -1.975   5.619  15.915  1.00  0.00     0.150 C 
HETATM    2  N1  UNL     1      -2.722   4.396  16.087  1.00  0.00    -0.139 NA
HETATM    3  N2  UNL     1      -4.049   4.491  15.722  1.00  0.00    -0.145 NA
HETATM    4  C3  UNL     1      -4.374   5.809  15.169  1.00  0.00     0.164 C 
HETATM    5  C4  UNL     1      -4.110   6.810  16.289  1.00  0.00     0.164 C 
HETATM    6  C5  UNL     1      -2.653   6.697  16.718  1.00  0.00     0.170 C 
ENDROOT
BRANCH   1   7
HETATM    7  C1  UNL     1      -0.584   5.376  16.466  1.00  0.00     0.189 C 
BRANCH   7   8
HETATM    8  O1  UNL     1      -0.493   6.013  17.716  1.00  0.00    -0.399 OA
ATOM      9  H1  UNL     1       0.027   6.800  17.608  1.00  0.00     0.209 HD
ENDBRANCH   7   8
ENDBRANCH   1   7
BRANCH   6  10
HETATM   10  O3  UNL     1      -2.026   7.933  16.591  1.00  0.00    -0.391 OA
ATOM     11  H3  UNL     1      -2.639   8.659  16.623  1.00  0.00     0.210 HD
ENDBRANCH   6  10
BRANCH   5  12
HETATM   12  O2  UNL     1      -4.963   6.477  17.339  1.00  0.00    -0.392 OA
ATOM     13  H2  UNL     1      -5.851   6.592  17.020  1.00  0.00     0.210 HD
ENDBRANCH   5  12
TORSDOF 4
ENDMDL
