MODEL 9
REMARK VINA RESULT: -5.148326472      1.627      3.373
REMARK  4 active torsions:
REMARK  status: ('A' for Active; 'I' for Inactive)
REMARK    1  A    between atoms: O1_1  and  C1_3 
REMARK    2  A    between atoms: C1_3  and  C2_4 
REMARK    3  A    between atoms: C4_8  and  O2_9 
REMARK    4  A    between atoms: C5_11  and  O3_12 
ROOT
HETATM    1  C2  UNL     1      -1.413   9.731   9.724  1.00  0.00     0.150 C 
HETATM    2  N1  UNL     1      -0.158   9.108   9.380  1.00  0.00    -0.139 NA
HETATM    3  N2  UNL     1       0.879   9.998   9.192  1.00  0.00    -0.145 NA
HETATM    4  C3  UNL     1       0.473  11.380   9.462  1.00  0.00     0.164 C 
HETATM    5  C4  UNL     1      -0.625  11.699   8.452  1.00  0.00     0.164 C 
HETATM    6  C5  UNL     1      -1.765  10.707   8.633  1.00  0.00     0.170 C 
ENDROOT
BRANCH   1   7
HETATM    7  C1  UNL     1      -2.459   8.634   9.779  1.00  0.00     0.189 C 
BRANCH   7   8
HETATM    8  O1  UNL     1      -3.127   8.607   8.543  1.00  0.00    -0.399 OA
ATOM      9  H1  UNL     1      -4.027   8.875   8.689  1.00  0.00     0.209 HD
ENDBRANCH   7   8
ENDBRANCH   1   7
BRANCH   6  10
HETATM   10  O3  UNL     1      -2.950  11.391   8.889  1.00  0.00    -0.391 OA
ATOM     11  H3  UNL     1      -3.720  10.851   8.753  1.00  0.00     0.210 HD
ENDBRANCH   6  10
BRANCH   5  12
HETATM   12  O2  UNL     1      -0.057  11.577   7.185  1.00  0.00    -0.392 OA
ATOM     13  H2  UNL     1       0.881  11.683   7.291  1.00  0.00     0.210 HD
ENDBRANCH   5  12
TORSDOF 4
ENDMDL
