MODEL 13
REMARK VINA RESULT: -8.221088611      3.527      7.866
REMARK  6 active torsions:
REMARK  status: ('A' for Active; 'I' for Inactive)
REMARK    1  A    between atoms: C2_2  and  C3_3 
REMARK    2  A    between atoms: C2_2  and  N2_11 
REMARK       I    between atoms: C3_3  and  N1_5 
REMARK    3  A    between atoms: C10_14  and  N3_15 
REMARK    4  A    between atoms: N3_15  and  S1_17 
REMARK    5  A    between atoms: S1_17  and  C11_20 
REMARK    6  A    between atoms: C12_25  and  C13_26 
ROOT
HETATM    1  N3  UNL     1       5.194   8.581  20.971  1.00  0.00    -0.299 N 
ATOM      2  H3  UNL     1       4.678   8.707  21.842  1.00  0.00     0.173 HD
ENDROOT
BRANCH   1   3
HETATM    3  C10 UNL     1       6.563   8.968  20.760  1.00  0.00     0.186 C 
HETATM    4  C9  UNL     1       6.799  10.420  21.118  1.00  0.00     0.055 C 
HETATM    5  C8  UNL     1       7.411  10.299  22.516  1.00  0.00     0.129 C 
HETATM    6  N2  UNL     1       8.138   9.046  22.483  1.00  0.00    -0.337 N 
HETATM    7  C17 UNL     1       7.532   8.190  21.524  1.00  0.00     0.244 C 
HETATM    8  O5  UNL     1       7.802   6.983  21.382  1.00  0.00    -0.271 OA
BRANCH   6   9
HETATM    9  C2  UNL     1       9.293   8.733  23.239  1.00  0.00     0.175 C 
HETATM   10  C1  UNL     1      10.233   9.913  23.198  1.00  0.00     0.042 C 
BRANCH   9  11
HETATM   11  C3  UNL     1       9.132   8.292  24.622  1.00  0.00     0.242 C 
HETATM   12  O1  UNL     1       8.003   7.683  24.790  1.00  0.00    -0.271 OA
HETATM   13  N1  UNL     1       9.940   8.410  25.735  1.00  0.00    -0.346 N 
HETATM   14  C4  UNL     1       9.485   7.808  27.012  1.00  0.00     0.152 C 
HETATM   15  C7  UNL     1      11.198   9.061  25.912  1.00  0.00     0.152 C 
HETATM   16  C5  UNL     1      10.512   6.747  27.350  1.00  0.00     0.187 C 
HETATM   17  O2  UNL     1      11.599   6.757  26.492  1.00  0.00    -0.388 OA
HETATM   18  C6  UNL     1      12.187   8.035  26.418  1.00  0.00     0.187 C 
ENDBRANCH   9  11
ENDBRANCH   6   9
ENDBRANCH   1   3
BRANCH   1  19
HETATM   19  S1  UNL     1       4.552   7.870  19.534  1.00  0.00     0.293 S 
HETATM   20  O3  UNL     1       4.951   8.680  18.334  1.00  0.00    -0.197 OA
HETATM   21  O4  UNL     1       3.034   7.846  19.579  1.00  0.00    -0.197 OA
BRANCH  19  22
HETATM   22  C11 UNL     1       5.171   6.247  19.346  1.00  0.00     0.240 A 
HETATM   23  N4  UNL     1       4.483   5.095  19.585  1.00  0.00    -0.273 N 
HETATM   24  N5  UNL     1       5.280   4.049  19.333  1.00  0.00    -0.282 N 
ATOM     25  H4  UNL     1       3.516   5.039  19.905  1.00  0.00     0.189 HD
HETATM   26  C12 UNL     1       6.451   4.564  18.942  1.00  0.00     0.139 A 
ATOM     27  H5  UNL     1       5.042   3.061  19.421  1.00  0.00     0.188 HD
HETATM   28  N6  UNL     1       6.401   5.903  18.944  1.00  0.00    -0.314 N 
ATOM     29  H6  UNL     1       7.156   6.540  18.688  1.00  0.00     0.170 HD
BRANCH  26  30
HETATM   30  C13 UNL     1       7.645   3.777  18.556  1.00  0.00     0.052 A 
HETATM   31  C14 UNL     1       8.824   4.243  18.040  1.00  0.00     0.025 A 
HETATM   32  C15 UNL     1       9.771   3.342  17.764  1.00  0.00     0.033 A 
HETATM   33  C16 UNL     1       9.487   2.028  18.021  1.00  0.00     0.075 A 
HETATM   34 CL1  UNL     1      10.538   0.623  17.760  1.00  0.00    -0.076 Cl
HETATM   35  S2  UNL     1       7.899   2.094  18.641  1.00  0.00    -0.074 SA
ENDBRANCH  26  30
ENDBRANCH  19  22
ENDBRANCH   1  19
TORSDOF 6
ENDMDL
