MODEL 7
REMARK VINA RESULT: -8.494894324      1.393      1.854
REMARK  6 active torsions:
REMARK  status: ('A' for Active; 'I' for Inactive)
REMARK    1  A    between atoms: C2_2  and  C3_3 
REMARK    2  A    between atoms: C2_2  and  N2_11 
REMARK       I    between atoms: C3_3  and  N1_5 
REMARK    3  A    between atoms: C10_14  and  N3_15 
REMARK    4  A    between atoms: N3_15  and  S1_17 
REMARK    5  A    between atoms: S1_17  and  C11_20 
REMARK    6  A    between atoms: C12_25  and  C13_26 
ROOT
HETATM    1  N3  UNL     1       5.228   8.383  20.831  1.00  0.00    -0.299 N 
ATOM      2  H3  UNL     1       4.856   8.367  19.882  1.00  0.00     0.173 HD
ENDROOT
BRANCH   1   3
HETATM    3  C10 UNL     1       5.747   7.240  21.533  1.00  0.00     0.186 C 
HETATM    4  C9  UNL     1       4.716   6.138  21.655  1.00  0.00     0.055 C 
HETATM    5  C8  UNL     1       5.132   5.197  20.521  1.00  0.00     0.129 C 
HETATM    6  N2  UNL     1       6.571   5.348  20.439  1.00  0.00    -0.337 N 
HETATM    7  C17 UNL     1       6.924   6.640  20.915  1.00  0.00     0.244 C 
HETATM    8  O5  UNL     1       8.056   7.147  20.809  1.00  0.00    -0.271 OA
BRANCH   6   9
HETATM    9  C2  UNL     1       7.488   4.361  20.005  1.00  0.00     0.175 C 
HETATM   10  C1  UNL     1       7.025   3.016  20.509  1.00  0.00     0.042 C 
BRANCH   9  11
HETATM   11  C3  UNL     1       7.797   4.263  18.581  1.00  0.00     0.242 C 
HETATM   12  O1  UNL     1       9.036   4.555  18.350  1.00  0.00    -0.271 OA
HETATM   13  N1  UNL     1       7.028   3.930  17.484  1.00  0.00    -0.346 N 
HETATM   14  C4  UNL     1       7.672   3.892  16.148  1.00  0.00     0.152 C 
HETATM   15  C7  UNL     1       5.639   3.618  17.377  1.00  0.00     0.152 C 
HETATM   16  C5  UNL     1       7.554   2.456  15.681  1.00  0.00     0.187 C 
HETATM   17  O2  UNL     1       6.784   1.676  16.527  1.00  0.00    -0.388 OA
HETATM   18  C6  UNL     1       5.515   2.248  16.747  1.00  0.00     0.187 C 
ENDBRANCH   9  11
ENDBRANCH   6   9
ENDBRANCH   1   3
BRANCH   1  19
HETATM   19  S1  UNL     1       5.328   9.787  21.833  1.00  0.00     0.293 S 
HETATM   20  O3  UNL     1       4.318   9.705  22.941  1.00  0.00    -0.197 OA
HETATM   21  O4  UNL     1       5.020  11.041  21.033  1.00  0.00    -0.197 OA
BRANCH  19  22
HETATM   22  C11 UNL     1       6.924   9.903  22.535  1.00  0.00     0.240 A 
HETATM   23  N4  UNL     1       7.876  10.823  22.212  1.00  0.00    -0.273 N 
HETATM   24  N5  UNL     1       8.968  10.602  22.955  1.00  0.00    -0.282 N 
ATOM     25  H4  UNL     1       7.773  11.562  21.517  1.00  0.00     0.189 HD
HETATM   26  C12 UNL     1       8.681   9.549  23.727  1.00  0.00     0.139 A 
ATOM     27  H5  UNL     1       9.841  11.130  22.935  1.00  0.00     0.188 HD
HETATM   28  N6  UNL     1       7.438   9.111  23.484  1.00  0.00    -0.314 N 
ATOM     29  H6  UNL     1       6.972   8.323  23.935  1.00  0.00     0.170 HD
BRANCH  26  30
HETATM   30  C13 UNL     1       9.598   8.940  24.719  1.00  0.00     0.052 A 
HETATM   31  C14 UNL     1       9.267   8.223  25.837  1.00  0.00     0.025 A 
HETATM   32  C15 UNL     1      10.270   7.767  26.592  1.00  0.00     0.033 A 
HETATM   33  C16 UNL     1      11.546   8.052  26.187  1.00  0.00     0.075 A 
HETATM   34 CL1  UNL     1      13.062   7.582  26.979  1.00  0.00    -0.076 Cl
HETATM   35  S2  UNL     1      11.302   8.952  24.758  1.00  0.00    -0.074 SA
ENDBRANCH  26  30
ENDBRANCH  19  22
ENDBRANCH   1  19
TORSDOF 6
ENDMDL
