MODEL 3
REMARK VINA RESULT: -8.618304076      3.830      7.368
REMARK  6 active torsions:
REMARK  status: ('A' for Active; 'I' for Inactive)
REMARK    1  A    between atoms: C2_2  and  C3_3 
REMARK    2  A    between atoms: C2_2  and  N2_11 
REMARK       I    between atoms: C3_3  and  N1_5 
REMARK    3  A    between atoms: C10_14  and  N3_15 
REMARK    4  A    between atoms: N3_15  and  S1_17 
REMARK    5  A    between atoms: S1_17  and  C11_20 
REMARK    6  A    between atoms: C12_25  and  C13_26 
ROOT
HETATM    1  N3  UNL     1       5.073   6.668  23.382  1.00  0.00    -0.299 N 
ATOM      2  H3  UNL     1       5.567   6.415  24.237  1.00  0.00     0.173 HD
ENDROOT
BRANCH   1   3
HETATM    3  C10 UNL     1       5.149   7.951  22.734  1.00  0.00     0.186 C 
HETATM    4  C9  UNL     1       4.946   9.089  23.712  1.00  0.00     0.055 C 
HETATM    5  C8  UNL     1       6.389   9.526  23.982  1.00  0.00     0.129 C 
HETATM    6  N2  UNL     1       7.083   9.260  22.738  1.00  0.00    -0.337 N 
HETATM    7  C17 UNL     1       6.414   8.207  22.056  1.00  0.00     0.244 C 
HETATM    8  O5  UNL     1       6.858   7.621  21.052  1.00  0.00    -0.271 OA
BRANCH   6   9
HETATM    9  C2  UNL     1       8.211   9.960  22.249  1.00  0.00     0.175 C 
HETATM   10  C1  UNL     1       9.441   9.114  22.470  1.00  0.00     0.042 C 
BRANCH   9  11
HETATM   11  C3  UNL     1       8.198  10.440  20.869  1.00  0.00     0.242 C 
HETATM   12  O1  UNL     1       9.334  10.227  20.289  1.00  0.00    -0.271 OA
HETATM   13  N1  UNL     1       7.225  11.058  20.109  1.00  0.00    -0.346 N 
HETATM   14  C4  UNL     1       7.530  11.394  18.698  1.00  0.00     0.152 C 
HETATM   15  C7  UNL     1       5.906  11.486  20.450  1.00  0.00     0.152 C 
HETATM   16  C5  UNL     1       6.553  10.586  17.868  1.00  0.00     0.187 C 
HETATM   17  O2  UNL     1       5.611   9.925  18.638  1.00  0.00    -0.388 OA
HETATM   18  C6  UNL     1       4.938  10.810  19.504  1.00  0.00     0.187 C 
ENDBRANCH   9  11
ENDBRANCH   6   9
ENDBRANCH   1   3
BRANCH   1  19
HETATM   19  S1  UNL     1       4.022   5.621  22.498  1.00  0.00     0.293 S 
HETATM   20  O3  UNL     1       2.738   6.329  22.173  1.00  0.00    -0.197 OA
HETATM   21  O4  UNL     1       3.666   4.396  23.322  1.00  0.00    -0.197 OA
BRANCH  19  22
HETATM   22  C11 UNL     1       4.787   5.135  21.004  1.00  0.00     0.240 A 
HETATM   23  N4  UNL     1       4.266   5.276  19.753  1.00  0.00    -0.273 N 
HETATM   24  N5  UNL     1       5.136   4.790  18.858  1.00  0.00    -0.282 N 
ATOM     25  H4  UNL     1       3.358   5.687  19.534  1.00  0.00     0.189 HD
HETATM   26  C12 UNL     1       6.184   4.353  19.564  1.00  0.00     0.139 A 
ATOM     27  H5  UNL     1       5.021   4.760  17.845  1.00  0.00     0.188 HD
HETATM   28  N6  UNL     1       5.988   4.556  20.874  1.00  0.00    -0.314 N 
ATOM     29  H6  UNL     1       6.631   4.316  21.629  1.00  0.00     0.170 HD
BRANCH  26  30
HETATM   30  C13 UNL     1       7.400   3.730  18.992  1.00  0.00     0.052 A 
HETATM   31  C14 UNL     1       8.428   4.350  18.335  1.00  0.00     0.025 A 
HETATM   32  C15 UNL     1       9.431   3.581  17.901  1.00  0.00     0.033 A 
HETATM   33  C16 UNL     1       9.350   2.237  18.150  1.00  0.00     0.075 A 
HETATM   34 CL1  UNL     1      10.519   0.982  17.699  1.00  0.00    -0.076 Cl
HETATM   35  S2  UNL     1       7.868   2.091  18.984  1.00  0.00    -0.074 SA
ENDBRANCH  26  30
ENDBRANCH  19  22
ENDBRANCH   1  19
TORSDOF 6
ENDMDL
