MODEL 4
REMARK VINA RESULT: -8.563428484      1.888      2.242
REMARK  6 active torsions:
REMARK  status: ('A' for Active; 'I' for Inactive)
REMARK    1  A    between atoms: C2_2  and  C3_3 
REMARK    2  A    between atoms: C2_2  and  N2_11 
REMARK       I    between atoms: C3_3  and  N1_5 
REMARK    3  A    between atoms: C10_14  and  N3_15 
REMARK    4  A    between atoms: N3_15  and  S1_17 
REMARK    5  A    between atoms: S1_17  and  C11_20 
REMARK    6  A    between atoms: C12_25  and  C13_26 
ROOT
HETATM    1  N3  UNL     1       7.450   9.594  19.048  1.00  0.00    -0.299 N 
ATOM      2  H3  UNL     1       8.084   9.447  18.264  1.00  0.00     0.173 HD
ENDROOT
BRANCH   1   3
HETATM    3  C10 UNL     1       6.320   8.762  19.363  1.00  0.00     0.186 C 
HETATM    4  C9  UNL     1       5.458   8.497  18.146  1.00  0.00     0.055 C 
HETATM    5  C8  UNL     1       5.933   7.102  17.729  1.00  0.00     0.129 C 
HETATM    6  N2  UNL     1       6.296   6.458  18.976  1.00  0.00    -0.337 N 
HETATM    7  C17 UNL     1       6.670   7.458  19.915  1.00  0.00     0.244 C 
HETATM    8  O5  UNL     1       7.205   7.229  21.015  1.00  0.00    -0.271 OA
BRANCH   6   9
HETATM    9  C2  UNL     1       6.243   5.070  19.242  1.00  0.00     0.175 C 
HETATM   10  C1  UNL     1       5.089   4.473  18.475  1.00  0.00     0.042 C 
BRANCH   9  11
HETATM   11  C3  UNL     1       7.441   4.263  19.018  1.00  0.00     0.242 C 
HETATM   12  O1  UNL     1       7.982   3.909  20.138  1.00  0.00    -0.271 OA
HETATM   13  N1  UNL     1       8.069   3.833  17.866  1.00  0.00    -0.346 N 
HETATM   14  C4  UNL     1       9.276   2.980  17.991  1.00  0.00     0.152 C 
HETATM   15  C7  UNL     1       7.778   4.088  16.492  1.00  0.00     0.152 C 
HETATM   16  C5  UNL     1       8.908   1.661  17.343  1.00  0.00     0.187 C 
HETATM   17  O2  UNL     1       7.671   1.691  16.722  1.00  0.00    -0.388 OA
HETATM   18  C6  UNL     1       7.581   2.756  15.803  1.00  0.00     0.187 C 
ENDBRANCH   9  11
ENDBRANCH   6   9
ENDBRANCH   1   3
BRANCH   1  19
HETATM   19  S1  UNL     1       7.573  10.881  20.194  1.00  0.00     0.293 S 
HETATM   20  O3  UNL     1       6.326  11.717  20.170  1.00  0.00    -0.197 OA
HETATM   21  O4  UNL     1       8.737  11.795  19.852  1.00  0.00    -0.197 OA
BRANCH  19  22
HETATM   22  C11 UNL     1       7.779  10.227  21.802  1.00  0.00     0.240 A 
HETATM   23  N4  UNL     1       6.789  10.015  22.713  1.00  0.00    -0.273 N 
HETATM   24  N5  UNL     1       7.324   9.505  23.830  1.00  0.00    -0.282 N 
ATOM     25  H4  UNL     1       5.799  10.214  22.569  1.00  0.00     0.189 HD
HETATM   26  C12 UNL     1       8.638   9.407  23.597  1.00  0.00     0.139 A 
ATOM     27  H5  UNL     1       6.830   9.244  24.683  1.00  0.00     0.188 HD
HETATM   28  N6  UNL     1       8.931   9.843  22.364  1.00  0.00    -0.314 N 
ATOM     29  H6  UNL     1       9.857   9.875  21.936  1.00  0.00     0.170 HD
BRANCH  26  30
HETATM   30  C13 UNL     1       9.640   8.890  24.558  1.00  0.00     0.052 A 
HETATM   31  C14 UNL     1       9.409   8.237  25.738  1.00  0.00     0.025 A 
HETATM   32  C15 UNL     1      10.476   7.859  26.449  1.00  0.00     0.033 A 
HETATM   33  C16 UNL     1      11.711   8.154  25.938  1.00  0.00     0.075 A 
HETATM   34 CL1  UNL     1      13.292   7.780  26.650  1.00  0.00    -0.076 Cl
HETATM   35  S2  UNL     1      11.341   8.954  24.477  1.00  0.00    -0.074 SA
ENDBRANCH  26  30
ENDBRANCH  19  22
ENDBRANCH   1  19
TORSDOF 6
ENDMDL
