MODEL 5
REMARK VINA RESULT: -8.547249938      1.579      1.724
REMARK  6 active torsions:
REMARK  status: ('A' for Active; 'I' for Inactive)
REMARK    1  A    between atoms: C2_2  and  C3_3 
REMARK    2  A    between atoms: C2_2  and  N2_11 
REMARK       I    between atoms: C3_3  and  N1_5 
REMARK    3  A    between atoms: C10_14  and  N3_15 
REMARK    4  A    between atoms: N3_15  and  S1_17 
REMARK    5  A    between atoms: S1_17  and  C11_20 
REMARK    6  A    between atoms: C12_25  and  C13_26 
ROOT
HETATM    1  N3  UNL     1       7.074   9.622  19.331  1.00  0.00    -0.299 N 
ATOM      2  H3  UNL     1       7.250   9.639  18.327  1.00  0.00     0.173 HD
ENDROOT
BRANCH   1   3
HETATM    3  C10 UNL     1       6.407   8.558  20.033  1.00  0.00     0.186 C 
HETATM    4  C9  UNL     1       4.950   8.446  19.634  1.00  0.00     0.055 C 
HETATM    5  C8  UNL     1       4.993   7.291  18.629  1.00  0.00     0.129 C 
HETATM    6  N2  UNL     1       6.068   6.442  19.102  1.00  0.00    -0.337 N 
HETATM    7  C17 UNL     1       6.996   7.240  19.826  1.00  0.00     0.244 C 
HETATM    8  O5  UNL     1       8.116   6.852  20.207  1.00  0.00    -0.271 OA
BRANCH   6   9
HETATM    9  C2  UNL     1       6.164   5.042  18.924  1.00  0.00     0.175 C 
HETATM   10  C1  UNL     1       4.776   4.451  18.978  1.00  0.00     0.042 C 
BRANCH   9  11
HETATM   11  C3  UNL     1       6.862   4.528  17.748  1.00  0.00     0.242 C 
HETATM   12  O1  UNL     1       6.916   5.417  16.810  1.00  0.00    -0.271 OA
HETATM   13  N1  UNL     1       7.447   3.308  17.474  1.00  0.00    -0.346 N 
HETATM   14  C4  UNL     1       8.117   3.117  16.165  1.00  0.00     0.152 C 
HETATM   15  C7  UNL     1       7.514   2.110  18.248  1.00  0.00     0.152 C 
HETATM   16  C5  UNL     1       9.574   2.857  16.490  1.00  0.00     0.187 C 
HETATM   17  O2  UNL     1       9.809   2.727  17.848  1.00  0.00    -0.388 OA
HETATM   18  C6  UNL     1       8.973   1.751  18.426  1.00  0.00     0.187 C 
ENDBRANCH   9  11
ENDBRANCH   6   9
ENDBRANCH   1   3
BRANCH   1  19
HETATM   19  S1  UNL     1       7.532  10.865  20.439  1.00  0.00     0.293 S 
HETATM   20  O3  UNL     1       6.454  11.907  20.522  1.00  0.00    -0.197 OA
HETATM   21  O4  UNL     1       8.799  11.561  19.971  1.00  0.00    -0.197 OA
BRANCH  19  22
HETATM   22  C11 UNL     1       7.778  10.182  22.029  1.00  0.00     0.240 A 
HETATM   23  N4  UNL     1       6.808   9.932  22.952  1.00  0.00    -0.273 N 
HETATM   24  N5  UNL     1       7.371   9.410  24.049  1.00  0.00    -0.282 N 
ATOM     25  H4  UNL     1       5.812  10.113  22.827  1.00  0.00     0.189 HD
HETATM   26  C12 UNL     1       8.682   9.344  23.793  1.00  0.00     0.139 A 
ATOM     27  H5  UNL     1       6.896   9.121  24.904  1.00  0.00     0.188 HD
HETATM   28  N6  UNL     1       8.947   9.811  22.565  1.00  0.00    -0.314 N 
ATOM     29  H6  UNL     1       9.865   9.872  22.123  1.00  0.00     0.170 HD
BRANCH  26  30
HETATM   30  C13 UNL     1       9.710   8.828  24.727  1.00  0.00     0.052 A 
HETATM   31  C14 UNL     1       9.512   8.158  25.903  1.00  0.00     0.025 A 
HETATM   32  C15 UNL     1      10.598   7.785  26.587  1.00  0.00     0.033 A 
HETATM   33  C16 UNL     1      11.819   8.102  26.056  1.00  0.00     0.075 A 
HETATM   34 CL1  UNL     1      13.418   7.740  26.731  1.00  0.00    -0.076 Cl
HETATM   35  S2  UNL     1      11.409   8.915  24.613  1.00  0.00    -0.074 SA
ENDBRANCH  26  30
ENDBRANCH  19  22
ENDBRANCH   1  19
TORSDOF 6
ENDMDL
