MODEL 11
REMARK VINA RESULT: -8.348219550      4.012      5.468
REMARK  6 active torsions:
REMARK  status: ('A' for Active; 'I' for Inactive)
REMARK    1  A    between atoms: C2_2  and  C3_3 
REMARK    2  A    between atoms: C2_2  and  N2_11 
REMARK       I    between atoms: C3_3  and  N1_5 
REMARK    3  A    between atoms: C10_14  and  N3_15 
REMARK    4  A    between atoms: N3_15  and  S1_17 
REMARK    5  A    between atoms: S1_17  and  C11_20 
REMARK    6  A    between atoms: C12_25  and  C13_26 
ROOT
HETATM    1  N3  UNL     1       3.985   8.846  22.659  1.00  0.00    -0.299 N 
ATOM      2  H3  UNL     1       3.568   9.774  22.716  1.00  0.00     0.173 HD
ENDROOT
BRANCH   1   3
HETATM    3  C10 UNL     1       4.092   8.061  21.458  1.00  0.00     0.186 C 
HETATM    4  C9  UNL     1       2.955   8.344  20.498  1.00  0.00     0.055 C 
HETATM    5  C8  UNL     1       3.616   9.311  19.512  1.00  0.00     0.129 C 
HETATM    6  N2  UNL     1       5.004   8.896  19.476  1.00  0.00    -0.337 N 
HETATM    7  C17 UNL     1       5.327   8.271  20.711  1.00  0.00     0.244 C 
HETATM    8  O5  UNL     1       6.479   7.965  21.069  1.00  0.00    -0.271 OA
BRANCH   6   9
HETATM    9  C2  UNL     1       5.887   9.037  18.379  1.00  0.00     0.175 C 
HETATM   10  C1  UNL     1       5.172   8.603  17.123  1.00  0.00     0.042 C 
BRANCH   9  11
HETATM   11  C3  UNL     1       6.524  10.332  18.150  1.00  0.00     0.242 C 
HETATM   12  O1  UNL     1       6.233  10.794  16.977  1.00  0.00    -0.271 OA
HETATM   13  N1  UNL     1       7.349  11.113  18.934  1.00  0.00    -0.346 N 
HETATM   14  C4  UNL     1       7.805  12.420  18.403  1.00  0.00     0.152 C 
HETATM   15  C7  UNL     1       7.902  10.880  20.229  1.00  0.00     0.152 C 
HETATM   16  C5  UNL     1       7.235  13.462  19.344  1.00  0.00     0.187 C 
HETATM   17  O2  UNL     1       6.617  12.906  20.452  1.00  0.00    -0.388 OA
HETATM   18  C6  UNL     1       7.474  12.017  21.130  1.00  0.00     0.187 C 
ENDBRANCH   9  11
ENDBRANCH   6   9
ENDBRANCH   1   3
BRANCH   1  19
HETATM   19  S1  UNL     1       4.667   7.983  23.991  1.00  0.00     0.293 S 
HETATM   20  O3  UNL     1       4.626   6.505  23.726  1.00  0.00    -0.197 OA
HETATM   21  O4  UNL     1       3.872   8.238  25.260  1.00  0.00    -0.197 OA
BRANCH  19  22
HETATM   22  C11 UNL     1       6.331   8.465  24.221  1.00  0.00     0.240 A 
HETATM   23  N4  UNL     1       6.934   9.553  23.664  1.00  0.00    -0.273 N 
HETATM   24  N5  UNL     1       8.211   9.600  24.068  1.00  0.00    -0.282 N 
ATOM     25  H4  UNL     1       6.486  10.223  23.040  1.00  0.00     0.189 HD
HETATM   26  C12 UNL     1       8.383   8.542  24.868  1.00  0.00     0.139 A 
ATOM     27  H5  UNL     1       8.908  10.300  23.816  1.00  0.00     0.188 HD
HETATM   28  N6  UNL     1       7.246   7.840  24.972  1.00  0.00    -0.314 N 
ATOM     29  H6  UNL     1       7.105   6.991  25.520  1.00  0.00     0.170 HD
BRANCH  26  30
HETATM   30  C13 UNL     1       9.647   8.184  25.552  1.00  0.00     0.052 A 
HETATM   31  C14 UNL     1       9.802   7.448  26.695  1.00  0.00     0.025 A 
HETATM   32  C15 UNL     1      11.049   7.250  27.132  1.00  0.00     0.033 A 
HETATM   33  C16 UNL     1      12.069   7.797  26.402  1.00  0.00     0.075 A 
HETATM   34 CL1  UNL     1      13.809   7.700  26.735  1.00  0.00    -0.076 Cl
HETATM   35  S2  UNL     1      11.250   8.575  25.123  1.00  0.00    -0.074 SA
ENDBRANCH  26  30
ENDBRANCH  19  22
ENDBRANCH   1  19
TORSDOF 6
ENDMDL
