MODEL 2
REMARK VINA RESULT: -8.670863049      1.293      1.642
REMARK  6 active torsions:
REMARK  status: ('A' for Active; 'I' for Inactive)
REMARK    1  A    between atoms: C2_2  and  C3_3 
REMARK    2  A    between atoms: C2_2  and  N2_11 
REMARK       I    between atoms: C3_3  and  N1_5 
REMARK    3  A    between atoms: C10_14  and  N3_15 
REMARK    4  A    between atoms: N3_15  and  S1_17 
REMARK    5  A    between atoms: S1_17  and  C11_20 
REMARK    6  A    between atoms: C12_25  and  C13_26 
ROOT
HETATM    1  N3  UNL     1       4.758   8.405  20.586  1.00  0.00    -0.299 N 
ATOM      2  H3  UNL     1       4.448   8.368  19.615  1.00  0.00     0.173 HD
ENDROOT
BRANCH   1   3
HETATM    3  C10 UNL     1       5.180   7.269  21.361  1.00  0.00     0.186 C 
HETATM    4  C9  UNL     1       4.098   6.212  21.444  1.00  0.00     0.055 C 
HETATM    5  C8  UNL     1       4.555   5.216  20.375  1.00  0.00     0.129 C 
HETATM    6  N2  UNL     1       6.002   5.309  20.392  1.00  0.00    -0.337 N 
HETATM    7  C17 UNL     1       6.372   6.602  20.850  1.00  0.00     0.244 C 
HETATM    8  O5  UNL     1       7.528   7.063  20.810  1.00  0.00    -0.271 OA
BRANCH   6   9
HETATM    9  C2  UNL     1       6.906   4.272  20.059  1.00  0.00     0.175 C 
HETATM   10  C1  UNL     1       6.555   3.046  20.865  1.00  0.00     0.042 C 
BRANCH   9  11
HETATM   11  C3  UNL     1       7.064   3.899  18.656  1.00  0.00     0.242 C 
HETATM   12  O1  UNL     1       6.454   4.734  17.878  1.00  0.00    -0.271 OA
HETATM   13  N1  UNL     1       7.722   2.852  18.041  1.00  0.00    -0.346 N 
HETATM   14  C4  UNL     1       7.716   2.780  16.560  1.00  0.00     0.152 C 
HETATM   15  C7  UNL     1       8.431   1.742  18.592  1.00  0.00     0.152 C 
HETATM   16  C5  UNL     1       9.167   2.904  16.142  1.00  0.00     0.187 C 
HETATM   17  O2  UNL     1      10.040   2.894  17.217  1.00  0.00    -0.388 OA
HETATM   18  C6  UNL     1       9.837   1.765  18.037  1.00  0.00     0.187 C 
ENDBRANCH   9  11
ENDBRANCH   6   9
ENDBRANCH   1   3
BRANCH   1  19
HETATM   19  S1  UNL     1       4.857   9.841  21.541  1.00  0.00     0.293 S 
HETATM   20  O3  UNL     1       3.913   9.754  22.705  1.00  0.00    -0.197 OA
HETATM   21  O4  UNL     1       4.456  11.057  20.724  1.00  0.00    -0.197 OA
BRANCH  19  22
HETATM   22  C11 UNL     1       6.483  10.039  22.149  1.00  0.00     0.240 A 
HETATM   23  N4  UNL     1       7.374  10.992  21.757  1.00  0.00    -0.273 N 
HETATM   24  N5  UNL     1       8.515  10.833  22.440  1.00  0.00    -0.282 N 
ATOM     25  H4  UNL     1       7.201  11.712  21.055  1.00  0.00     0.189 HD
HETATM   26  C12 UNL     1       8.317   9.784  23.247  1.00  0.00     0.139 A 
ATOM     27  H5  UNL     1       9.361  11.397  22.362  1.00  0.00     0.188 HD
HETATM   28  N6  UNL     1       7.083   9.289  23.081  1.00  0.00    -0.314 N 
ATOM     29  H6  UNL     1       6.678   8.492  23.573  1.00  0.00     0.170 HD
BRANCH  26  30
HETATM   30  C13 UNL     1       9.314   9.235  24.195  1.00  0.00     0.052 A 
HETATM   31  C14 UNL     1      10.674   9.378  24.156  1.00  0.00     0.025 A 
HETATM   32  C15 UNL     1      11.381   8.790  25.126  1.00  0.00     0.033 A 
HETATM   33  C16 UNL     1      10.687   8.095  26.080  1.00  0.00     0.075 A 
HETATM   34 CL1  UNL     1      11.349   7.220  27.474  1.00  0.00    -0.076 Cl
HETATM   35  S2  UNL     1       9.065   8.285  25.588  1.00  0.00    -0.074 SA
ENDBRANCH  26  30
ENDBRANCH  19  22
ENDBRANCH   1  19
TORSDOF 6
ENDMDL
