MODEL 1
REMARK VINA RESULT: -8.733715896      0.000      0.000
REMARK  6 active torsions:
REMARK  status: ('A' for Active; 'I' for Inactive)
REMARK    1  A    between atoms: C2_2  and  C3_3 
REMARK    2  A    between atoms: C2_2  and  N2_11 
REMARK       I    between atoms: C3_3  and  N1_5 
REMARK    3  A    between atoms: C10_14  and  N3_15 
REMARK    4  A    between atoms: N3_15  and  S1_17 
REMARK    5  A    between atoms: S1_17  and  C11_20 
REMARK    6  A    between atoms: C12_25  and  C13_26 
ROOT
HETATM    1  N3  UNL     1       5.914   8.472  20.861  1.00  0.00    -0.299 N 
ATOM      2  H3  UNL     1       5.863   8.575  19.848  1.00  0.00     0.173 HD
ENDROOT
BRANCH   1   3
HETATM    3  C10 UNL     1       5.943   7.215  21.561  1.00  0.00     0.186 C 
HETATM    4  C9  UNL     1       4.614   6.495  21.481  1.00  0.00     0.055 C 
HETATM    5  C8  UNL     1       4.877   5.483  20.362  1.00  0.00     0.129 C 
HETATM    6  N2  UNL     1       6.287   5.172  20.483  1.00  0.00    -0.337 N 
HETATM    7  C17 UNL     1       6.951   6.280  21.075  1.00  0.00     0.244 C 
HETATM    8  O5  UNL     1       8.188   6.405  21.151  1.00  0.00    -0.271 OA
BRANCH   6   9
HETATM    9  C2  UNL     1       6.904   3.950  20.123  1.00  0.00     0.175 C 
HETATM   10  C1  UNL     1       6.206   2.824  20.845  1.00  0.00     0.042 C 
BRANCH   9  11
HETATM   11  C3  UNL     1       7.025   3.613  18.706  1.00  0.00     0.242 C 
HETATM   12  O1  UNL     1       6.283   4.382  17.978  1.00  0.00    -0.271 OA
HETATM   13  N1  UNL     1       7.763   2.656  18.039  1.00  0.00    -0.346 N 
HETATM   14  C4  UNL     1       7.684   2.601  16.559  1.00  0.00     0.152 C 
HETATM   15  C7  UNL     1       8.623   1.628  18.531  1.00  0.00     0.152 C 
HETATM   16  C5  UNL     1       9.087   2.895  16.067  1.00  0.00     0.187 C 
HETATM   17  O2  UNL     1      10.013   2.972  17.093  1.00  0.00    -0.388 OA
HETATM   18  C6  UNL     1       9.985   1.819  17.902  1.00  0.00     0.187 C 
ENDBRANCH   9  11
ENDBRANCH   6   9
ENDBRANCH   1   3
BRANCH   1  19
HETATM   19  S1  UNL     1       5.980   9.778  21.989  1.00  0.00     0.293 S 
HETATM   20  O3  UNL     1       4.592  10.246  22.321  1.00  0.00    -0.197 OA
HETATM   21  O4  UNL     1       6.726  10.962  21.396  1.00  0.00    -0.197 OA
BRANCH  19  22
HETATM   22  C11 UNL     1       6.763   9.254  23.461  1.00  0.00     0.240 A 
HETATM   23  N4  UNL     1       6.147   9.001  24.649  1.00  0.00    -0.273 N 
HETATM   24  N5  UNL     1       7.066   8.621  25.546  1.00  0.00    -0.282 N 
ATOM     25  H4  UNL     1       5.147   9.088  24.828  1.00  0.00     0.189 HD
HETATM   26  C12 UNL     1       8.239   8.643  24.903  1.00  0.00     0.139 A 
ATOM     27  H5  UNL     1       6.904   8.367  26.520  1.00  0.00     0.188 HD
HETATM   28  N6  UNL     1       8.071   9.027  23.630  1.00  0.00    -0.314 N 
ATOM     29  H6  UNL     1       8.802   9.126  22.925  1.00  0.00     0.170 HD
BRANCH  26  30
HETATM   30  C13 UNL     1       9.549   8.295  25.502  1.00  0.00     0.052 A 
HETATM   31  C14 UNL     1       9.783   7.580  26.645  1.00  0.00     0.025 A 
HETATM   32  C15 UNL     1      11.058   7.386  26.997  1.00  0.00     0.033 A 
HETATM   33  C16 UNL     1      12.024   7.917  26.186  1.00  0.00     0.075 A 
HETATM   34 CL1  UNL     1      13.783   7.822  26.396  1.00  0.00    -0.076 Cl
HETATM   35  S2  UNL     1      11.118   8.673  24.954  1.00  0.00    -0.074 SA
ENDBRANCH  26  30
ENDBRANCH  19  22
ENDBRANCH   1  19
TORSDOF 6
ENDMDL
