MODEL 3
REMARK VINA RESULT: -8.382116363      1.024      1.161
REMARK  6 active torsions:
REMARK  status: ('A' for Active; 'I' for Inactive)
REMARK    1  A    between atoms: C2_2  and  C3_3 
REMARK    2  A    between atoms: C2_2  and  N2_11 
REMARK       I    between atoms: C3_3  and  N1_5 
REMARK    3  A    between atoms: C10_14  and  N3_15 
REMARK    4  A    between atoms: N3_15  and  S1_17 
REMARK    5  A    between atoms: S1_17  and  C11_20 
REMARK    6  A    between atoms: C14_23  and  C15_24 
ROOT
HETATM    1  N2  UNL     1       6.327   5.294  20.130  1.00  0.00    -0.337 N 
HETATM    2  C8  UNL     1       4.980   5.534  20.670  1.00  0.00     0.129 C 
HETATM    3  C9  UNL     1       4.715   6.975  20.172  1.00  0.00     0.055 C 
HETATM    4  C10 UNL     1       6.046   7.593  20.475  1.00  0.00     0.186 C 
HETATM    5  C19 UNL     1       6.975   6.528  19.887  1.00  0.00     0.244 C 
HETATM    6  O5  UNL     1       8.076   6.718  19.313  1.00  0.00    -0.271 OA
ENDROOT
BRANCH   4   7
HETATM    7  N3  UNL     1       6.252   8.754  19.678  1.00  0.00    -0.301 N 
ATOM      8  H3  UNL     1       5.876   8.845  18.734  1.00  0.00     0.173 HD
BRANCH   7   9
HETATM    9  S1  UNL     1       7.159   9.960  20.408  1.00  0.00     0.266 S 
HETATM   10  O3  UNL     1       8.479  10.077  19.644  1.00  0.00    -0.200 OA
HETATM   11  O4  UNL     1       6.462  11.298  20.384  1.00  0.00    -0.200 OA
BRANCH   9  12
HETATM   12  C11 UNL     1       7.623   9.537  22.046  1.00  0.00     0.120 A 
HETATM   13  C12 UNL     1       6.915   9.511  23.208  1.00  0.00     0.034 A 
HETATM   14  C13 UNL     1       7.563   9.151  24.342  1.00  0.00     0.022 A 
HETATM   15  C14 UNL     1       8.878   8.841  24.231  1.00  0.00     0.023 A 
HETATM   16  S3  UNL     1       9.204   9.048  22.583  1.00  0.00    -0.075 SA
BRANCH  15  17
HETATM   17  C15 UNL     1       9.877   8.419  25.230  1.00  0.00     0.023 A 
HETATM   18  C16 UNL     1       9.674   7.750  26.407  1.00  0.00     0.022 A 
HETATM   19  C17 UNL     1      10.755   7.476  27.151  1.00  0.00     0.033 A 
HETATM   20  C18 UNL     1      11.969   7.889  26.667  1.00  0.00     0.075 A 
HETATM   21 CL1  UNL     1      13.565   7.679  27.407  1.00  0.00    -0.076 Cl
HETATM   22  S2  UNL     1      11.565   8.643  25.197  1.00  0.00    -0.077 SA
ENDBRANCH  15  17
ENDBRANCH   9  12
ENDBRANCH   7   9
ENDBRANCH   4   7
BRANCH   1  23
HETATM   23  C2  UNL     1       6.880   3.965  19.878  1.00  0.00     0.175 C 
HETATM   24  C1  UNL     1       5.925   2.914  20.472  1.00  0.00     0.042 C 
BRANCH  23  25
HETATM   25  C3  UNL     1       6.916   3.688  18.421  1.00  0.00     0.242 C 
HETATM   26  O1  UNL     1       5.817   3.545  17.831  1.00  0.00    -0.271 OA
HETATM   27  N1  UNL     1       8.142   3.588  17.723  1.00  0.00    -0.346 N 
HETATM   28  C4  UNL     1       8.107   3.297  16.282  1.00  0.00     0.152 C 
HETATM   29  C7  UNL     1       9.433   3.749  18.308  1.00  0.00     0.152 C 
HETATM   30  C5  UNL     1       9.252   2.335  15.971  1.00  0.00     0.187 C 
HETATM   31  O2  UNL     1       9.702   1.673  17.096  1.00  0.00    -0.388 OA
HETATM   32  C6  UNL     1      10.256   2.502  18.041  1.00  0.00     0.187 C 
ENDBRANCH  23  25
ENDBRANCH   1  23
TORSDOF 6
ENDMDL
