MODEL 15
REMARK VINA RESULT: -7.387227738      4.448      7.359
REMARK  6 active torsions:
REMARK  status: ('A' for Active; 'I' for Inactive)
REMARK    1  A    between atoms: C2_2  and  C3_3 
REMARK    2  A    between atoms: C2_2  and  N2_11 
REMARK       I    between atoms: C3_3  and  N1_5 
REMARK    3  A    between atoms: C10_14  and  N3_15 
REMARK    4  A    between atoms: N3_15  and  S1_17 
REMARK    5  A    between atoms: S1_17  and  C11_20 
REMARK    6  A    between atoms: C14_23  and  C15_24 
ROOT
HETATM    1  N2  UNL     1       5.428   8.722  23.964  1.00  0.00    -0.337 N 
HETATM    2  C8  UNL     1       4.299   9.662  23.894  1.00  0.00     0.129 C 
HETATM    3  C9  UNL     1       3.146   8.778  24.426  1.00  0.00     0.055 C 
HETATM    4  C10 UNL     1       3.446   7.508  23.690  1.00  0.00     0.186 C 
HETATM    5  C19 UNL     1       4.948   7.391  23.958  1.00  0.00     0.244 C 
HETATM    6  O5  UNL     1       5.606   6.336  24.133  1.00  0.00    -0.271 OA
ENDROOT
BRANCH   4   7
HETATM    7  N3  UNL     1       2.858   6.395  24.355  1.00  0.00    -0.301 N 
ATOM      8  H3  UNL     1       2.851   6.303  25.371  1.00  0.00     0.173 HD
BRANCH   7   9
HETATM    9  S1  UNL     1       2.178   5.245  23.340  1.00  0.00     0.266 S 
HETATM   10  O3  UNL     1       1.312   4.322  24.199  1.00  0.00    -0.200 OA
HETATM   11  O4  UNL     1       1.316   5.863  22.267  1.00  0.00    -0.200 OA
BRANCH   9  12
HETATM   12  C11 UNL     1       3.389   4.194  22.630  1.00  0.00     0.120 A 
HETATM   13  C12 UNL     1       3.723   2.899  22.884  1.00  0.00     0.034 A 
HETATM   14  C13 UNL     1       4.734   2.349  22.170  1.00  0.00     0.022 A 
HETATM   15  C14 UNL     1       5.340   3.137  21.248  1.00  0.00     0.023 A 
HETATM   16  S3  UNL     1       4.519   4.611  21.375  1.00  0.00    -0.075 SA
BRANCH  15  17
HETATM   17  C15 UNL     1       6.451   2.881  20.313  1.00  0.00     0.023 A 
HETATM   18  C16 UNL     1       7.443   1.943  20.405  1.00  0.00     0.022 A 
HETATM   19  C17 UNL     1       8.347   1.906  19.416  1.00  0.00     0.033 A 
HETATM   20  C18 UNL     1       8.199   2.813  18.399  1.00  0.00     0.075 A 
HETATM   21 CL1  UNL     1       9.218   3.016  16.964  1.00  0.00    -0.076 Cl
HETATM   22  S2  UNL     1       6.809   3.682  18.853  1.00  0.00    -0.077 SA
ENDBRANCH  15  17
ENDBRANCH   9  12
ENDBRANCH   7   9
ENDBRANCH   4   7
BRANCH   1  23
HETATM   23  C2  UNL     1       6.829   9.133  24.042  1.00  0.00     0.175 C 
HETATM   24  C1  UNL     1       7.429   8.588  25.351  1.00  0.00     0.042 C 
BRANCH  23  25
HETATM   25  C3  UNL     1       7.614   8.500  22.954  1.00  0.00     0.242 C 
HETATM   26  O1  UNL     1       8.330   7.514  23.255  1.00  0.00    -0.271 OA
HETATM   27  N1  UNL     1       7.559   8.991  21.629  1.00  0.00    -0.346 N 
HETATM   28  C4  UNL     1       8.372   8.325  20.600  1.00  0.00     0.152 C 
HETATM   29  C7  UNL     1       6.764  10.094  21.195  1.00  0.00     0.152 C 
HETATM   30  C5  UNL     1       8.938   9.406  19.680  1.00  0.00     0.187 C 
HETATM   31  O2  UNL     1       8.928  10.655  20.269  1.00  0.00    -0.388 OA
HETATM   32  C6  UNL     1       7.666  11.126  20.544  1.00  0.00     0.187 C 
ENDBRANCH  23  25
ENDBRANCH   1  23
TORSDOF 6
ENDMDL
