MODEL 19
REMARK VINA RESULT: -7.221439109      4.772      8.318
REMARK  6 active torsions:
REMARK  status: ('A' for Active; 'I' for Inactive)
REMARK    1  A    between atoms: C2_2  and  C3_3 
REMARK    2  A    between atoms: C2_2  and  N2_11 
REMARK       I    between atoms: C3_3  and  N1_5 
REMARK    3  A    between atoms: C10_14  and  N3_15 
REMARK    4  A    between atoms: N3_15  and  S1_17 
REMARK    5  A    between atoms: S1_17  and  C11_20 
REMARK    6  A    between atoms: C14_23  and  C15_24 
ROOT
HETATM    1  N2  UNL     1       3.066   7.182  23.342  1.00  0.00    -0.337 N 
HETATM    2  C8  UNL     1       1.620   7.338  23.560  1.00  0.00     0.129 C 
HETATM    3  C9  UNL     1       1.295   6.034  24.327  1.00  0.00     0.055 C 
HETATM    4  C10 UNL     1       2.092   5.061  23.512  1.00  0.00     0.186 C 
HETATM    5  C19 UNL     1       3.420   5.814  23.418  1.00  0.00     0.244 C 
HETATM    6  O5  UNL     1       4.574   5.318  23.409  1.00  0.00    -0.271 OA
ENDROOT
BRANCH   4   7
HETATM    7  N3  UNL     1       2.377   3.890  24.270  1.00  0.00    -0.301 N 
ATOM      8  H3  UNL     1       2.607   3.922  25.263  1.00  0.00     0.173 HD
BRANCH   7   9
HETATM    9  S1  UNL     1       2.305   2.454  23.406  1.00  0.00     0.266 S 
HETATM   10  O3  UNL     1       2.948   1.363  24.263  1.00  0.00    -0.200 OA
HETATM   11  O4  UNL     1       0.889   2.048  23.082  1.00  0.00    -0.200 OA
BRANCH   9  12
HETATM   12  C11 UNL     1       3.279   2.513  21.948  1.00  0.00     0.120 A 
HETATM   13  C12 UNL     1       2.950   2.766  20.651  1.00  0.00     0.034 A 
HETATM   14  C13 UNL     1       3.936   2.723  19.724  1.00  0.00     0.022 A 
HETATM   15  C14 UNL     1       5.185   2.428  20.162  1.00  0.00     0.023 A 
HETATM   16  S3  UNL     1       4.989   2.216  21.829  1.00  0.00    -0.075 SA
BRANCH  15  17
HETATM   17  C15 UNL     1       6.471   2.295  19.452  1.00  0.00     0.023 A 
HETATM   18  C16 UNL     1       7.677   1.879  19.946  1.00  0.00     0.022 A 
HETATM   19  C17 UNL     1       8.710   1.842  19.093  1.00  0.00     0.033 A 
HETATM   20  C18 UNL     1       8.468   2.225  17.799  1.00  0.00     0.075 A 
HETATM   21 CL1  UNL     1       9.612   2.285  16.448  1.00  0.00    -0.076 Cl
HETATM   22  S2  UNL     1       6.814   2.622  17.815  1.00  0.00    -0.077 SA
ENDBRANCH  15  17
ENDBRANCH   9  12
ENDBRANCH   7   9
ENDBRANCH   4   7
BRANCH   1  23
HETATM   23  C2  UNL     1       3.980   8.298  23.099  1.00  0.00     0.175 C 
HETATM   24  C1  UNL     1       3.183   9.612  23.180  1.00  0.00     0.042 C 
BRANCH  23  25
HETATM   25  C3  UNL     1       4.991   8.382  24.181  1.00  0.00     0.242 C 
HETATM   26  O1  UNL     1       4.578   8.623  25.342  1.00  0.00    -0.271 OA
HETATM   27  N1  UNL     1       6.367   8.197  23.915  1.00  0.00    -0.346 N 
HETATM   28  C4  UNL     1       7.318   8.307  25.031  1.00  0.00     0.152 C 
HETATM   29  C7  UNL     1       6.923   7.906  22.634  1.00  0.00     0.152 C 
HETATM   30  C5  UNL     1       8.563   9.028  24.516  1.00  0.00     0.187 C 
HETATM   31  O2  UNL     1       8.315   9.746  23.362  1.00  0.00    -0.388 OA
HETATM   32  C6  UNL     1       7.956   8.963  22.291  1.00  0.00     0.187 C 
ENDBRANCH  23  25
ENDBRANCH   1  23
TORSDOF 6
ENDMDL
