MODEL 1
REMARK VINA RESULT: -8.668264203      0.000      0.000
REMARK  6 active torsions:
REMARK  status: ('A' for Active; 'I' for Inactive)
REMARK    1  A    between atoms: C2_2  and  C3_3 
REMARK    2  A    between atoms: C2_2  and  N2_11 
REMARK       I    between atoms: C3_3  and  N1_5 
REMARK    3  A    between atoms: C10_14  and  N3_15 
REMARK    4  A    between atoms: N3_15  and  S1_17 
REMARK    5  A    between atoms: S1_17  and  C11_20 
REMARK    6  A    between atoms: C14_23  and  C15_24 
ROOT
HETATM    1  N2  UNL     1       6.288   4.696  20.713  1.00  0.00    -0.337 N 
HETATM    2  C8  UNL     1       4.904   4.658  21.209  1.00  0.00     0.129 C 
HETATM    3  C9  UNL     1       4.441   6.104  20.904  1.00  0.00     0.055 C 
HETATM    4  C10 UNL     1       5.655   6.854  21.362  1.00  0.00     0.186 C 
HETATM    5  C19 UNL     1       6.751   6.033  20.680  1.00  0.00     0.244 C 
HETATM    6  O5  UNL     1       7.829   6.460  20.199  1.00  0.00    -0.271 OA
ENDROOT
BRANCH   4   7
HETATM    7  N3  UNL     1       5.709   8.137  20.747  1.00  0.00    -0.301 N 
ATOM      8  H3  UNL     1       5.735   8.260  19.735  1.00  0.00     0.173 HD
BRANCH   7   9
HETATM    9  S1  UNL     1       5.729   9.431  21.814  1.00  0.00     0.266 S 
HETATM   10  O3  UNL     1       6.468  10.584  21.133  1.00  0.00    -0.200 OA
HETATM   11  O4  UNL     1       4.341   9.893  22.183  1.00  0.00    -0.200 OA
BRANCH   9  12
HETATM   12  C11 UNL     1       6.667   9.084  23.255  1.00  0.00     0.120 A 
HETATM   13  C12 UNL     1       6.318   9.029  24.570  1.00  0.00     0.034 A 
HETATM   14  C13 UNL     1       7.285   8.748  25.475  1.00  0.00     0.022 A 
HETATM   15  C14 UNL     1       8.537   8.541  24.999  1.00  0.00     0.023 A 
HETATM   16  S3  UNL     1       8.370   8.734  23.326  1.00  0.00    -0.075 SA
BRANCH  15  17
HETATM   17  C15 UNL     1       9.807   8.222  25.676  1.00  0.00     0.023 A 
HETATM   18  C16 UNL     1      10.002   7.514  26.830  1.00  0.00     0.022 A 
HETATM   19  C17 UNL     1      11.266   7.356  27.248  1.00  0.00     0.033 A 
HETATM   20  C18 UNL     1      12.254   7.919  26.482  1.00  0.00     0.075 A 
HETATM   21 CL1  UNL     1      14.003   7.888  26.763  1.00  0.00    -0.076 Cl
HETATM   22  S2  UNL     1      11.390   8.646  25.210  1.00  0.00    -0.077 SA
ENDBRANCH  15  17
ENDBRANCH   9  12
ENDBRANCH   7   9
ENDBRANCH   4   7
BRANCH   1  23
HETATM   23  C2  UNL     1       7.042   3.511  20.308  1.00  0.00     0.175 C 
HETATM   24  C1  UNL     1       6.404   2.274  20.964  1.00  0.00     0.042 C 
BRANCH  23  25
HETATM   25  C3  UNL     1       6.914   3.293  18.846  1.00  0.00     0.242 C 
HETATM   26  O1  UNL     1       5.778   2.994  18.402  1.00  0.00    -0.271 OA
HETATM   27  N1  UNL     1       8.029   3.416  17.985  1.00  0.00    -0.346 N 
HETATM   28  C4  UNL     1       7.836   3.173  16.548  1.00  0.00     0.152 C 
HETATM   29  C7  UNL     1       9.349   3.765  18.399  1.00  0.00     0.152 C 
HETATM   30  C5  UNL     1       9.061   2.421  16.032  1.00  0.00     0.187 C 
HETATM   31  O2  UNL     1       9.764   1.802  17.047  1.00  0.00    -0.388 OA
HETATM   32  C6  UNL     1      10.310   2.678  17.955  1.00  0.00     0.187 C 
ENDBRANCH  23  25
ENDBRANCH   1  23
TORSDOF 6
ENDMDL
