MODEL 2
REMARK VINA RESULT: -8.497542462      0.958      1.145
REMARK  6 active torsions:
REMARK  status: ('A' for Active; 'I' for Inactive)
REMARK    1  A    between atoms: C2_2  and  C3_3 
REMARK    2  A    between atoms: C2_2  and  N2_11 
REMARK       I    between atoms: C3_3  and  N1_5 
REMARK    3  A    between atoms: C10_14  and  N3_15 
REMARK    4  A    between atoms: N3_15  and  S1_17 
REMARK    5  A    between atoms: S1_17  and  C11_20 
REMARK    6  A    between atoms: C14_23  and  C15_24 
ROOT
HETATM    1  N2  UNL     1       6.160   4.395  21.062  1.00  0.00    -0.337 N 
HETATM    2  C8  UNL     1       4.947   3.831  21.673  1.00  0.00     0.129 C 
HETATM    3  C9  UNL     1       4.000   5.055  21.633  1.00  0.00     0.055 C 
HETATM    4  C10 UNL     1       4.952   6.120  22.085  1.00  0.00     0.186 C 
HETATM    5  C19 UNL     1       6.152   5.805  21.189  1.00  0.00     0.244 C 
HETATM    6  O5  UNL     1       6.954   6.626  20.680  1.00  0.00    -0.271 OA
ENDROOT
BRANCH   4   7
HETATM    7  N3  UNL     1       4.500   7.404  21.668  1.00  0.00    -0.301 N 
ATOM      8  H3  UNL     1       4.119   7.576  20.737  1.00  0.00     0.173 HD
BRANCH   7   9
HETATM    9  S1  UNL     1       4.639   8.612  22.824  1.00  0.00     0.266 S 
HETATM   10  O3  UNL     1       4.254   9.936  22.162  1.00  0.00    -0.200 OA
HETATM   11  O4  UNL     1       3.736   8.380  24.010  1.00  0.00    -0.200 OA
BRANCH   9  12
HETATM   12  C11 UNL     1       6.298   8.836  23.347  1.00  0.00     0.120 A 
HETATM   13  C12 UNL     1       7.278   9.676  22.912  1.00  0.00     0.034 A 
HETATM   14  C13 UNL     1       8.490   9.606  23.512  1.00  0.00     0.022 A 
HETATM   15  C14 UNL     1       8.636   8.699  24.508  1.00  0.00     0.023 A 
HETATM   16  S3  UNL     1       7.118   7.958  24.606  1.00  0.00    -0.075 SA
BRANCH  15  17
HETATM   17  C15 UNL     1       9.787   8.353  25.363  1.00  0.00     0.023 A 
HETATM   18  C16 UNL     1       9.791   7.671  26.549  1.00  0.00     0.022 A 
HETATM   19  C17 UNL     1      10.979   7.478  27.142  1.00  0.00     0.033 A 
HETATM   20  C18 UNL     1      12.084   7.982  26.507  1.00  0.00     0.075 A 
HETATM   21 CL1  UNL     1      13.775   7.893  27.029  1.00  0.00    -0.076 Cl
HETATM   22  S2  UNL     1      11.434   8.703  25.111  1.00  0.00    -0.077 SA
ENDBRANCH  15  17
ENDBRANCH   9  12
ENDBRANCH   7   9
ENDBRANCH   4   7
BRANCH   1  23
HETATM   23  C2  UNL     1       7.197   3.593  20.415  1.00  0.00     0.175 C 
HETATM   24  C1  UNL     1       7.048   2.133  20.878  1.00  0.00     0.042 C 
BRANCH  23  25
HETATM   25  C3  UNL     1       6.986   3.566  18.947  1.00  0.00     0.242 C 
HETATM   26  O1  UNL     1       5.803   3.509  18.532  1.00  0.00    -0.271 OA
HETATM   27  N1  UNL     1       8.078   3.601  18.049  1.00  0.00    -0.346 N 
HETATM   28  C4  UNL     1       7.801   3.557  16.605  1.00  0.00     0.152 C 
HETATM   29  C7  UNL     1       9.451   3.679  18.430  1.00  0.00     0.152 C 
HETATM   30  C5  UNL     1       8.865   2.677  15.951  1.00  0.00     0.187 C 
HETATM   31  O2  UNL     1       9.485   1.840  16.859  1.00  0.00    -0.388 OA
HETATM   32  C6  UNL     1      10.200   2.506  17.825  1.00  0.00     0.187 C 
ENDBRANCH  23  25
ENDBRANCH   1  23
TORSDOF 6
ENDMDL
