MODEL 4
REMARK VINA RESULT: -8.273706167      0.911      1.066
REMARK  6 active torsions:
REMARK  status: ('A' for Active; 'I' for Inactive)
REMARK    1  A    between atoms: C2_2  and  C3_3 
REMARK    2  A    between atoms: C2_2  and  N2_11 
REMARK       I    between atoms: C3_3  and  N1_5 
REMARK    3  A    between atoms: C10_14  and  N3_15 
REMARK    4  A    between atoms: N3_15  and  S1_17 
REMARK    5  A    between atoms: S1_17  and  C11_20 
REMARK    6  A    between atoms: C14_23  and  C15_24 
ROOT
HETATM    1  N2  UNL     1       6.111   4.640  20.738  1.00  0.00    -0.337 N 
HETATM    2  C8  UNL     1       4.865   4.327  21.453  1.00  0.00     0.129 C 
HETATM    3  C9  UNL     1       4.000   5.559  21.093  1.00  0.00     0.055 C 
HETATM    4  C10 UNL     1       5.020   6.641  21.275  1.00  0.00     0.186 C 
HETATM    5  C19 UNL     1       6.195   6.033  20.505  1.00  0.00     0.244 C 
HETATM    6  O5  UNL     1       7.048   6.647  19.817  1.00  0.00    -0.271 OA
ENDROOT
BRANCH   4   7
HETATM    7  N3  UNL     1       4.652   7.804  20.542  1.00  0.00    -0.301 N 
ATOM      8  H3  UNL     1       4.307   7.761  19.583  1.00  0.00     0.173 HD
BRANCH   7   9
HETATM    9  S1  UNL     1       4.827   9.249  21.375  1.00  0.00     0.266 S 
HETATM   10  O3  UNL     1       5.552  10.231  20.454  1.00  0.00    -0.200 OA
HETATM   11  O4  UNL     1       3.501   9.846  21.778  1.00  0.00    -0.200 OA
BRANCH   9  12
HETATM   12  C11 UNL     1       5.878   9.083  22.770  1.00  0.00     0.120 A 
HETATM   13  C12 UNL     1       5.616   9.104  24.106  1.00  0.00     0.034 A 
HETATM   14  C13 UNL     1       6.656   8.964  24.962  1.00  0.00     0.022 A 
HETATM   15  C14 UNL     1       7.889   8.811  24.418  1.00  0.00     0.023 A 
HETATM   16  S3  UNL     1       7.603   8.862  22.751  1.00  0.00    -0.075 SA
BRANCH  15  17
HETATM   17  C15 UNL     1       9.220   8.638  25.028  1.00  0.00     0.023 A 
HETATM   18  C16 UNL     1      10.436   9.038  24.546  1.00  0.00     0.022 A 
HETATM   19  C17 UNL     1      11.514   8.763  25.295  1.00  0.00     0.033 A 
HETATM   20  C18 UNL     1      11.303   8.105  26.479  1.00  0.00     0.075 A 
HETATM   21 CL1  UNL     1      12.507   7.605  27.678  1.00  0.00    -0.076 Cl
HETATM   22  S2  UNL     1       9.615   7.893  26.509  1.00  0.00    -0.077 SA
ENDBRANCH  15  17
ENDBRANCH   9  12
ENDBRANCH   7   9
ENDBRANCH   4   7
BRANCH   1  23
HETATM   23  C2  UNL     1       7.091   3.636  20.328  1.00  0.00     0.175 C 
HETATM   24  C1  UNL     1       6.779   2.317  21.058  1.00  0.00     0.042 C 
BRANCH  23  25
HETATM   25  C3  UNL     1       6.946   3.331  18.883  1.00  0.00     0.242 C 
HETATM   26  O1  UNL     1       5.805   3.004  18.472  1.00  0.00    -0.271 OA
HETATM   27  N1  UNL     1       8.050   3.406  18.003  1.00  0.00    -0.346 N 
HETATM   28  C4  UNL     1       7.840   3.078  16.585  1.00  0.00     0.152 C 
HETATM   29  C7  UNL     1       9.374   3.783  18.379  1.00  0.00     0.152 C 
HETATM   30  C5  UNL     1       9.061   2.300  16.100  1.00  0.00     0.187 C 
HETATM   31  O2  UNL     1       9.778   1.744  17.141  1.00  0.00    -0.388 OA
HETATM   32  C6  UNL     1      10.333   2.673  17.988  1.00  0.00     0.187 C 
ENDBRANCH  23  25
ENDBRANCH   1  23
TORSDOF 6
ENDMDL
