MODEL 13
REMARK VINA RESULT: -7.417204459      4.488      8.645
REMARK  6 active torsions:
REMARK  status: ('A' for Active; 'I' for Inactive)
REMARK    1  A    between atoms: C2_2  and  C3_3 
REMARK    2  A    between atoms: C2_2  and  N2_11 
REMARK       I    between atoms: C3_3  and  N1_5 
REMARK    3  A    between atoms: C10_14  and  N3_15 
REMARK    4  A    between atoms: N3_15  and  S1_17 
REMARK    5  A    between atoms: S1_17  and  C11_20 
REMARK    6  A    between atoms: C14_23  and  C15_24 
ROOT
HETATM    1  N2  UNL     1       4.489   8.617  23.642  1.00  0.00    -0.337 N 
HETATM    2  C8  UNL     1       5.609   8.198  24.499  1.00  0.00     0.129 C 
HETATM    3  C9  UNL     1       6.722   9.163  24.024  1.00  0.00     0.055 C 
HETATM    4  C10 UNL     1       6.503   9.086  22.544  1.00  0.00     0.186 C 
HETATM    5  C19 UNL     1       4.984   9.268  22.487  1.00  0.00     0.244 C 
HETATM    6  O5  UNL     1       4.326   9.867  21.602  1.00  0.00    -0.271 OA
ENDROOT
BRANCH   4   7
HETATM    7  N3  UNL     1       7.043  10.234  21.898  1.00  0.00    -0.301 N 
ATOM      8  H3  UNL     1       7.013  11.164  22.317  1.00  0.00     0.173 HD
BRANCH   7   9
HETATM    9  S1  UNL     1       7.733   9.942  20.398  1.00  0.00     0.266 S 
HETATM   10  O3  UNL     1       6.990  10.797  19.370  1.00  0.00    -0.200 OA
HETATM   11  O4  UNL     1       9.199  10.298  20.360  1.00  0.00    -0.200 OA
BRANCH   9  12
HETATM   12  C11 UNL     1       7.487   8.288  19.869  1.00  0.00     0.120 A 
HETATM   13  C12 UNL     1       6.456   7.694  19.207  1.00  0.00     0.034 A 
HETATM   14  C13 UNL     1       6.544   6.368  18.948  1.00  0.00     0.022 A 
HETATM   15  C14 UNL     1       7.662   5.728  19.369  1.00  0.00     0.023 A 
HETATM   16  S3  UNL     1       8.570   6.948  20.112  1.00  0.00    -0.075 SA
BRANCH  15  17
HETATM   17  C15 UNL     1       8.089   4.321  19.265  1.00  0.00     0.023 A 
HETATM   18  C16 UNL     1       7.578   3.226  19.908  1.00  0.00     0.022 A 
HETATM   19  C17 UNL     1       8.142   2.039  19.643  1.00  0.00     0.033 A 
HETATM   20  C18 UNL     1       9.183   2.026  18.751  1.00  0.00     0.075 A 
HETATM   21 CL1  UNL     1      10.126   0.632  18.198  1.00  0.00    -0.076 Cl
HETATM   22  S2  UNL     1       9.339   3.662  18.313  1.00  0.00    -0.077 SA
ENDBRANCH  15  17
ENDBRANCH   9  12
ENDBRANCH   7   9
ENDBRANCH   4   7
BRANCH   1  23
HETATM   23  C2  UNL     1       3.083   8.392  23.970  1.00  0.00     0.175 C 
HETATM   24  C1  UNL     1       3.002   7.352  25.101  1.00  0.00     0.042 C 
BRANCH  23  25
HETATM   25  C3  UNL     1       2.478   9.628  24.526  1.00  0.00     0.242 C 
HETATM   26  O1  UNL     1       3.132  10.250  25.399  1.00  0.00    -0.271 OA
HETATM   27  N1  UNL     1       1.214  10.087  24.089  1.00  0.00    -0.346 N 
HETATM   28  C4  UNL     1       0.666  11.312  24.691  1.00  0.00     0.152 C 
HETATM   29  C7  UNL     1       0.411   9.454  23.094  1.00  0.00     0.152 C 
HETATM   30  C5  UNL     1      -0.835  11.105  24.887  1.00  0.00     0.187 C 
HETATM   31  O2  UNL     1      -1.186   9.770  24.884  1.00  0.00    -0.388 OA
HETATM   32  C6  UNL     1      -0.951   9.139  23.686  1.00  0.00     0.187 C 
ENDBRANCH  23  25
ENDBRANCH   1  23
TORSDOF 6
ENDMDL
