MODEL 9
REMARK VINA RESULT: -7.512214720      1.449      1.687
REMARK  6 active torsions:
REMARK  status: ('A' for Active; 'I' for Inactive)
REMARK    1  A    between atoms: C2_2  and  C3_3 
REMARK    2  A    between atoms: C2_2  and  N2_11 
REMARK       I    between atoms: C3_3  and  N1_5 
REMARK    3  A    between atoms: C10_14  and  N3_15 
REMARK    4  A    between atoms: N3_15  and  S1_17 
REMARK    5  A    between atoms: S1_17  and  C11_20 
REMARK    6  A    between atoms: C14_23  and  C15_24 
ROOT
HETATM    1  N2  UNL     1       4.639   4.702  20.059  1.00  0.00    -0.337 N 
HETATM    2  C8  UNL     1       3.247   5.020  19.709  1.00  0.00     0.129 C 
HETATM    3  C9  UNL     1       3.223   6.549  19.948  1.00  0.00     0.055 C 
HETATM    4  C10 UNL     1       3.974   6.609  21.244  1.00  0.00     0.186 C 
HETATM    5  C19 UNL     1       5.164   5.707  20.906  1.00  0.00     0.244 C 
HETATM    6  O5  UNL     1       6.349   5.838  21.300  1.00  0.00    -0.271 OA
ENDROOT
BRANCH   4   7
HETATM    7  N3  UNL     1       4.528   7.905  21.440  1.00  0.00    -0.301 N 
ATOM      8  H3  UNL     1       4.838   8.492  20.665  1.00  0.00     0.173 HD
BRANCH   7   9
HETATM    9  S1  UNL     1       4.633   8.393  23.041  1.00  0.00     0.266 S 
HETATM   10  O3  UNL     1       3.949   9.756  23.158  1.00  0.00    -0.200 OA
HETATM   11  O4  UNL     1       3.957   7.427  23.983  1.00  0.00    -0.200 OA
BRANCH   9  12
HETATM   12  C11 UNL     1       6.291   8.679  23.537  1.00  0.00     0.120 A 
HETATM   13  C12 UNL     1       7.224   9.570  23.101  1.00  0.00     0.034 A 
HETATM   14  C13 UNL     1       8.450   9.541  23.676  1.00  0.00     0.022 A 
HETATM   15  C14 UNL     1       8.656   8.620  24.649  1.00  0.00     0.023 A 
HETATM   16  S3  UNL     1       7.173   7.812  24.760  1.00  0.00    -0.075 SA
BRANCH  15  17
HETATM   17  C15 UNL     1       9.838   8.307  25.473  1.00  0.00     0.023 A 
HETATM   18  C16 UNL     1       9.886   7.684  26.691  1.00  0.00     0.022 A 
HETATM   19  C17 UNL     1      11.095   7.511  27.245  1.00  0.00     0.033 A 
HETATM   20  C18 UNL     1      12.177   7.973  26.542  1.00  0.00     0.075 A 
HETATM   21 CL1  UNL     1      13.887   7.896  26.999  1.00  0.00    -0.076 Cl
HETATM   22  S2  UNL     1      11.476   8.630  25.138  1.00  0.00    -0.077 SA
ENDBRANCH  15  17
ENDBRANCH   9  12
ENDBRANCH   7   9
ENDBRANCH   4   7
BRANCH   1  23
HETATM   23  C2  UNL     1       5.354   3.522  19.577  1.00  0.00     0.175 C 
HETATM   24  C1  UNL     1       4.335   2.554  18.949  1.00  0.00     0.042 C 
BRANCH  23  25
HETATM   25  C3  UNL     1       6.277   3.891  18.476  1.00  0.00     0.242 C 
HETATM   26  O1  UNL     1       5.796   4.521  17.502  1.00  0.00    -0.271 OA
HETATM   27  N1  UNL     1       7.647   3.546  18.521  1.00  0.00    -0.346 N 
HETATM   28  C4  UNL     1       8.506   3.931  17.391  1.00  0.00     0.152 C 
HETATM   29  C7  UNL     1       8.282   2.846  19.591  1.00  0.00     0.152 C 
HETATM   30  C5  UNL     1       9.478   2.782  17.130  1.00  0.00     0.187 C 
HETATM   31  O2  UNL     1       9.038   1.588  17.667  1.00  0.00    -0.388 OA
HETATM   32  C6  UNL     1       8.948   1.599  19.038  1.00  0.00     0.187 C 
ENDBRANCH  23  25
ENDBRANCH   1  23
TORSDOF 6
ENDMDL
