MODEL 8
REMARK VINA RESULT: -6.783710420      3.408      5.889
REMARK  10 active torsions:
REMARK  status: ('A' for Active; 'I' for Inactive)
REMARK    1  A    between atoms: N5_13  and  C6_14 
REMARK    2  A    between atoms: C7_16  and  C8_17 
REMARK    3  A    between atoms: C8_17  and  O2_18 
REMARK    4  A    between atoms: O2_18  and  P1_19 
REMARK    5  A    between atoms: P1_19  and  O5_22 
REMARK    6  A    between atoms: O5_22  and  P2_23 
REMARK    7  A    between atoms: P2_23  and  O8_26 
REMARK    8  A    between atoms: O8_26  and  P3_27 
REMARK    9  A    between atoms: C9_31  and  O12_32 
REMARK   10  A    between atoms: C10_34  and  O13_35 
ROOT
HETATM    1  C6  UNL     1      12.509  74.106  51.234  1.00  0.00     0.159 C 
HETATM    2  O1  UNL     1      11.353  73.436  51.669  1.00  0.00    -0.326 OA
HETATM    3  C7  UNL     1      11.368  73.651  52.984  1.00  0.00     0.186 C 
HETATM    4  C9  UNL     1      12.467  74.631  53.414  1.00  0.00     0.186 C 
HETATM    5  C10 UNL     1      12.534  75.356  52.039  1.00  0.00     0.224 C 
ENDROOT
BRANCH   3   6
HETATM    6  C8  UNL     1      10.205  73.979  53.829  1.00  0.00     0.216 C 
BRANCH   6   7
HETATM    7  O2  UNL     1       9.801  72.816  54.533  1.00  0.00    -0.287 OA
BRANCH   7   8
HETATM    8  P1  UNL     1       8.381  72.354  53.629  1.00  0.00     0.417 P 
HETATM    9  O3  UNL     1       8.701  71.247  52.761  1.00  0.00    -0.624 OA
HETATM   10  O4  UNL     1       7.327  71.824  54.958  1.00  0.00    -0.624 OA
BRANCH   8  11
HETATM   11  O5  UNL     1       7.601  73.673  52.964  1.00  0.00    -0.180 OA
BRANCH  11  12
HETATM   12  P2  UNL     1       6.859  73.164  51.477  1.00  0.00     0.428 P 
HETATM   13  O6  UNL     1       5.909  72.064  51.847  1.00  0.00    -0.624 OA
HETATM   14  O7  UNL     1       7.968  72.692  50.331  1.00  0.00    -0.624 OA
BRANCH  12  15
HETATM   15  O8  UNL     1       5.943  74.500  50.924  1.00  0.00    -0.173 OA
BRANCH  15  16
HETATM   16  P3  UNL     1       4.744  73.964  49.882  1.00  0.00     0.431 P 
HETATM   17  O9  UNL     1       5.170  72.808  49.046  1.00  0.00    -0.616 OA
HETATM   18  O10 UNL     1       3.418  73.493  50.836  1.00  0.00    -0.616 OA
HETATM   19  O11 UNL     1       4.318  75.274  48.890  1.00  0.00    -0.616 OA
ENDBRANCH  15  16
ENDBRANCH  12  15
ENDBRANCH  11  12
ENDBRANCH   8  11
ENDBRANCH   7   8
ENDBRANCH   6   7
ENDBRANCH   3   6
BRANCH   4  20
HETATM   20  O12 UNL     1      13.606  73.930  53.647  1.00  0.00    -0.390 OA
ATOM     21  H12 UNL     1      14.313  74.544  53.804  1.00  0.00     0.210 HD
ENDBRANCH   4  20
BRANCH   1  22
HETATM   22  N5  UNL     1      12.804  74.109  49.887  1.00  0.00    -0.273 N 
HETATM   23  C3  UNL     1      11.961  73.819  48.882  1.00  0.00     0.146 A 
HETATM   24  N3  UNL     1      10.743  73.301  48.913  1.00  0.00    -0.336 N 
HETATM   25  C4  UNL     1      12.516  74.128  47.684  1.00  0.00     0.120 A 
HETATM   26  C2  UNL     1      10.080  73.094  47.762  1.00  0.00     0.183 A 
ATOM     27  H3  UNL     1      10.310  73.061  49.805  1.00  0.00     0.168 HD
HETATM   28  N2  UNL     1      10.609  73.404  46.565  1.00  0.00    -0.339 N 
HETATM   29  C1  UNL     1      11.834  73.924  46.512  1.00  0.00     0.148 A 
ATOM     30  H2  UNL     1      10.079  73.243  45.708  1.00  0.00     0.167 HD
HETATM   31  N1  UNL     1      12.324  74.379  45.268  1.00  0.00    -0.080 NA
HETATM   32  N4  UNL     1      13.745  74.606  47.959  1.00  0.00    -0.346 N 
HETATM   33  C5  UNL     1      13.915  74.588  49.295  1.00  0.00     0.192 A 
ATOM     34  H4  UNL     1      14.429  74.926  47.274  1.00  0.00     0.167 HD
ENDBRANCH   1  22
BRANCH   5  35
HETATM   35  O13 UNL     1      13.754  76.013  52.123  1.00  0.00    -0.385 OA
ATOM     36  H13 UNL     1      13.785  76.895  51.772  1.00  0.00     0.210 HD
ENDBRANCH   5  35
TORSDOF 10
ENDMDL
