MODEL 14
REMARK VINA RESULT: -6.710216613      3.022      5.242
REMARK  10 active torsions:
REMARK  status: ('A' for Active; 'I' for Inactive)
REMARK    1  A    between atoms: N5_13  and  C6_14 
REMARK    2  A    between atoms: C7_16  and  C8_17 
REMARK    3  A    between atoms: C8_17  and  O2_18 
REMARK    4  A    between atoms: O2_18  and  P1_19 
REMARK    5  A    between atoms: P1_19  and  O5_22 
REMARK    6  A    between atoms: O5_22  and  P2_23 
REMARK    7  A    between atoms: P2_23  and  O8_26 
REMARK    8  A    between atoms: O8_26  and  P3_27 
REMARK    9  A    between atoms: C9_31  and  O12_32 
REMARK   10  A    between atoms: C10_34  and  O13_35 
ROOT
HETATM    1  C6  UNL     1      12.622  74.008  51.232  1.00  0.00     0.159 C 
HETATM    2  O1  UNL     1      11.580  73.195  51.708  1.00  0.00    -0.326 OA
HETATM    3  C7  UNL     1      11.628  73.400  53.025  1.00  0.00     0.186 C 
HETATM    4  C9  UNL     1      12.614  74.507  53.418  1.00  0.00     0.186 C 
HETATM    5  C10 UNL     1      12.527  75.245  52.050  1.00  0.00     0.224 C 
ENDROOT
BRANCH   3   6
HETATM    6  C8  UNL     1      10.473  73.573  53.924  1.00  0.00     0.216 C 
BRANCH   6   7
HETATM    7  O2  UNL     1       9.470  74.316  53.252  1.00  0.00    -0.287 OA
BRANCH   7   8
HETATM    8  P1  UNL     1       8.467  74.811  54.592  1.00  0.00     0.417 P 
HETATM    9  O3  UNL     1       8.599  73.861  55.670  1.00  0.00    -0.624 OA
HETATM   10  O4  UNL     1       9.249  76.350  55.013  1.00  0.00    -0.624 OA
BRANCH   8  11
HETATM   11  O5  UNL     1       6.926  75.234  54.103  1.00  0.00    -0.180 OA
BRANCH  11  12
HETATM   12  P2  UNL     1       6.323  73.969  53.075  1.00  0.00     0.428 P 
HETATM   13  O6  UNL     1       4.828  74.035  53.176  1.00  0.00    -0.624 OA
HETATM   14  O7  UNL     1       6.925  72.472  53.474  1.00  0.00    -0.624 OA
BRANCH  12  15
HETATM   15  O8  UNL     1       6.773  74.402  51.481  1.00  0.00    -0.173 OA
BRANCH  15  16
HETATM   16  P3  UNL     1       6.848  73.025  50.528  1.00  0.00     0.431 P 
HETATM   17  O9  UNL     1       5.776  72.040  50.837  1.00  0.00    -0.616 OA
HETATM   18  O10 UNL     1       6.689  73.520  48.909  1.00  0.00    -0.616 OA
HETATM   19  O11 UNL     1       8.373  72.324  50.779  1.00  0.00    -0.616 OA
ENDBRANCH  15  16
ENDBRANCH  12  15
ENDBRANCH  11  12
ENDBRANCH   8  11
ENDBRANCH   7   8
ENDBRANCH   6   7
ENDBRANCH   3   6
BRANCH   4  20
HETATM   20  O12 UNL     1      13.842  73.953  53.591  1.00  0.00    -0.390 OA
ATOM     21  H12 UNL     1      14.226  73.796  52.737  1.00  0.00     0.210 HD
ENDBRANCH   4  20
BRANCH   1  22
HETATM   22  N5  UNL     1      12.852  74.058  49.873  1.00  0.00    -0.273 N 
HETATM   23  C3  UNL     1      11.967  73.784  48.900  1.00  0.00     0.146 A 
HETATM   24  N3  UNL     1      10.760  73.245  48.972  1.00  0.00    -0.336 N 
HETATM   25  C4  UNL     1      12.459  74.139  47.688  1.00  0.00     0.120 A 
HETATM   26  C2  UNL     1      10.047  73.061  47.848  1.00  0.00     0.183 A 
ATOM     27  H3  UNL     1      10.374  72.969  49.875  1.00  0.00     0.168 HD
HETATM   28  N2  UNL     1      10.513  73.418  46.637  1.00  0.00    -0.339 N 
HETATM   29  C1  UNL     1      11.726  73.961  46.543  1.00  0.00     0.148 A 
ATOM     30  H2  UNL     1       9.945  73.274  45.802  1.00  0.00     0.167 HD
HETATM   31  N1  UNL     1      12.149  74.462  45.292  1.00  0.00    -0.080 NA
HETATM   32  N4  UNL     1      13.693  74.630  47.919  1.00  0.00    -0.346 N 
HETATM   33  C5  UNL     1      13.926  74.574  49.244  1.00  0.00     0.192 A 
ATOM     34  H4  UNL     1      14.338  74.983  47.213  1.00  0.00     0.167 HD
ENDBRANCH   1  22
BRANCH   5  35
HETATM   35  O13 UNL     1      13.658  76.050  52.089  1.00  0.00    -0.385 OA
ATOM     36  H13 UNL     1      14.190  76.069  51.303  1.00  0.00     0.210 HD
ENDBRANCH   5  35
TORSDOF 10
ENDMDL
