MODEL 8
REMARK VINA RESULT: -4.695681924      2.007      3.783
REMARK  4 active torsions:
REMARK  status: ('A' for Active; 'I' for Inactive)
REMARK    1  A    between atoms: O1_2  and  C2_3 
REMARK    2  A    between atoms: C5_7  and  O3_8 
REMARK    3  A    between atoms: C6_10  and  O4_11 
REMARK    4  A    between atoms: C7_13  and  O5_14 
ROOT
HETATM    1  C2  UNL     1      12.795   4.650  -2.984  1.00  0.00     0.290 C 
HETATM    2  O2  UNL     1      13.379   3.910  -3.976  1.00  0.00    -0.351 OA
HETATM    3  C3  UNL     1      12.572   3.384  -4.929  1.00  0.00     0.152 C 
HETATM    4  C4  UNL     1      13.430   2.514  -5.836  1.00  0.00     0.042 C 
HETATM    5  C5  UNL     1      11.482   2.499  -4.382  1.00  0.00     0.178 C 
HETATM    6  C6  UNL     1      10.891   3.001  -3.114  1.00  0.00     0.183 C 
HETATM    7  C7  UNL     1      11.388   4.324  -2.651  1.00  0.00     0.204 C 
ENDROOT
BRANCH   1   8
HETATM    8  O1  UNL     1      13.050   5.979  -3.209  1.00  0.00    -0.363 OA
HETATM    9  C1  UNL     1      14.277   6.438  -2.825  1.00  0.00     0.204 C 
ENDBRANCH   1   8
BRANCH   7  10
HETATM   10  O5  UNL     1      10.487   5.316  -3.115  1.00  0.00    -0.388 OA
ATOM     11  H5  UNL     1      10.000   5.028  -3.878  1.00  0.00     0.210 HD
ENDBRANCH   7  10
BRANCH   6  12
HETATM   12  O4  UNL     1      11.043   2.000  -2.128  1.00  0.00    -0.390 OA
ATOM     13  H4  UNL     1      11.463   1.248  -2.530  1.00  0.00     0.210 HD
ENDBRANCH   6  12
BRANCH   5  14
HETATM   14  O3  UNL     1      12.044   1.213  -4.214  1.00  0.00    -0.390 OA
ATOM     15  H3  UNL     1      11.331   0.590  -4.285  1.00  0.00     0.210 HD
ENDBRANCH   5  14
TORSDOF 4
ENDMDL
