MODEL 3
REMARK VINA RESULT: -5.043450790      1.841      3.684
REMARK  4 active torsions:
REMARK  status: ('A' for Active; 'I' for Inactive)
REMARK    1  A    between atoms: O1_2  and  C2_3 
REMARK    2  A    between atoms: C5_7  and  O3_8 
REMARK    3  A    between atoms: C6_10  and  O4_11 
REMARK    4  A    between atoms: C7_13  and  O5_14 
ROOT
HETATM    1  C2  UNL     1      12.575   4.759  -3.277  1.00  0.00     0.290 C 
HETATM    2  O2  UNL     1      12.993   3.456  -3.315  1.00  0.00    -0.351 OA
HETATM    3  C3  UNL     1      12.406   2.631  -4.215  1.00  0.00     0.152 C 
HETATM    4  C4  UNL     1      12.946   1.228  -3.980  1.00  0.00     0.042 C 
HETATM    5  C5  UNL     1      10.908   2.549  -4.078  1.00  0.00     0.178 C 
HETATM    6  C6  UNL     1      10.269   3.851  -3.749  1.00  0.00     0.183 C 
HETATM    7  C7  UNL     1      11.183   5.024  -3.711  1.00  0.00     0.204 C 
ENDROOT
BRANCH   1   8
HETATM    8  O1  UNL     1      13.530   5.552  -3.859  1.00  0.00    -0.363 OA
HETATM    9  C1  UNL     1      14.024   6.571  -3.098  1.00  0.00     0.204 C 
ENDBRANCH   1   8
BRANCH   7  10
HETATM   10  O5  UNL     1      11.131   5.658  -4.978  1.00  0.00    -0.388 OA
ATOM     11  H5  UNL     1      11.080   6.604  -4.903  1.00  0.00     0.210 HD
ENDBRANCH   7  10
BRANCH   6  12
HETATM   12  O4  UNL     1       9.548   3.697  -2.544  1.00  0.00    -0.390 OA
ATOM     13  H4  UNL     1       9.550   4.531  -2.088  1.00  0.00     0.210 HD
ENDBRANCH   6  12
BRANCH   5  14
HETATM   14  O3  UNL     1      10.640   1.579  -3.084  1.00  0.00    -0.390 OA
ATOM     15  H3  UNL     1       9.906   1.063  -3.395  1.00  0.00     0.210 HD
ENDBRANCH   5  14
TORSDOF 4
ENDMDL
