MODEL 10
REMARK VINA RESULT: -4.630739320      1.425      3.433
REMARK  4 active torsions:
REMARK  status: ('A' for Active; 'I' for Inactive)
REMARK    1  A    between atoms: O1_2  and  C2_3 
REMARK    2  A    between atoms: C5_7  and  O3_8 
REMARK    3  A    between atoms: C6_10  and  O4_11 
REMARK    4  A    between atoms: C7_13  and  O5_14 
ROOT
HETATM    1  C2  UNL     1      12.233   4.678  -3.655  1.00  0.00     0.290 C 
HETATM    2  O2  UNL     1      12.418   3.935  -4.788  1.00  0.00    -0.351 OA
HETATM    3  C3  UNL     1      11.327   3.362  -5.353  1.00  0.00     0.152 C 
HETATM    4  C4  UNL     1      11.802   2.499  -6.512  1.00  0.00     0.042 C 
HETATM    5  C5  UNL     1      10.564   2.458  -4.421  1.00  0.00     0.178 C 
HETATM    6  C6  UNL     1      10.487   2.970  -3.027  1.00  0.00     0.183 C 
HETATM    7  C7  UNL     1      11.075   4.318  -2.803  1.00  0.00     0.204 C 
ENDROOT
BRANCH   1   8
HETATM    8  O1  UNL     1      12.333   6.009  -3.972  1.00  0.00    -0.363 OA
HETATM    9  C1  UNL     1      13.580   6.560  -3.905  1.00  0.00     0.204 C 
ENDBRANCH   1   8
BRANCH   7  10
HETATM   10  O5  UNL     1      10.029   5.270  -2.893  1.00  0.00    -0.388 OA
ATOM     11  H5  UNL     1       9.177   4.882  -2.733  1.00  0.00     0.210 HD
ENDBRANCH   7  10
BRANCH   6  12
HETATM   12  O4  UNL     1      11.043   1.996  -2.167  1.00  0.00    -0.390 OA
ATOM     13  H4  UNL     1      10.363   1.703  -1.571  1.00  0.00     0.210 HD
ENDBRANCH   6  12
BRANCH   5  14
HETATM   14  O3  UNL     1      11.194   1.193  -4.470  1.00  0.00    -0.390 OA
ATOM     15  H3  UNL     1      10.635   0.589  -3.998  1.00  0.00     0.210 HD
ENDBRANCH   5  14
TORSDOF 4
ENDMDL
