MODEL 9
REMARK VINA RESULT: -4.760722180      1.863      2.602
REMARK  4 active torsions:
REMARK  status: ('A' for Active; 'I' for Inactive)
REMARK    1  A    between atoms: O1_2  and  C2_3 
REMARK    2  A    between atoms: C5_7  and  O3_8 
REMARK    3  A    between atoms: C6_10  and  O4_11 
REMARK    4  A    between atoms: C7_13  and  O5_14 
ROOT
HETATM    1  C2  UNL     1     -34.878   9.137 -42.341  1.00  0.00     0.290 C 
HETATM    2  O2  UNL     1     -35.519  10.346 -42.338  1.00  0.00    -0.351 OA
HETATM    3  C3  UNL     1     -34.932  11.370 -41.672  1.00  0.00     0.152 C 
HETATM    4  C4  UNL     1     -35.885  12.556 -41.710  1.00  0.00     0.042 C 
HETATM    5  C5  UNL     1     -34.662  11.075 -40.220  1.00  0.00     0.178 C 
HETATM    6  C6  UNL     1     -34.209   9.681 -39.971  1.00  0.00     0.183 C 
HETATM    7  C7  UNL     1     -33.999   8.847 -41.184  1.00  0.00     0.204 C 
ENDROOT
BRANCH   1   8
HETATM    8  O1  UNL     1     -34.309   8.936 -43.573  1.00  0.00    -0.363 OA
HETATM    9  C1  UNL     1     -35.031   8.199 -44.466  1.00  0.00     0.204 C 
ENDBRANCH   1   8
BRANCH   7  10
HETATM   10  O5  UNL     1     -32.625   8.914 -41.528  1.00  0.00    -0.388 OA
ATOM     11  H5  UNL     1     -32.160   9.567 -41.017  1.00  0.00     0.210 HD
ENDBRANCH   7  10
BRANCH   6  12
HETATM   12  O4  UNL     1     -35.106   9.081 -39.059  1.00  0.00    -0.390 OA
ATOM     13  H4  UNL     1     -35.716   8.543 -39.552  1.00  0.00     0.210 HD
ENDBRANCH   6  12
BRANCH   5  14
HETATM   14  O3  UNL     1     -35.853  11.363 -39.515  1.00  0.00    -0.390 OA
ATOM     15  H3  UNL     1     -36.150  10.546 -39.133  1.00  0.00     0.210 HD
ENDBRANCH   5  14
TORSDOF 4
ENDMDL
