MODEL 6
REMARK VINA RESULT: -4.914256597      1.253      1.616
REMARK  4 active torsions:
REMARK  status: ('A' for Active; 'I' for Inactive)
REMARK    1  A    between atoms: O1_2  and  C2_3 
REMARK    2  A    between atoms: C5_7  and  O3_8 
REMARK    3  A    between atoms: C6_10  and  O4_11 
REMARK    4  A    between atoms: C7_13  and  O5_14 
ROOT
HETATM    1  C2  UNL     1     -34.754   9.083 -42.409  1.00  0.00     0.290 C 
HETATM    2  O2  UNL     1     -35.890   9.175 -41.653  1.00  0.00    -0.351 OA
HETATM    3  C3  UNL     1     -36.088  10.314 -40.946  1.00  0.00     0.152 C 
HETATM    4  C4  UNL     1     -37.340  10.126 -40.102  1.00  0.00     0.042 C 
HETATM    5  C5  UNL     1     -34.967  10.641 -39.995  1.00  0.00     0.178 C 
HETATM    6  C6  UNL     1     -33.617  10.339 -40.541  1.00  0.00     0.183 C 
HETATM    7  C7  UNL     1     -33.584   9.870 -41.952  1.00  0.00     0.204 C 
ENDROOT
BRANCH   1   8
HETATM    8  O1  UNL     1     -35.082   9.239 -43.732  1.00  0.00    -0.363 OA
HETATM    9  C1  UNL     1     -35.229   8.096 -44.463  1.00  0.00     0.204 C 
ENDBRANCH   1   8
BRANCH   7  10
HETATM   10  O5  UNL     1     -33.341  10.994 -42.781  1.00  0.00    -0.388 OA
ATOM     11  H5  UNL     1     -34.093  11.573 -42.829  1.00  0.00     0.210 HD
ENDBRANCH   7  10
BRANCH   6  12
HETATM   12  O4  UNL     1     -32.976   9.436 -39.663  1.00  0.00    -0.390 OA
ATOM     13  H4  UNL     1     -32.248   9.038 -40.126  1.00  0.00     0.210 HD
ENDBRANCH   6  12
BRANCH   5  14
HETATM   14  O3  UNL     1     -35.214   9.916 -38.806  1.00  0.00    -0.390 OA
ATOM     15  H3  UNL     1     -34.368   9.654 -38.463  1.00  0.00     0.210 HD
ENDBRANCH   5  14
TORSDOF 4
ENDMDL
