MODEL 7
REMARK VINA RESULT: -9.823551687      3.686      8.595
REMARK  7 active torsions:
REMARK  status: ('A' for Active; 'I' for Inactive)
REMARK    1  A    between atoms: C6_10  and  C7_11 
REMARK    2  A    between atoms: C10_16  and  O1_17 
REMARK    3  A    between atoms: O1_17  and  C11_18 
REMARK    4  A    between atoms: C11_18  and  C12_19 
REMARK    5  A    between atoms: C12_19  and  N4_20 
REMARK    6  A    between atoms: C12_19  and  C13_24 
REMARK    7  A    between atoms: C13_24  and  C14_25 
ROOT
HETATM    1  C7  UNL     1      14.269  11.594   0.164  1.00  0.00    -0.008 A 
HETATM    2  C8  UNL     1      13.796  12.882   0.056  1.00  0.00     0.100 A 
HETATM    3  N3  UNL     1      13.114  13.495   1.059  1.00  0.00    -0.372 N 
ATOM      4  H3  UNL     1      12.781  14.451   0.937  1.00  0.00     0.164 HD
HETATM    5  C9  UNL     1      12.876  12.838   2.219  1.00  0.00     0.124 A 
HETATM    6  C10 UNL     1      13.323  11.553   2.388  1.00  0.00     0.085 A 
HETATM    7  C22 UNL     1      14.017  10.937   1.358  1.00  0.00     0.051 A 
ENDROOT
BRANCH   6   8
HETATM    8  O1  UNL     1      13.071  10.900   3.575  1.00  0.00    -0.348 OA
BRANCH   8   9
HETATM    9  C11 UNL     1      13.186   9.460   3.602  1.00  0.00     0.208 C 
BRANCH   9  10
HETATM   10  C12 UNL     1      11.805   8.918   3.703  1.00  0.00     0.212 C 
BRANCH  10  11
HETATM   11  N4  UNL     1      11.764   7.662   4.445  1.00  0.00    -0.073 N 
ATOM     12  H43 UNL     1      10.890   7.162   4.280  1.00  0.00     0.274 HD
ATOM     13  H42 UNL     1      12.415   6.981   4.056  1.00  0.00     0.274 HD
ATOM     14  H41 UNL     1      11.926   7.803   5.442  1.00  0.00     0.274 HD
ENDBRANCH  10  11
BRANCH  10  15
HETATM   15  C13 UNL     1      10.833   9.910   4.215  1.00  0.00     0.076 C 
BRANCH  15  16
HETATM   16  C14 UNL     1       9.539   9.996   3.541  1.00  0.00    -0.028 A 
HETATM   17  C15 UNL     1       9.309   9.771   2.177  1.00  0.00     0.096 A 
HETATM   18  N5  UNL     1       8.003   9.903   1.921  1.00  0.00    -0.365 N 
HETATM   19  C16 UNL     1       7.335  10.211   3.057  1.00  0.00     0.042 A 
ATOM     20  H5  UNL     1       7.573   9.788   1.003  1.00  0.00     0.165 HD
HETATM   21  C17 UNL     1       5.996  10.446   3.275  1.00  0.00     0.030 A 
HETATM   22  C21 UNL     1       8.299  10.267   4.059  1.00  0.00    -0.002 A 
HETATM   23  C18 UNL     1       5.544  10.757   4.533  1.00  0.00     0.002 A 
HETATM   24  C19 UNL     1       6.469  10.823   5.549  1.00  0.00     0.001 A 
HETATM   25  C20 UNL     1       7.811  10.586   5.319  1.00  0.00     0.014 A 
ENDBRANCH  15  16
ENDBRANCH  10  15
ENDBRANCH   9  10
ENDBRANCH   8   9
ENDBRANCH   6   8
BRANCH   1  26
HETATM   26  C6  UNL     1      14.990  11.000  -0.952  1.00  0.00    -0.024 A 
HETATM   27  C5  UNL     1      14.363  10.786  -2.161  1.00  0.00     0.014 A 
HETATM   28  C4  UNL     1      15.030  10.217  -3.241  1.00  0.00     0.033 A 
HETATM   29  C3  UNL     1      16.354   9.845  -3.139  1.00  0.00     0.060 A 
HETATM   30  N2  UNL     1      17.219   9.282  -4.018  1.00  0.00    -0.300 N 
HETATM   31  C24 UNL     1      16.993  10.054  -1.933  1.00  0.00     0.016 A 
HETATM   32  N1  UNL     1      18.379   9.134  -3.397  1.00  0.00    -0.304 N 
ATOM     33  H2  UNL     1      17.014   9.021  -4.983  1.00  0.00     0.187 HD
HETATM   34  C2  UNL     1      18.281   9.593  -2.127  1.00  0.00     0.034 A 
ATOM     35  H1  UNL     1      19.220   8.735  -3.814  1.00  0.00     0.186 HD
HETATM   36  C1  UNL     1      19.355   9.609  -1.099  1.00  0.00     0.070 C 
HETATM   37  C23 UNL     1      16.327  10.618  -0.865  1.00  0.00     0.028 A 
ENDBRANCH   1  26
TORSDOF 7
ENDMDL
