MODEL 8
REMARK VINA RESULT: -9.753354001      3.963      9.381
REMARK  7 active torsions:
REMARK  status: ('A' for Active; 'I' for Inactive)
REMARK    1  A    between atoms: C6_10  and  C7_11 
REMARK    2  A    between atoms: C10_16  and  O1_17 
REMARK    3  A    between atoms: O1_17  and  C11_18 
REMARK    4  A    between atoms: C11_18  and  C12_19 
REMARK    5  A    between atoms: C12_19  and  N4_20 
REMARK    6  A    between atoms: C12_19  and  C13_24 
REMARK    7  A    between atoms: C13_24  and  C14_25 
ROOT
HETATM    1  C7  UNL     1      16.467   9.479   1.507  1.00  0.00    -0.008 A 
HETATM    2  C8  UNL     1      16.856   9.565   2.825  1.00  0.00     0.100 A 
HETATM    3  N3  UNL     1      15.968   9.529   3.852  1.00  0.00    -0.372 N 
ATOM      4  H3  UNL     1      16.299   9.595   4.814  1.00  0.00     0.164 HD
HETATM    5  C9  UNL     1      14.642   9.405   3.601  1.00  0.00     0.124 A 
HETATM    6  C10 UNL     1      14.191   9.316   2.309  1.00  0.00     0.085 A 
HETATM    7  C22 UNL     1      15.107   9.354   1.268  1.00  0.00     0.051 A 
ENDROOT
BRANCH   6   8
HETATM    8  O1  UNL     1      12.840   9.191   2.072  1.00  0.00    -0.348 OA
BRANCH   8   9
HETATM    9  C11 UNL     1      12.156   8.033   2.599  1.00  0.00     0.208 C 
BRANCH   9  10
HETATM   10  C12 UNL     1      10.735   8.139   2.173  1.00  0.00     0.212 C 
BRANCH  10  11
HETATM   11  N4  UNL     1       9.874   7.219   2.909  1.00  0.00    -0.073 N 
ATOM     12  H43 UNL     1      10.411   6.452   3.313  1.00  0.00     0.274 HD
ATOM     13  H42 UNL     1       9.528   7.643   3.770  1.00  0.00     0.274 HD
ATOM     14  H41 UNL     1       9.108   6.871   2.334  1.00  0.00     0.274 HD
ENDBRANCH  10  11
BRANCH  10  15
HETATM   15  C13 UNL     1      10.229   9.529   2.197  1.00  0.00     0.076 C 
BRANCH  15  16
HETATM   16  C14 UNL     1       9.544   9.976   3.410  1.00  0.00    -0.028 A 
HETATM   17  C15 UNL     1      10.163  10.332   4.616  1.00  0.00     0.096 A 
HETATM   18  N5  UNL     1       9.231  10.723   5.492  1.00  0.00    -0.365 N 
HETATM   19  C16 UNL     1       8.002  10.646   4.929  1.00  0.00     0.042 A 
ATOM     20  H5  UNL     1       9.419  11.034   6.445  1.00  0.00     0.165 HD
HETATM   21  C17 UNL     1       6.759  10.933   5.446  1.00  0.00     0.030 A 
HETATM   22  C21 UNL     1       8.208  10.179   3.635  1.00  0.00    -0.002 A 
HETATM   23  C18 UNL     1       5.634  10.764   4.679  1.00  0.00     0.002 A 
HETATM   24  C19 UNL     1       5.798  10.303   3.393  1.00  0.00     0.001 A 
HETATM   25  C20 UNL     1       7.051  10.017   2.884  1.00  0.00     0.014 A 
ENDBRANCH  15  16
ENDBRANCH  10  15
ENDBRANCH   9  10
ENDBRANCH   8   9
ENDBRANCH   6   8
BRANCH   1  26
HETATM   26  C6  UNL     1      17.473   9.526   0.458  1.00  0.00    -0.024 A 
HETATM   27  C5  UNL     1      18.805   9.700   0.767  1.00  0.00     0.014 A 
HETATM   28  C4  UNL     1      19.785   9.751  -0.219  1.00  0.00     0.033 A 
HETATM   29  C3  UNL     1      19.456   9.627  -1.551  1.00  0.00     0.060 A 
HETATM   30  N2  UNL     1      20.199   9.640  -2.685  1.00  0.00    -0.300 N 
HETATM   31  C24 UNL     1      18.125   9.451  -1.875  1.00  0.00     0.016 A 
HETATM   32  N1  UNL     1      19.371   9.479  -3.706  1.00  0.00    -0.304 N 
ATOM     33  H2  UNL     1      21.211   9.754  -2.742  1.00  0.00     0.187 HD
HETATM   34  C2  UNL     1      18.101   9.360  -3.253  1.00  0.00     0.034 A 
ATOM     35  H1  UNL     1      19.650   9.449  -4.687  1.00  0.00     0.186 HD
HETATM   36  C1  UNL     1      16.876   9.165  -4.072  1.00  0.00     0.070 C 
HETATM   37  C23 UNL     1      17.157   9.403  -0.893  1.00  0.00     0.028 A 
ENDBRANCH   1  26
TORSDOF 7
ENDMDL
