MODEL 12
REMARK VINA RESULT: -9.732047808      4.253      8.381
REMARK  7 active torsions:
REMARK  status: ('A' for Active; 'I' for Inactive)
REMARK    1  A    between atoms: C6_10  and  C7_11 
REMARK    2  A    between atoms: C10_16  and  O1_17 
REMARK    3  A    between atoms: O1_17  and  C11_18 
REMARK    4  A    between atoms: C11_18  and  C12_19 
REMARK    5  A    between atoms: C12_19  and  N4_20 
REMARK    6  A    between atoms: C12_19  and  C13_24 
REMARK    7  A    between atoms: C13_24  and  C14_25 
ROOT
HETATM    1  C7  UNL     1      15.334   8.153   2.310  1.00  0.00    -0.008 A 
HETATM    2  C8  UNL     1      14.742   6.962   1.954  1.00  0.00     0.100 A 
HETATM    3  N3  UNL     1      13.798   6.359   2.722  1.00  0.00    -0.372 N 
ATOM      4  H3  UNL     1      13.384   5.477   2.421  1.00  0.00     0.164 HD
HETATM    5  C9  UNL     1      13.405   6.927   3.888  1.00  0.00     0.124 A 
HETATM    6  C10 UNL     1      13.958   8.113   4.297  1.00  0.00     0.085 A 
HETATM    7  C22 UNL     1      14.921   8.720   3.506  1.00  0.00     0.051 A 
ENDROOT
BRANCH   6   8
HETATM    8  O1  UNL     1      13.547   8.676   5.485  1.00  0.00    -0.348 OA
BRANCH   8   9
HETATM    9  C11 UNL     1      13.021  10.021   5.461  1.00  0.00     0.208 C 
BRANCH   9  10
HETATM   10  C12 UNL     1      11.650   9.939   4.891  1.00  0.00     0.212 C 
BRANCH  10  11
HETATM   11  N4  UNL     1      10.625   9.972   5.928  1.00  0.00    -0.073 N 
ATOM     12  H43 UNL     1      10.239  10.909   6.040  1.00  0.00     0.274 HD
ATOM     13  H42 UNL     1       9.779   9.485   5.630  1.00  0.00     0.274 HD
ATOM     14  H41 UNL     1      10.968   9.605   6.816  1.00  0.00     0.274 HD
ENDBRANCH  10  11
BRANCH  10  15
HETATM   15  C13 UNL     1      11.408  10.937   3.825  1.00  0.00     0.076 C 
BRANCH  15  16
HETATM   16  C14 UNL     1      11.828  10.590   2.468  1.00  0.00    -0.028 A 
HETATM   17  C15 UNL     1      11.599   9.364   1.829  1.00  0.00     0.096 A 
HETATM   18  N5  UNL     1      12.090   9.415   0.585  1.00  0.00    -0.365 N 
HETATM   19  C16 UNL     1      12.645  10.628   0.355  1.00  0.00     0.042 A 
ATOM     20  H5  UNL     1      12.051   8.652  -0.090  1.00  0.00     0.165 HD
HETATM   21  C17 UNL     1      13.272  11.130  -0.764  1.00  0.00     0.030 A 
HETATM   22  C21 UNL     1      12.477  11.351   1.532  1.00  0.00    -0.002 A 
HETATM   23  C18 UNL     1      13.775  12.406  -0.761  1.00  0.00     0.002 A 
HETATM   24  C19 UNL     1      13.629  13.151   0.387  1.00  0.00     0.001 A 
HETATM   25  C20 UNL     1      12.998  12.638   1.504  1.00  0.00     0.014 A 
ENDBRANCH  15  16
ENDBRANCH  10  15
ENDBRANCH   9  10
ENDBRANCH   8   9
ENDBRANCH   6   8
BRANCH   1  26
HETATM   26  C6  UNL     1      16.340   8.742   1.439  1.00  0.00    -0.024 A 
HETATM   27  C5  UNL     1      17.589   9.067   1.926  1.00  0.00     0.014 A 
HETATM   28  C4  UNL     1      18.566   9.634   1.115  1.00  0.00     0.033 A 
HETATM   29  C3  UNL     1      18.320   9.890  -0.217  1.00  0.00     0.060 A 
HETATM   30  N2  UNL     1      19.079  10.423  -1.205  1.00  0.00    -0.300 N 
HETATM   31  C24 UNL     1      17.073   9.568  -0.717  1.00  0.00     0.016 A 
HETATM   32  N1  UNL     1      18.345  10.444  -2.306  1.00  0.00    -0.304 N 
ATOM     33  H2  UNL     1      20.042  10.749  -1.116  1.00  0.00     0.187 HD
HETATM   34  C2  UNL     1      17.118   9.932  -2.049  1.00  0.00     0.034 A 
ATOM     35  H1  UNL     1      18.657  10.794  -3.212  1.00  0.00     0.186 HD
HETATM   36  C1  UNL     1      15.996   9.775  -3.013  1.00  0.00     0.070 C 
HETATM   37  C23 UNL     1      16.107   9.008   0.092  1.00  0.00     0.028 A 
ENDBRANCH   1  26
TORSDOF 7
ENDMDL
