MODEL 7
REMARK VINA RESULT: -5.100352542      1.577      3.390
REMARK  4 active torsions:
REMARK  status: ('A' for Active; 'I' for Inactive)
REMARK    1  A    between atoms: O1_2  and  C2_3 
REMARK    2  A    between atoms: C5_7  and  O3_8 
REMARK    3  A    between atoms: C6_10  and  O4_11 
REMARK    4  A    between atoms: C7_13  and  O5_14 
ROOT
HETATM    1  C2  UNL     1     -40.357  20.417  11.394  1.00  0.00     0.290 C 
HETATM    2  O2  UNL     1     -40.794  21.284  12.358  1.00  0.00    -0.351 OA
HETATM    3  C3  UNL     1     -39.859  21.911  13.114  1.00  0.00     0.152 C 
HETATM    4  C4  UNL     1     -40.587  22.714  14.181  1.00  0.00     0.042 C 
HETATM    5  C5  UNL     1     -38.930  20.970  13.835  1.00  0.00     0.178 C 
HETATM    6  C6  UNL     1     -38.547  19.779  13.031  1.00  0.00     0.183 C 
HETATM    7  C7  UNL     1     -39.050  19.760  11.631  1.00  0.00     0.204 C 
ENDROOT
BRANCH   1   8
HETATM    8  O1  UNL     1     -40.500  21.008  10.164  1.00  0.00    -0.363 OA
HETATM    9  C1  UNL     1     -41.261  22.140  10.116  1.00  0.00     0.204 C 
ENDBRANCH   1   8
BRANCH   7  10
HETATM   10  O5  UNL     1     -38.032  20.282  10.794  1.00  0.00    -0.388 OA
ATOM     11  H5  UNL     1     -37.815  21.181  11.011  1.00  0.00     0.210 HD
ENDBRANCH   7  10
BRANCH   6  12
HETATM   12  O4  UNL     1     -38.922  18.621  13.748  1.00  0.00    -0.390 OA
ATOM     13  H4  UNL     1     -39.784  18.353  13.450  1.00  0.00     0.210 HD
ENDBRANCH   6  12
BRANCH   5  14
HETATM   14  O3  UNL     1     -39.578  20.594  15.034  1.00  0.00    -0.390 OA
ATOM     15  H3  UNL     1     -39.259  19.728  15.259  1.00  0.00     0.210 HD
ENDBRANCH   5  14
TORSDOF 4
ENDMDL
