MODEL 14
REMARK VINA RESULT: -5.649701069      3.884      4.703
REMARK  9 active torsions:
REMARK  status: ('A' for Active; 'I' for Inactive)
REMARK    1  A    between atoms: C2_2  and  C3_3 
REMARK    2  A    between atoms: C3_3  and  N1_4 
REMARK    3  A    between atoms: C5_8  and  C6_9 
REMARK    4  A    between atoms: C6_9  and  C7_10 
REMARK    5  A    between atoms: C7_10  and  C8_11 
REMARK    6  A    between atoms: C7_10  and  C11_18 
REMARK    7  A    between atoms: C8_11  and  C9_12 
REMARK    8  A    between atoms: C9_12  and  C10_13 
REMARK    9  A    between atoms: C10_13  and  N3_14 
ROOT
HETATM    1  C7  UNL     1      80.758  20.344   1.072  1.00  0.00     0.092 C 
ENDROOT
BRANCH   1   2
HETATM    2  C6  UNL     1      81.557  21.641   1.027  1.00  0.00     0.074 C 
BRANCH   2   3
HETATM    3  C5  UNL     1      82.973  21.430   0.711  1.00  0.00     0.026 A 
HETATM    4  N2  UNL     1      83.777  21.960  -0.227  1.00  0.00    -0.354 N 
HETATM    5  C4  UNL     1      85.004  21.445  -0.110  1.00  0.00     0.183 A 
ATOM      6  H2  UNL     1      83.493  22.650  -0.922  1.00  0.00     0.166 HD
HETATM    7  N1  UNL     1      85.023  20.571   0.908  1.00  0.00    -0.351 N 
HETATM    8  C12 UNL     1      83.783  20.549   1.424  1.00  0.00     0.116 A 
BRANCH   7   9
HETATM    9  C3  UNL     1      86.139  19.771   1.402  1.00  0.00     0.129 C 
BRANCH   9  10
HETATM   10  C2  UNL     1      87.448  20.473   1.109  1.00  0.00     0.016 C 
HETATM   11  C1  UNL     1      88.436  20.092   2.184  1.00  0.00     0.006 C 
ENDBRANCH   9  10
ENDBRANCH   7   9
ENDBRANCH   2   3
ENDBRANCH   1   2
BRANCH   1  12
HETATM   12  C8  UNL     1      80.841  19.748  -0.306  1.00  0.00     0.017 C 
BRANCH  12  13
HETATM   13  C9  UNL     1      81.234  18.294  -0.323  1.00  0.00     0.028 C 
BRANCH  13  14
HETATM   14  C10 UNL     1      80.345  17.629  -1.379  1.00  0.00     0.229 C 
BRANCH  14  15
HETATM   15  N3  UNL     1      78.945  17.879  -1.099  1.00  0.00    -0.079 N 
ATOM     16  H33 UNL     1      78.818  18.705  -0.514  1.00  0.00     0.274 HD
ATOM     17  H32 UNL     1      78.445  18.202  -1.927  1.00  0.00     0.274 HD
ATOM     18  H31 UNL     1      78.507  17.054  -0.690  1.00  0.00     0.274 HD
ENDBRANCH  14  15
ENDBRANCH  13  14
ENDBRANCH  12  13
ENDBRANCH   1  12
BRANCH   1  19
HETATM   19  C11 UNL     1      79.374  20.701   1.470  1.00  0.00     0.177 C 
HETATM   20  O1  UNL     1      78.401  20.086   0.939  1.00  0.00    -0.648 OA
HETATM   21  O2  UNL     1      79.102  21.686   2.405  1.00  0.00    -0.648 OA
ENDBRANCH   1  19
TORSDOF 9
ENDMDL
