MODEL 6
REMARK VINA RESULT: -5.856539727      1.385      1.869
REMARK  9 active torsions:
REMARK  status: ('A' for Active; 'I' for Inactive)
REMARK    1  A    between atoms: C2_2  and  C3_3 
REMARK    2  A    between atoms: C3_3  and  N1_4 
REMARK    3  A    between atoms: C5_8  and  C6_9 
REMARK    4  A    between atoms: C6_9  and  C7_10 
REMARK    5  A    between atoms: C7_10  and  C8_11 
REMARK    6  A    between atoms: C7_10  and  C11_18 
REMARK    7  A    between atoms: C8_11  and  C9_12 
REMARK    8  A    between atoms: C9_12  and  C10_13 
REMARK    9  A    between atoms: C10_13  and  N3_14 
ROOT
HETATM    1  C7  UNL     1      80.554  20.891   1.377  1.00  0.00     0.092 C 
ENDROOT
BRANCH   1   2
HETATM    2  C6  UNL     1      79.718  22.102   1.769  1.00  0.00     0.074 C 
BRANCH   2   3
HETATM    3  C5  UNL     1      80.492  23.346   1.806  1.00  0.00     0.026 A 
HETATM    4  N2  UNL     1      80.181  24.591   2.206  1.00  0.00    -0.354 N 
HETATM    5  C4  UNL     1      81.238  25.392   2.043  1.00  0.00     0.183 A 
ATOM      6  H2  UNL     1      79.276  24.881   2.577  1.00  0.00     0.166 HD
HETATM    7  N1  UNL     1      82.257  24.684   1.535  1.00  0.00    -0.351 N 
HETATM    8  C12 UNL     1      81.817  23.424   1.382  1.00  0.00     0.116 A 
BRANCH   7   9
HETATM    9  C3  UNL     1      83.602  25.137   1.193  1.00  0.00     0.129 C 
BRANCH   9  10
HETATM   10  C2  UNL     1      84.231  24.186   0.198  1.00  0.00     0.016 C 
HETATM   11  C1  UNL     1      84.266  24.869  -1.147  1.00  0.00     0.006 C 
ENDBRANCH   9  10
ENDBRANCH   7   9
ENDBRANCH   2   3
ENDBRANCH   1   2
BRANCH   1  12
HETATM   12  C8  UNL     1      79.723  20.099   0.406  1.00  0.00     0.017 C 
BRANCH  12  13
HETATM   13  C9  UNL     1      80.523  19.412  -0.669  1.00  0.00     0.028 C 
BRANCH  13  14
HETATM   14  C10 UNL     1      79.671  18.225  -1.134  1.00  0.00     0.229 C 
BRANCH  14  15
HETATM   15  N3  UNL     1      80.343  17.497  -2.191  1.00  0.00    -0.079 N 
ATOM     16  H33 UNL     1      80.976  18.097  -2.720  1.00  0.00     0.274 HD
ATOM     17  H32 UNL     1      81.029  16.840  -1.821  1.00  0.00     0.274 HD
ATOM     18  H31 UNL     1      79.665  17.035  -2.797  1.00  0.00     0.274 HD
ENDBRANCH  14  15
ENDBRANCH  13  14
ENDBRANCH  12  13
ENDBRANCH   1  12
BRANCH   1  19
HETATM   19  C11 UNL     1      80.857  20.149   2.625  1.00  0.00     0.177 C 
HETATM   20  O1  UNL     1      80.274  19.046   2.845  1.00  0.00    -0.648 OA
HETATM   21  O2  UNL     1      81.758  20.620   3.567  1.00  0.00    -0.648 OA
ENDBRANCH   1  19
TORSDOF 9
ENDMDL
