MODEL 5
REMARK VINA RESULT: -5.911234175      1.752      2.284
REMARK  9 active torsions:
REMARK  status: ('A' for Active; 'I' for Inactive)
REMARK    1  A    between atoms: C2_2  and  C3_3 
REMARK    2  A    between atoms: C3_3  and  N1_4 
REMARK    3  A    between atoms: C5_8  and  C6_9 
REMARK    4  A    between atoms: C6_9  and  C7_10 
REMARK    5  A    between atoms: C7_10  and  C8_11 
REMARK    6  A    between atoms: C7_10  and  C11_18 
REMARK    7  A    between atoms: C8_11  and  C9_12 
REMARK    8  A    between atoms: C9_12  and  C10_13 
REMARK    9  A    between atoms: C10_13  and  N3_14 
ROOT
HETATM    1  C7  UNL     1      81.157  19.878   0.709  1.00  0.00     0.092 C 
ENDROOT
BRANCH   1   2
HETATM    2  C6  UNL     1      80.546  20.270   2.048  1.00  0.00     0.074 C 
BRANCH   2   3
HETATM    3  C5  UNL     1      80.305  21.711   2.169  1.00  0.00     0.026 A 
HETATM    4  N2  UNL     1      79.504  22.551   1.491  1.00  0.00    -0.354 N 
HETATM    5  C4  UNL     1      79.635  23.788   1.979  1.00  0.00     0.183 A 
ATOM      6  H2  UNL     1      78.889  22.285   0.722  1.00  0.00     0.166 HD
HETATM    7  N1  UNL     1      80.524  23.777   2.984  1.00  0.00    -0.351 N 
HETATM    8  C12 UNL     1      80.946  22.508   3.114  1.00  0.00     0.116 A 
BRANCH   7   9
HETATM    9  C3  UNL     1      80.982  24.890   3.809  1.00  0.00     0.129 C 
BRANCH   9  10
HETATM   10  C2  UNL     1      82.208  25.523   3.187  1.00  0.00     0.016 C 
HETATM   11  C1  UNL     1      81.843  26.920   2.748  1.00  0.00     0.006 C 
ENDBRANCH   9  10
ENDBRANCH   7   9
ENDBRANCH   2   3
ENDBRANCH   1   2
BRANCH   1  12
HETATM   12  C8  UNL     1      81.096  18.378   0.639  1.00  0.00     0.017 C 
BRANCH  12  13
HETATM   13  C9  UNL     1      81.134  17.827  -0.762  1.00  0.00     0.028 C 
BRANCH  13  14
HETATM   14  C10 UNL     1      79.851  18.318  -1.443  1.00  0.00     0.229 C 
BRANCH  14  15
HETATM   15  N3  UNL     1      78.712  17.532  -1.014  1.00  0.00    -0.079 N 
ATOM     16  H33 UNL     1      78.252  17.944  -0.203  1.00  0.00     0.274 HD
ATOM     17  H32 UNL     1      77.939  17.594  -1.676  1.00  0.00     0.274 HD
ATOM     18  H31 UNL     1      78.987  16.564  -0.843  1.00  0.00     0.274 HD
ENDBRANCH  14  15
ENDBRANCH  13  14
ENDBRANCH  12  13
ENDBRANCH   1  12
BRANCH   1  19
HETATM   19  C11 UNL     1      82.543  20.407   0.692  1.00  0.00     0.177 C 
HETATM   20  O1  UNL     1      82.884  21.219  -0.219  1.00  0.00    -0.648 OA
HETATM   21  O2  UNL     1      83.487  20.043   1.640  1.00  0.00    -0.648 OA
ENDBRANCH   1  19
TORSDOF 9
ENDMDL
