MODEL 2
REMARK VINA RESULT: -6.280521747      1.399      1.840
REMARK  9 active torsions:
REMARK  status: ('A' for Active; 'I' for Inactive)
REMARK    1  A    between atoms: C2_2  and  C3_3 
REMARK    2  A    between atoms: C3_3  and  N1_4 
REMARK    3  A    between atoms: C5_8  and  C6_9 
REMARK    4  A    between atoms: C6_9  and  C7_10 
REMARK    5  A    between atoms: C7_10  and  C8_11 
REMARK    6  A    between atoms: C7_10  and  C11_18 
REMARK    7  A    between atoms: C8_11  and  C9_12 
REMARK    8  A    between atoms: C9_12  and  C10_13 
REMARK    9  A    between atoms: C10_13  and  N3_14 
ROOT
HETATM    1  C7  UNL     1      80.466  19.852   0.383  1.00  0.00     0.092 C 
ENDROOT
BRANCH   1   2
HETATM    2  C6  UNL     1      79.704  20.918   1.160  1.00  0.00     0.074 C 
BRANCH   2   3
HETATM    3  C5  UNL     1      80.538  22.069   1.523  1.00  0.00     0.026 A 
HETATM    4  N2  UNL     1      81.708  22.522   1.042  1.00  0.00    -0.354 N 
HETATM    5  C4  UNL     1      82.071  23.622   1.709  1.00  0.00     0.183 A 
ATOM      6  H2  UNL     1      82.238  22.093   0.284  1.00  0.00     0.166 HD
HETATM    7  N1  UNL     1      81.144  23.905   2.636  1.00  0.00    -0.351 N 
HETATM    8  C12 UNL     1      80.194  22.961   2.536  1.00  0.00     0.116 A 
BRANCH   7   9
HETATM    9  C3  UNL     1      81.118  25.007   3.593  1.00  0.00     0.129 C 
BRANCH   9  10
HETATM   10  C2  UNL     1      82.356  25.862   3.430  1.00  0.00     0.016 C 
HETATM   11  C1  UNL     1      81.961  27.128   2.711  1.00  0.00     0.006 C 
ENDBRANCH   9  10
ENDBRANCH   7   9
ENDBRANCH   2   3
ENDBRANCH   1   2
BRANCH   1  12
HETATM   12  C8  UNL     1      79.433  19.044  -0.351  1.00  0.00     0.017 C 
BRANCH  12  13
HETATM   13  C9  UNL     1      79.858  18.608  -1.728  1.00  0.00     0.028 C 
BRANCH  13  14
HETATM   14  C10 UNL     1      80.433  17.196  -1.565  1.00  0.00     0.229 C 
BRANCH  14  15
HETATM   15  N3  UNL     1      79.644  16.430  -0.621  1.00  0.00    -0.079 N 
ATOM     16  H33 UNL     1      79.838  16.701   0.343  1.00  0.00     0.274 HD
ATOM     17  H32 UNL     1      78.657  16.687  -0.655  1.00  0.00     0.274 HD
ATOM     18  H31 UNL     1      79.780  15.429  -0.767  1.00  0.00     0.274 HD
ENDBRANCH  14  15
ENDBRANCH  13  14
ENDBRANCH  12  13
ENDBRANCH   1  12
BRANCH   1  19
HETATM   19  C11 UNL     1      81.234  19.058   1.373  1.00  0.00     0.177 C 
HETATM   20  O1  UNL     1      80.753  17.962   1.791  1.00  0.00    -0.648 OA
HETATM   21  O2  UNL     1      82.462  19.470   1.863  1.00  0.00    -0.648 OA
ENDBRANCH   1  19
TORSDOF 9
ENDMDL
