MODEL 1
REMARK VINA RESULT: -6.343413190      0.000      0.000
REMARK  9 active torsions:
REMARK  status: ('A' for Active; 'I' for Inactive)
REMARK    1  A    between atoms: C2_2  and  C3_3 
REMARK    2  A    between atoms: C3_3  and  N1_4 
REMARK    3  A    between atoms: C5_8  and  C6_9 
REMARK    4  A    between atoms: C6_9  and  C7_10 
REMARK    5  A    between atoms: C7_10  and  C8_11 
REMARK    6  A    between atoms: C7_10  and  C11_18 
REMARK    7  A    between atoms: C8_11  and  C9_12 
REMARK    8  A    between atoms: C9_12  and  C10_13 
REMARK    9  A    between atoms: C10_13  and  N3_14 
ROOT
HETATM    1  C7  UNL     1      80.426  20.912   1.369  1.00  0.00     0.092 C 
ENDROOT
BRANCH   1   2
HETATM    2  C6  UNL     1      79.495  22.039   1.797  1.00  0.00     0.074 C 
BRANCH   2   3
HETATM    3  C5  UNL     1      80.209  23.188   2.364  1.00  0.00     0.026 A 
HETATM    4  N2  UNL     1      80.237  23.712   3.601  1.00  0.00    -0.354 N 
HETATM    5  C4  UNL     1      81.049  24.772   3.622  1.00  0.00     0.183 A 
ATOM      6  H2  UNL     1      79.717  23.354   4.403  1.00  0.00     0.166 HD
HETATM    7  N1  UNL     1      81.567  24.958   2.398  1.00  0.00    -0.351 N 
HETATM    8  C12 UNL     1      81.061  23.993   1.612  1.00  0.00     0.116 A 
BRANCH   7   9
HETATM    9  C3  UNL     1      82.499  25.987   1.949  1.00  0.00     0.129 C 
BRANCH   9  10
HETATM   10  C2  UNL     1      82.375  27.215   2.826  1.00  0.00     0.016 C 
HETATM   11  C1  UNL     1      83.677  27.395   3.569  1.00  0.00     0.006 C 
ENDBRANCH   9  10
ENDBRANCH   7   9
ENDBRANCH   2   3
ENDBRANCH   1   2
BRANCH   1  12
HETATM   12  C8  UNL     1      79.649  20.067   0.399  1.00  0.00     0.017 C 
BRANCH  12  13
HETATM   13  C9  UNL     1      80.499  19.389  -0.644  1.00  0.00     0.028 C 
BRANCH  13  14
HETATM   14  C10 UNL     1      79.667  18.211  -1.165  1.00  0.00     0.229 C 
BRANCH  14  15
HETATM   15  N3  UNL     1      80.374  17.514  -2.220  1.00  0.00    -0.079 N 
ATOM     16  H33 UNL     1      81.378  17.480  -2.044  1.00  0.00     0.274 HD
ATOM     17  H32 UNL     1      80.184  16.512  -2.205  1.00  0.00     0.274 HD
ATOM     18  H31 UNL     1      80.163  17.926  -3.128  1.00  0.00     0.274 HD
ENDBRANCH  14  15
ENDBRANCH  13  14
ENDBRANCH  12  13
ENDBRANCH   1  12
BRANCH   1  19
HETATM   19  C11 UNL     1      80.816  20.179   2.598  1.00  0.00     0.177 C 
HETATM   20  O1  UNL     1      80.291  19.051   2.838  1.00  0.00    -0.648 OA
HETATM   21  O2  UNL     1      81.736  20.685   3.502  1.00  0.00    -0.648 OA
ENDBRANCH   1  19
TORSDOF 9
ENDMDL
