MODEL 18
REMARK VINA RESULT: -5.574073226      3.769      5.113
REMARK  9 active torsions:
REMARK  status: ('A' for Active; 'I' for Inactive)
REMARK    1  A    between atoms: C2_2  and  C3_3 
REMARK    2  A    between atoms: C3_3  and  N1_4 
REMARK    3  A    between atoms: C5_8  and  C6_9 
REMARK    4  A    between atoms: C6_9  and  C7_10 
REMARK    5  A    between atoms: C7_10  and  C8_11 
REMARK    6  A    between atoms: C7_10  and  C11_18 
REMARK    7  A    between atoms: C8_11  and  C9_12 
REMARK    8  A    between atoms: C9_12  and  C10_13 
REMARK    9  A    between atoms: C10_13  and  N3_14 
ROOT
HETATM    1  C7  UNL     1      80.036  19.749  -0.333  1.00  0.00     0.092 C 
ENDROOT
BRANCH   1   2
HETATM    2  C6  UNL     1      81.251  19.484   0.546  1.00  0.00     0.074 C 
BRANCH   2   3
HETATM    3  C5  UNL     1      82.367  20.395   0.272  1.00  0.00     0.026 A 
HETATM    4  N2  UNL     1      82.512  21.405  -0.603  1.00  0.00    -0.354 N 
HETATM    5  C4  UNL     1      83.729  21.942  -0.471  1.00  0.00     0.183 A 
ATOM      6  H2  UNL     1      81.803  21.714  -1.267  1.00  0.00     0.166 HD
HETATM    7  N1  UNL     1      84.398  21.292   0.494  1.00  0.00    -0.351 N 
HETATM    8  C12 UNL     1      83.576  20.338   0.962  1.00  0.00     0.116 A 
BRANCH   7   9
HETATM    9  C3  UNL     1      85.752  21.529   0.983  1.00  0.00     0.129 C 
BRANCH   9  10
HETATM   10  C2  UNL     1      86.760  21.124  -0.072  1.00  0.00     0.016 C 
HETATM   11  C1  UNL     1      87.521  22.358  -0.492  1.00  0.00     0.006 C 
ENDBRANCH   9  10
ENDBRANCH   7   9
ENDBRANCH   2   3
ENDBRANCH   1   2
BRANCH   1  12
HETATM   12  C8  UNL     1      78.990  20.355   0.561  1.00  0.00     0.017 C 
BRANCH  12  13
HETATM   13  C9  UNL     1      79.538  20.949   1.831  1.00  0.00     0.028 C 
BRANCH  13  14
HETATM   14  C10 UNL     1      79.324  22.463   1.714  1.00  0.00     0.229 C 
BRANCH  14  15
HETATM   15  N3  UNL     1      80.593  23.149   1.578  1.00  0.00    -0.079 N 
ATOM     16  H33 UNL     1      80.477  24.162   1.572  1.00  0.00     0.274 HD
ATOM     17  H32 UNL     1      81.161  23.066   2.421  1.00  0.00     0.274 HD
ATOM     18  H31 UNL     1      81.093  22.820   0.751  1.00  0.00     0.274 HD
ENDBRANCH  14  15
ENDBRANCH  13  14
ENDBRANCH  12  13
ENDBRANCH   1  12
BRANCH   1  19
HETATM   19  C11 UNL     1      79.625  18.445  -0.910  1.00  0.00     0.177 C 
HETATM   20  O1  UNL     1      78.506  17.949  -0.580  1.00  0.00    -0.648 OA
HETATM   21  O2  UNL     1      80.422  17.743  -1.800  1.00  0.00    -0.648 OA
ENDBRANCH   1  19
TORSDOF 9
ENDMDL
