MODEL 17
REMARK VINA RESULT: -5.592632144      2.337      6.449
REMARK  9 active torsions:
REMARK  status: ('A' for Active; 'I' for Inactive)
REMARK    1  A    between atoms: C2_2  and  C3_3 
REMARK    2  A    between atoms: C3_3  and  N1_4 
REMARK    3  A    between atoms: C5_8  and  C6_9 
REMARK    4  A    between atoms: C6_9  and  C7_10 
REMARK    5  A    between atoms: C7_10  and  C8_11 
REMARK    6  A    between atoms: C7_10  and  C11_18 
REMARK    7  A    between atoms: C8_11  and  C9_12 
REMARK    8  A    between atoms: C9_12  and  C10_13 
REMARK    9  A    between atoms: C10_13  and  N3_14 
ROOT
HETATM    1  C7  UNL     1      81.689  23.062   2.230  1.00  0.00     0.092 C 
ENDROOT
BRANCH   1   2
HETATM    2  C6  UNL     1      81.803  21.543   2.186  1.00  0.00     0.074 C 
BRANCH   2   3
HETATM    3  C5  UNL     1      80.741  20.911   1.398  1.00  0.00     0.026 A 
HETATM    4  N2  UNL     1      79.402  21.029   1.430  1.00  0.00    -0.354 N 
HETATM    5  C4  UNL     1      78.859  20.237   0.501  1.00  0.00     0.183 A 
ATOM      6  H2  UNL     1      78.880  21.631   2.066  1.00  0.00     0.166 HD
HETATM    7  N1  UNL     1      79.834  19.588  -0.154  1.00  0.00    -0.351 N 
HETATM    8  C12 UNL     1      80.997  19.991   0.384  1.00  0.00     0.116 A 
BRANCH   7   9
HETATM    9  C3  UNL     1      79.716  18.625  -1.243  1.00  0.00     0.129 C 
BRANCH   9  10
HETATM   10  C2  UNL     1      80.911  17.696  -1.243  1.00  0.00     0.016 C 
HETATM   11  C1  UNL     1      80.498  16.399  -0.591  1.00  0.00     0.006 C 
ENDBRANCH   9  10
ENDBRANCH   7   9
ENDBRANCH   2   3
ENDBRANCH   1   2
BRANCH   1  12
HETATM   12  C8  UNL     1      83.073  23.598   1.996  1.00  0.00     0.017 C 
BRANCH  12  13
HETATM   13  C9  UNL     1      83.391  23.869   0.549  1.00  0.00     0.028 C 
BRANCH  13  14
HETATM   14  C10 UNL     1      83.692  25.369   0.458  1.00  0.00     0.229 C 
BRANCH  14  15
HETATM   15  N3  UNL     1      82.467  26.141   0.520  1.00  0.00    -0.079 N 
ATOM     16  H33 UNL     1      81.649  25.569   0.313  1.00  0.00     0.274 HD
ATOM     17  H32 UNL     1      82.232  26.401   1.478  1.00  0.00     0.274 HD
ATOM     18  H31 UNL     1      82.524  26.956  -0.090  1.00  0.00     0.274 HD
ENDBRANCH  14  15
ENDBRANCH  13  14
ENDBRANCH  12  13
ENDBRANCH   1  12
BRANCH   1  19
HETATM   19  C11 UNL     1      81.143  23.417   3.563  1.00  0.00     0.177 C 
HETATM   20  O1  UNL     1      80.055  22.892   3.945  1.00  0.00    -0.648 OA
HETATM   21  O2  UNL     1      81.780  24.308   4.411  1.00  0.00    -0.648 OA
ENDBRANCH   1  19
TORSDOF 9
ENDMDL
