MODEL 3
REMARK VINA RESULT: -6.241286889      0.974      1.246
REMARK  9 active torsions:
REMARK  status: ('A' for Active; 'I' for Inactive)
REMARK    1  A    between atoms: C2_2  and  C3_3 
REMARK    2  A    between atoms: C3_3  and  N1_4 
REMARK    3  A    between atoms: C5_8  and  C6_9 
REMARK    4  A    between atoms: C6_9  and  C7_10 
REMARK    5  A    between atoms: C7_10  and  C8_11 
REMARK    6  A    between atoms: C7_10  and  C11_18 
REMARK    7  A    between atoms: C8_11  and  C9_12 
REMARK    8  A    between atoms: C9_12  and  C10_13 
REMARK    9  A    between atoms: C10_13  and  N3_14 
ROOT
HETATM    1  C7  UNL     1      80.562  20.664   1.040  1.00  0.00     0.092 C 
ENDROOT
BRANCH   1   2
HETATM    2  C6  UNL     1      79.945  21.859   1.755  1.00  0.00     0.074 C 
BRANCH   2   3
HETATM    3  C5  UNL     1      80.797  23.052   1.719  1.00  0.00     0.026 A 
HETATM    4  N2  UNL     1      81.913  23.343   1.029  1.00  0.00    -0.354 N 
HETATM    5  C4  UNL     1      82.326  24.574   1.341  1.00  0.00     0.183 A 
ATOM      6  H2  UNL     1      82.374  22.719   0.366  1.00  0.00     0.166 HD
HETATM    7  N1  UNL     1      81.487  25.109   2.241  1.00  0.00    -0.351 N 
HETATM    8  C12 UNL     1      80.541  24.187   2.486  1.00  0.00     0.116 A 
BRANCH   7   9
HETATM    9  C3  UNL     1      81.539  26.426   2.868  1.00  0.00     0.129 C 
BRANCH   9  10
HETATM   10  C2  UNL     1      82.645  27.251   2.244  1.00  0.00     0.016 C 
HETATM   11  C1  UNL     1      83.740  27.419   3.268  1.00  0.00     0.006 C 
ENDBRANCH   9  10
ENDBRANCH   7   9
ENDBRANCH   2   3
ENDBRANCH   1   2
BRANCH   1  12
HETATM   12  C8  UNL     1      79.443  19.996   0.290  1.00  0.00     0.017 C 
BRANCH  12  13
HETATM   13  C9  UNL     1      79.851  19.429  -1.044  1.00  0.00     0.028 C 
BRANCH  13  14
HETATM   14  C10 UNL     1      79.607  17.918  -0.952  1.00  0.00     0.229 C 
BRANCH  14  15
HETATM   15  N3  UNL     1      80.328  17.220  -1.998  1.00  0.00    -0.079 N 
ATOM     16  H33 UNL     1      79.888  17.347  -2.909  1.00  0.00     0.274 HD
ATOM     17  H32 UNL     1      81.225  17.661  -2.199  1.00  0.00     0.274 HD
ATOM     18  H31 UNL     1      80.435  16.233  -1.763  1.00  0.00     0.274 HD
ENDBRANCH  14  15
ENDBRANCH  13  14
ENDBRANCH  12  13
ENDBRANCH   1  12
BRANCH   1  19
HETATM   19  C11 UNL     1      81.165  19.798   2.082  1.00  0.00     0.177 C 
HETATM   20  O1  UNL     1      81.652  18.677   1.747  1.00  0.00    -0.648 OA
HETATM   21  O2  UNL     1      81.215  20.168   3.416  1.00  0.00    -0.648 OA
ENDBRANCH   1  19
TORSDOF 9
ENDMDL
