MODEL 2
REMARK VINA RESULT: -9.607905319      1.087      6.442
REMARK  12 active torsions:
REMARK  status: ('A' for Active; 'I' for Inactive)
REMARK    1  A    between atoms: O1_1  and  C1_3 
REMARK    2  A    between atoms: C1_3  and  C2_4 
REMARK    3  A    between atoms: C4_6  and  N1_7 
REMARK    4  A    between atoms: N1_7  and  C5_10 
REMARK    5  A    between atoms: C7_12  and  C8_13 
REMARK    6  A    between atoms: C8_13  and  O2_14 
REMARK    7  A    between atoms: C9_16  and  O3_17 
REMARK    8  A    between atoms: C10_19  and  O4_20 
REMARK    9  A    between atoms: C11_22  and  O5_23 
REMARK   10  A    between atoms: C12_25  and  O6_26 
REMARK   11  A    between atoms: C13_28  and  O7_29 
REMARK   12  A    between atoms: C14_31  and  O8_32 
ROOT
HETATM    1  N1  UNL     1      30.615  52.582   9.637  1.00  0.00    -0.058 N 
ATOM      2  H11 UNL     1      29.825  52.566   8.991  1.00  0.00     0.278 HD
ATOM      3  H12 UNL     1      30.884  53.561   9.531  1.00  0.00     0.278 HD
ENDROOT
BRANCH   1   4
HETATM    4  C4  UNL     1      31.675  51.689   9.207  1.00  0.00     0.240 C 
HETATM    5  C3  UNL     1      31.153  50.555   8.411  1.00  0.00     0.016 C 
HETATM    6  C2  UNL     1      31.227  50.462   7.105  1.00  0.00    -0.027 C 
HETATM    7  C14 UNL     1      31.882  51.579   6.364  1.00  0.00     0.180 C 
HETATM    8  C13 UNL     1      33.123  51.951   7.166  1.00  0.00     0.182 C 
HETATM    9  C12 UNL     1      32.792  52.430   8.543  1.00  0.00     0.184 C 
BRANCH   6  10
HETATM   10  C1  UNL     1      30.702  49.322   6.303  1.00  0.00     0.201 C 
BRANCH  10  11
HETATM   11  O1  UNL     1      30.222  49.829   5.103  1.00  0.00    -0.397 OA
ATOM     12  H1  UNL     1      29.339  49.501   4.980  1.00  0.00     0.209 HD
ENDBRANCH  10  11
ENDBRANCH   6  10
BRANCH   7  13
HETATM   13  O8  UNL     1      31.047  52.698   6.374  1.00  0.00    -0.388 OA
ATOM     14  H8  UNL     1      31.486  53.425   5.948  1.00  0.00     0.210 HD
ENDBRANCH   7  13
BRANCH   8  15
HETATM   15  O7  UNL     1      34.055  50.912   7.170  1.00  0.00    -0.390 OA
ATOM     16  H7  UNL     1      34.688  50.987   6.466  1.00  0.00     0.210 HD
ENDBRANCH   8  15
BRANCH   9  17
HETATM   17  O6  UNL     1      32.427  53.786   8.432  1.00  0.00    -0.390 OA
ATOM     18  H6  UNL     1      32.602  54.074   7.545  1.00  0.00     0.210 HD
ENDBRANCH   9  17
ENDBRANCH   1   4
BRANCH   1  19
HETATM   19  C5  UNL     1      30.195  52.281  11.016  1.00  0.00     0.218 C 
HETATM   20  C6  UNL     1      31.406  52.380  11.875  1.00  0.00     0.045 C 
HETATM   21  C7  UNL     1      30.990  52.164  13.303  1.00  0.00     0.043 C 
HETATM   22  C9  UNL     1      30.082  53.259  13.717  1.00  0.00     0.155 C 
HETATM   23  C10 UNL     1      28.942  53.543  12.810  1.00  0.00     0.178 C 
HETATM   24  C11 UNL     1      29.065  53.163  11.401  1.00  0.00     0.180 C 
BRANCH  21  25
HETATM   25  C8  UNL     1      30.313  50.838  13.524  1.00  0.00     0.171 C 
BRANCH  25  26
HETATM   26  O2  UNL     1      29.579  50.832  14.728  1.00  0.00    -0.400 OA
ATOM     27  H2  UNL     1      29.846  50.115  15.291  1.00  0.00     0.209 HD
ENDBRANCH  25  26
ENDBRANCH  21  25
BRANCH  22  28
HETATM   28  O3  UNL     1      30.871  54.417  13.911  1.00  0.00    -0.392 OA
ATOM     29  H3  UNL     1      31.765  54.198  13.671  1.00  0.00     0.210 HD
ENDBRANCH  22  28
BRANCH  23  30
HETATM   30  O4  UNL     1      27.776  52.974  13.365  1.00  0.00    -0.390 OA
ATOM     31  H4  UNL     1      27.046  53.560  13.200  1.00  0.00     0.210 HD
ENDBRANCH  23  30
BRANCH  24  32
HETATM   32  O5  UNL     1      29.129  54.311  10.572  1.00  0.00    -0.391 OA
ATOM     33  H5  UNL     1      29.901  54.800  10.832  1.00  0.00     0.210 HD
ENDBRANCH  24  32
ENDBRANCH   1  19
TORSDOF 12
ENDMDL
