MODEL 6
REMARK VINA RESULT: -8.618404257      1.423      6.413
REMARK  12 active torsions:
REMARK  status: ('A' for Active; 'I' for Inactive)
REMARK    1  A    between atoms: O1_1  and  C1_3 
REMARK    2  A    between atoms: C1_3  and  C2_4 
REMARK    3  A    between atoms: C4_6  and  N1_7 
REMARK    4  A    between atoms: N1_7  and  C5_10 
REMARK    5  A    between atoms: C7_12  and  C8_13 
REMARK    6  A    between atoms: C8_13  and  O2_14 
REMARK    7  A    between atoms: C9_16  and  O3_17 
REMARK    8  A    between atoms: C10_19  and  O4_20 
REMARK    9  A    between atoms: C11_22  and  O5_23 
REMARK   10  A    between atoms: C12_25  and  O6_26 
REMARK   11  A    between atoms: C13_28  and  O7_29 
REMARK   12  A    between atoms: C14_31  and  O8_32 
ROOT
HETATM    1  N1  UNL     1      30.970  52.904   9.503  1.00  0.00    -0.058 N 
ATOM      2  H11 UNL     1      30.599  53.476   8.744  1.00  0.00     0.278 HD
ATOM      3  H12 UNL     1      31.925  53.262   9.516  1.00  0.00     0.278 HD
ENDROOT
BRANCH   1   4
HETATM    4  C4  UNL     1      30.934  51.491   9.173  1.00  0.00     0.240 C 
HETATM    5  C3  UNL     1      29.905  51.186   8.154  1.00  0.00     0.016 C 
HETATM    6  C2  UNL     1      30.152  50.966   6.885  1.00  0.00    -0.027 C 
HETATM    7  C14 UNL     1      31.572  51.025   6.432  1.00  0.00     0.180 C 
HETATM    8  C13 UNL     1      32.388  50.304   7.498  1.00  0.00     0.182 C 
HETATM    9  C12 UNL     1      32.293  50.965   8.835  1.00  0.00     0.184 C 
BRANCH   6  10
HETATM   10  C1  UNL     1      29.117  50.660   5.859  1.00  0.00     0.201 C 
BRANCH  10  11
HETATM   11  O1  UNL     1      29.479  49.478   5.226  1.00  0.00    -0.397 OA
ATOM     12  H1  UNL     1      29.549  49.655   4.295  1.00  0.00     0.209 HD
ENDBRANCH  10  11
ENDBRANCH   6  10
BRANCH   7  13
HETATM   13  O8  UNL     1      32.004  52.353   6.425  1.00  0.00    -0.388 OA
ATOM     14  H8  UNL     1      32.710  52.454   5.798  1.00  0.00     0.210 HD
ENDBRANCH   7  13
BRANCH   8  15
HETATM   15  O7  UNL     1      32.073  48.946   7.547  1.00  0.00    -0.390 OA
ATOM     16  H7  UNL     1      32.624  48.465   8.153  1.00  0.00     0.210 HD
ENDBRANCH   8  15
BRANCH   9  17
HETATM   17  O6  UNL     1      33.203  52.040   8.831  1.00  0.00    -0.390 OA
ATOM     18  H6  UNL     1      34.083  51.692   8.905  1.00  0.00     0.210 HD
ENDBRANCH   9  17
ENDBRANCH   1   4
BRANCH   1  19
HETATM   19  C5  UNL     1      30.274  53.169  10.773  1.00  0.00     0.218 C 
HETATM   20  C6  UNL     1      30.455  51.968  11.632  1.00  0.00     0.045 C 
HETATM   21  C7  UNL     1      29.829  52.245  12.970  1.00  0.00     0.043 C 
HETATM   22  C9  UNL     1      30.558  53.355  13.628  1.00  0.00     0.155 C 
HETATM   23  C10 UNL     1      30.766  54.577  12.812  1.00  0.00     0.178 C 
HETATM   24  C11 UNL     1      30.755  54.447  11.353  1.00  0.00     0.180 C 
BRANCH  21  25
HETATM   25  C8  UNL     1      28.367  52.590  12.874  1.00  0.00     0.171 C 
BRANCH  25  26
HETATM   26  O2  UNL     1      27.735  52.498  14.132  1.00  0.00    -0.400 OA
ATOM     27  H2  UNL     1      27.454  51.608  14.313  1.00  0.00     0.209 HD
ENDBRANCH  25  26
ENDBRANCH  21  25
BRANCH  22  28
HETATM   28  O3  UNL     1      31.793  52.840  14.088  1.00  0.00    -0.392 OA
ATOM     29  H3  UNL     1      32.440  53.531  14.004  1.00  0.00     0.210 HD
ENDBRANCH  22  28
BRANCH  23  30
HETATM   30  O4  UNL     1      29.828  55.551  13.219  1.00  0.00    -0.390 OA
ATOM     31  H4  UNL     1      29.580  56.066  12.459  1.00  0.00     0.210 HD
ENDBRANCH  23  30
BRANCH  24  32
HETATM   32  O5  UNL     1      32.044  54.691  10.816  1.00  0.00    -0.391 OA
ATOM     33  H5  UNL     1      32.088  55.615  10.604  1.00  0.00     0.210 HD
ENDBRANCH  24  32
ENDBRANCH   1  19
TORSDOF 12
ENDMDL
