MODEL 4
REMARK VINA RESULT: -8.984978683      1.402      6.547
REMARK  12 active torsions:
REMARK  status: ('A' for Active; 'I' for Inactive)
REMARK    1  A    between atoms: O1_1  and  C1_3 
REMARK    2  A    between atoms: C1_3  and  C2_4 
REMARK    3  A    between atoms: C4_6  and  N1_7 
REMARK    4  A    between atoms: N1_7  and  C5_10 
REMARK    5  A    between atoms: C7_12  and  C8_13 
REMARK    6  A    between atoms: C8_13  and  O2_14 
REMARK    7  A    between atoms: C9_16  and  O3_17 
REMARK    8  A    between atoms: C10_19  and  O4_20 
REMARK    9  A    between atoms: C11_22  and  O5_23 
REMARK   10  A    between atoms: C12_25  and  O6_26 
REMARK   11  A    between atoms: C13_28  and  O7_29 
REMARK   12  A    between atoms: C14_31  and  O8_32 
ROOT
HETATM    1  N1  UNL     1      30.672  52.776   9.527  1.00  0.00    -0.058 N 
ATOM      2  H11 UNL     1      29.965  53.209   8.934  1.00  0.00     0.278 HD
ATOM      3  H12 UNL     1      31.433  53.437   9.373  1.00  0.00     0.278 HD
ENDROOT
BRANCH   1   4
HETATM    4  C4  UNL     1      31.019  51.446   9.062  1.00  0.00     0.240 C 
HETATM    5  C3  UNL     1      30.033  50.926   8.088  1.00  0.00     0.016 C 
HETATM    6  C2  UNL     1      30.215  50.885   6.790  1.00  0.00    -0.027 C 
HETATM    7  C14 UNL     1      31.507  51.399   6.252  1.00  0.00     0.180 C 
HETATM    8  C13 UNL     1      32.593  50.877   7.184  1.00  0.00     0.182 C 
HETATM    9  C12 UNL     1      32.435  51.376   8.584  1.00  0.00     0.184 C 
BRANCH   6  10
HETATM   10  C1  UNL     1      29.224  50.363   5.809  1.00  0.00     0.201 C 
BRANCH  10  11
HETATM   11  O1  UNL     1      29.806  49.294   5.142  1.00  0.00    -0.397 OA
ATOM     12  H1  UNL     1      29.494  49.305   4.244  1.00  0.00     0.209 HD
ENDBRANCH  10  11
ENDBRANCH   6  10
BRANCH   7  13
HETATM   13  O8  UNL     1      31.532  52.792   6.348  1.00  0.00    -0.388 OA
ATOM     14  H8  UNL     1      32.000  53.154   5.605  1.00  0.00     0.210 HD
ENDBRANCH   7  13
BRANCH   8  15
HETATM   15  O7  UNL     1      32.693  49.486   7.119  1.00  0.00    -0.390 OA
ATOM     16  H7  UNL     1      32.877  49.174   6.241  1.00  0.00     0.210 HD
ENDBRANCH   8  15
BRANCH   9  17
HETATM   17  O6  UNL     1      32.987  52.671   8.627  1.00  0.00    -0.390 OA
ATOM     18  H6  UNL     1      32.838  53.091   7.789  1.00  0.00     0.210 HD
ENDBRANCH   9  17
ENDBRANCH   1   4
BRANCH   1  19
HETATM   19  C5  UNL     1      30.254  52.750  10.939  1.00  0.00     0.218 C 
HETATM   20  C6  UNL     1      31.324  53.418  11.727  1.00  0.00     0.045 C 
HETATM   21  C7  UNL     1      30.882  53.486  13.162  1.00  0.00     0.043 C 
HETATM   22  C9  UNL     1      29.679  54.345  13.262  1.00  0.00     0.155 C 
HETATM   23  C10 UNL     1      28.574  54.036  12.320  1.00  0.00     0.178 C 
HETATM   24  C11 UNL     1      28.899  53.343  11.073  1.00  0.00     0.180 C 
BRANCH  21  25
HETATM   25  C8  UNL     1      30.583  52.132  13.749  1.00  0.00     0.171 C 
BRANCH  25  26
HETATM   26  O2  UNL     1      29.505  52.194  14.656  1.00  0.00    -0.400 OA
ATOM     27  H2  UNL     1      28.833  52.793  14.353  1.00  0.00     0.209 HD
ENDBRANCH  25  26
ENDBRANCH  21  25
BRANCH  22  28
HETATM   28  O3  UNL     1      30.102  55.688  13.119  1.00  0.00    -0.392 OA
ATOM     29  H3  UNL     1      30.697  55.723  12.378  1.00  0.00     0.210 HD
ENDBRANCH  22  28
BRANCH  23  30
HETATM   30  O4  UNL     1      27.574  53.330  13.022  1.00  0.00    -0.390 OA
ATOM     31  H4  UNL     1      27.114  52.769  12.408  1.00  0.00     0.210 HD
ENDBRANCH  23  30
BRANCH  24  32
HETATM   32  O5  UNL     1      28.703  54.194   9.956  1.00  0.00    -0.391 OA
ATOM     33  H5  UNL     1      29.448  54.074   9.379  1.00  0.00     0.210 HD
ENDBRANCH  24  32
ENDBRANCH   1  19
TORSDOF 12
ENDMDL
