MODEL 3
REMARK VINA RESULT: -9.335157665      0.992      1.030
REMARK  12 active torsions:
REMARK  status: ('A' for Active; 'I' for Inactive)
REMARK    1  A    between atoms: O1_1  and  C1_3 
REMARK    2  A    between atoms: C1_3  and  C2_4 
REMARK    3  A    between atoms: C4_6  and  N1_7 
REMARK    4  A    between atoms: N1_7  and  C5_10 
REMARK    5  A    between atoms: C7_12  and  C8_13 
REMARK    6  A    between atoms: C8_13  and  O2_14 
REMARK    7  A    between atoms: C9_16  and  O3_17 
REMARK    8  A    between atoms: C10_19  and  O4_20 
REMARK    9  A    between atoms: C11_22  and  O5_23 
REMARK   10  A    between atoms: C12_25  and  O6_26 
REMARK   11  A    between atoms: C13_28  and  O7_29 
REMARK   12  A    between atoms: C14_31  and  O8_32 
ROOT
HETATM    1  N1  UNL     1      31.690  52.439  10.679  1.00  0.00    -0.058 N 
ATOM      2  H11 UNL     1      32.022  51.933  11.500  1.00  0.00     0.278 HD
ATOM      3  H12 UNL     1      32.357  53.210  10.690  1.00  0.00     0.278 HD
ENDROOT
BRANCH   1   4
HETATM    4  C4  UNL     1      30.328  52.909  10.855  1.00  0.00     0.240 C 
HETATM    5  C3  UNL     1      29.583  52.090  11.837  1.00  0.00     0.016 C 
HETATM    6  C2  UNL     1      29.337  52.447  13.074  1.00  0.00    -0.027 C 
HETATM    7  C14 UNL     1      29.843  53.774  13.529  1.00  0.00     0.180 C 
HETATM    8  C13 UNL     1      29.563  54.748  12.391  1.00  0.00     0.182 C 
HETATM    9  C12 UNL     1      30.279  54.378  11.132  1.00  0.00     0.184 C 
BRANCH   6  10
HETATM   10  C1  UNL     1      28.587  51.624  14.063  1.00  0.00     0.201 C 
BRANCH  10  11
HETATM   11  O1  UNL     1      27.428  52.311  14.400  1.00  0.00    -0.397 OA
ATOM     12  H1  UNL     1      27.670  53.204  14.616  1.00  0.00     0.209 HD
ENDBRANCH  10  11
ENDBRANCH   6  10
BRANCH   7  13
HETATM   13  O8  UNL     1      31.230  53.719  13.678  1.00  0.00    -0.388 OA
ATOM     14  H8  UNL     1      31.470  52.908  14.109  1.00  0.00     0.210 HD
ENDBRANCH   7  13
BRANCH   8  15
HETATM   15  O7  UNL     1      28.192  54.922  12.196  1.00  0.00    -0.390 OA
ATOM     16  H7  UNL     1      27.670  54.333  12.728  1.00  0.00     0.210 HD
ENDBRANCH   8  15
BRANCH   9  17
HETATM   17  O6  UNL     1      31.598  54.857  11.251  1.00  0.00    -0.390 OA
ATOM     18  H6  UNL     1      31.608  55.778  11.018  1.00  0.00     0.210 HD
ENDBRANCH   9  17
ENDBRANCH   1   4
BRANCH   1  19
HETATM   19  C5  UNL     1      31.817  51.630   9.455  1.00  0.00     0.218 C 
HETATM   20  C6  UNL     1      30.439  51.343   8.973  1.00  0.00     0.045 C 
HETATM   21  C7  UNL     1      30.539  50.592   7.675  1.00  0.00     0.043 C 
HETATM   22  C9  UNL     1      31.176  51.461   6.658  1.00  0.00     0.155 C 
HETATM   23  C10 UNL     1      32.447  52.115   7.058  1.00  0.00     0.178 C 
HETATM   24  C11 UNL     1      32.702  52.320   8.485  1.00  0.00     0.180 C 
BRANCH  21  25
HETATM   25  C8  UNL     1      31.315  49.309   7.798  1.00  0.00     0.171 C 
BRANCH  25  26
HETATM   26  O2  UNL     1      30.925  48.378   6.813  1.00  0.00    -0.400 OA
ATOM     27  H2  UNL     1      31.637  47.788   6.593  1.00  0.00     0.209 HD
ENDBRANCH  25  26
ENDBRANCH  21  25
BRANCH  22  28
HETATM   28  O3  UNL     1      30.218  52.423   6.259  1.00  0.00    -0.392 OA
ATOM     29  H3  UNL     1      29.859  52.814   7.048  1.00  0.00     0.210 HD
ENDBRANCH  22  28
BRANCH  23  30
HETATM   30  O4  UNL     1      33.517  51.408   6.470  1.00  0.00    -0.390 OA
ATOM     31  H4  UNL     1      33.521  50.523   6.816  1.00  0.00     0.210 HD
ENDBRANCH  23  30
BRANCH  24  32
HETATM   32  O5  UNL     1      32.680  53.700   8.808  1.00  0.00    -0.391 OA
ATOM     33  H5  UNL     1      32.590  54.177   7.992  1.00  0.00     0.210 HD
ENDBRANCH  24  32
ENDBRANCH   1  19
TORSDOF 12
ENDMDL
