MODEL 1
REMARK VINA RESULT: -9.861788422      0.000      0.000
REMARK  12 active torsions:
REMARK  status: ('A' for Active; 'I' for Inactive)
REMARK    1  A    between atoms: O1_1  and  C1_3 
REMARK    2  A    between atoms: C1_3  and  C2_4 
REMARK    3  A    between atoms: C4_6  and  N1_7 
REMARK    4  A    between atoms: N1_7  and  C5_10 
REMARK    5  A    between atoms: C7_12  and  C8_13 
REMARK    6  A    between atoms: C8_13  and  O2_14 
REMARK    7  A    between atoms: C9_16  and  O3_17 
REMARK    8  A    between atoms: C10_19  and  O4_20 
REMARK    9  A    between atoms: C11_22  and  O5_23 
REMARK   10  A    between atoms: C12_25  and  O6_26 
REMARK   11  A    between atoms: C13_28  and  O7_29 
REMARK   12  A    between atoms: C14_31  and  O8_32 
ROOT
HETATM    1  N1  UNL     1      31.259  53.235  10.330  1.00  0.00    -0.058 N 
ATOM      2  H11 UNL     1      32.036  53.404  10.970  1.00  0.00     0.278 HD
ATOM      3  H12 UNL     1      31.251  54.135   9.852  1.00  0.00     0.278 HD
ENDROOT
BRANCH   1   4
HETATM    4  C4  UNL     1      30.019  53.000  11.047  1.00  0.00     0.240 C 
HETATM    5  C3  UNL     1      30.099  51.804  11.915  1.00  0.00     0.016 C 
HETATM    6  C2  UNL     1      30.263  51.834  13.215  1.00  0.00    -0.027 C 
HETATM    7  C14 UNL     1      30.378  53.168  13.872  1.00  0.00     0.180 C 
HETATM    8  C13 UNL     1      29.321  54.053  13.222  1.00  0.00     0.182 C 
HETATM    9  C12 UNL     1      29.545  54.229  11.754  1.00  0.00     0.184 C 
BRANCH   6  10
HETATM   10  C1  UNL     1      30.344  50.631  14.089  1.00  0.00     0.201 C 
BRANCH  10  11
HETATM   11  O1  UNL     1      29.261  50.660  14.957  1.00  0.00    -0.397 OA
ATOM     12  H1  UNL     1      29.382  49.969  15.598  1.00  0.00     0.209 HD
ENDBRANCH  10  11
ENDBRANCH   6  10
BRANCH   7  13
HETATM   13  O8  UNL     1      31.617  53.734  13.566  1.00  0.00    -0.388 OA
ATOM     14  H8  UNL     1      32.259  53.459  14.209  1.00  0.00     0.210 HD
ENDBRANCH   7  13
BRANCH   8  15
HETATM   15  O7  UNL     1      28.032  53.605  13.517  1.00  0.00    -0.390 OA
ATOM     16  H7  UNL     1      27.411  54.318  13.615  1.00  0.00     0.210 HD
ENDBRANCH   8  15
BRANCH   9  17
HETATM   17  O6  UNL     1      30.517  55.237  11.603  1.00  0.00    -0.390 OA
ATOM     18  H6  UNL     1      30.190  55.883  10.988  1.00  0.00     0.210 HD
ENDBRANCH   9  17
ENDBRANCH   1   4
BRANCH   1  19
HETATM   19  C5  UNL     1      31.552  52.130   9.402  1.00  0.00     0.218 C 
HETATM   20  C6  UNL     1      30.262  51.724   8.781  1.00  0.00     0.045 C 
HETATM   21  C7  UNL     1      30.543  50.656   7.762  1.00  0.00     0.043 C 
HETATM   22  C9  UNL     1      31.379  51.225   6.678  1.00  0.00     0.155 C 
HETATM   23  C10 UNL     1      32.593  51.963   7.106  1.00  0.00     0.178 C 
HETATM   24  C11 UNL     1      32.616  52.540   8.452  1.00  0.00     0.180 C 
BRANCH  21  25
HETATM   25  C8  UNL     1      31.231  49.452   8.348  1.00  0.00     0.171 C 
BRANCH  25  26
HETATM   26  O2  UNL     1      31.816  48.656   7.341  1.00  0.00    -0.400 OA
ATOM     27  H2  UNL     1      32.401  48.006   7.712  1.00  0.00     0.209 HD
ENDBRANCH  25  26
ENDBRANCH  21  25
BRANCH  22  28
HETATM   28  O3  UNL     1      30.544  52.046   5.883  1.00  0.00    -0.392 OA
ATOM     29  H3  UNL     1      31.095  52.703   5.474  1.00  0.00     0.210 HD
ENDBRANCH  22  28
BRANCH  23  30
HETATM   30  O4  UNL     1      33.714  51.127   6.917  1.00  0.00    -0.390 OA
ATOM     31  H4  UNL     1      34.111  51.340   6.081  1.00  0.00     0.210 HD
ENDBRANCH  23  30
BRANCH  24  32
HETATM   32  O5  UNL     1      32.602  53.956   8.395  1.00  0.00    -0.391 OA
ATOM     33  H5  UNL     1      33.501  54.240   8.280  1.00  0.00     0.210 HD
ENDBRANCH  24  32
ENDBRANCH   1  19
TORSDOF 12
ENDMDL
