MODEL 1
REMARK VINA RESULT: -10.064000114      0.000      0.000
REMARK  5 active torsions:
REMARK  status: ('A' for Active; 'I' for Inactive)
REMARK    1  A    between atoms: C2_2  and  C4_4 
REMARK    2  A    between atoms: C4_4  and  N1_5 
REMARK    3  A    between atoms: C9_13  and  C10_14 
REMARK    4  A    between atoms: N4_21  and  C15_22 
REMARK    5  A    between atoms: C15_22  and  C16_23 
ROOT
HETATM    1  N1  UNL     1      15.895  56.468  37.351  1.00  0.00    -0.283 N 
HETATM    2  C5  UNL     1      15.737  56.225  36.048  1.00  0.00     0.332 A 
HETATM    3  O1  UNL     1      16.393  55.330  35.428  1.00  0.00    -0.246 OA
HETATM    4  N2  UNL     1      14.859  56.923  35.290  1.00  0.00    -0.270 N 
HETATM    5  C6  UNL     1      14.667  56.668  33.877  1.00  0.00     0.164 C 
HETATM    6  C7  UNL     1      14.084  57.919  35.819  1.00  0.00     0.267 A 
HETATM    7  O2  UNL     1      13.281  58.544  35.117  1.00  0.00    -0.267 OA
HETATM    8  C8  UNL     1      14.247  58.175  37.169  1.00  0.00     0.107 A 
HETATM    9  C9  UNL     1      13.587  59.102  38.009  1.00  0.00     0.081 A 
HETATM   10  N4  UNL     1      14.085  58.917  39.216  1.00  0.00    -0.284 N 
HETATM   11  N5  UNL     1      15.029  57.915  39.149  1.00  0.00    -0.281 N 
ATOM     12  H5  UNL     1      15.569  57.576  39.945  1.00  0.00     0.189 HD
HETATM   13  C26 UNL     1      15.143  57.452  37.918  1.00  0.00     0.144 A 
ENDROOT
BRANCH  10  14
HETATM   14  C15 UNL     1      13.852  59.573  40.497  1.00  0.00     0.188 C 
BRANCH  14  15
HETATM   15  C16 UNL     1      13.938  60.989  40.412  1.00  0.00    -0.027 A 
HETATM   16  C17 UNL     1      12.722  61.683  40.608  1.00  0.00     0.010 A 
HETATM   17  C18 UNL     1      12.607  63.038  40.448  1.00  0.00     0.002 A 
HETATM   18  C19 UNL     1      13.682  63.793  40.087  1.00  0.00     0.012 A 
HETATM   19  C20 UNL     1      14.882  63.176  39.886  1.00  0.00    -0.025 A 
HETATM   20  C21 UNL     1      15.975  63.967  39.574  1.00  0.00     0.012 A 
HETATM   21  C25 UNL     1      14.978  61.810  40.052  1.00  0.00    -0.018 A 
HETATM   22  C22 UNL     1      17.209  63.373  39.428  1.00  0.00     0.001 A 
HETATM   23  C23 UNL     1      17.299  62.000  39.600  1.00  0.00     0.001 A 
HETATM   24  C24 UNL     1      16.207  61.238  39.905  1.00  0.00     0.013 A 
ENDBRANCH  14  15
ENDBRANCH  10  14
BRANCH   9  25
HETATM   25  C10 UNL     1      12.682  60.155  37.507  1.00  0.00    -0.004 A 
HETATM   26  C11 UNL     1      11.339  60.137  37.664  1.00  0.00     0.031 A 
HETATM   27  C12 UNL     1      10.562  61.208  37.291  1.00  0.00     0.088 A 
HETATM   28  N3  UNL     1      11.117  62.308  36.755  1.00  0.00    -0.375 N 
HETATM   29  C13 UNL     1      12.442  62.395  36.569  1.00  0.00     0.088 A 
ATOM     30  H3  UNL     1      10.521  63.091  36.486  1.00  0.00     0.164 HD
HETATM   31  C14 UNL     1      13.220  61.320  36.945  1.00  0.00     0.031 A 
ENDBRANCH   9  25
BRANCH   1  32
HETATM   32  C4  UNL     1      16.821  55.705  38.149  1.00  0.00     0.139 C 
BRANCH  32  33
HETATM   33  C2  UNL     1      18.022  56.495  38.563  1.00  0.00    -0.004 C 
HETATM   34  C1  UNL     1      19.171  56.292  37.579  1.00  0.00     0.011 C 
HETATM   35  C3  UNL     1      18.575  56.048  39.911  1.00  0.00     0.011 C 
ENDBRANCH  32  33
ENDBRANCH   1  32
TORSDOF 5
ENDMDL
