MODEL 6
REMARK VINA RESULT: -9.131464225      5.608      8.536
REMARK  5 active torsions:
REMARK  status: ('A' for Active; 'I' for Inactive)
REMARK    1  A    between atoms: C2_2  and  C4_4 
REMARK    2  A    between atoms: C4_4  and  N1_5 
REMARK    3  A    between atoms: C9_13  and  C10_14 
REMARK    4  A    between atoms: N4_21  and  C15_22 
REMARK    5  A    between atoms: C15_22  and  C16_23 
ROOT
HETATM    1  N1  UNL     1      10.880  63.539  39.093  1.00  0.00    -0.283 N 
HETATM    2  C5  UNL     1      10.019  62.645  38.606  1.00  0.00     0.332 A 
HETATM    3  O1  UNL     1      10.384  61.617  37.953  1.00  0.00    -0.246 OA
HETATM    4  N2  UNL     1       8.681  62.774  38.772  1.00  0.00    -0.270 N 
HETATM    5  C6  UNL     1       7.730  61.810  38.258  1.00  0.00     0.164 C 
HETATM    6  C7  UNL     1       8.138  63.831  39.452  1.00  0.00     0.267 A 
HETATM    7  O2  UNL     1       6.916  63.933  39.603  1.00  0.00    -0.267 OA
HETATM    8  C8  UNL     1       9.030  64.761  39.957  1.00  0.00     0.107 A 
HETATM    9  C9  UNL     1       8.798  65.930  40.719  1.00  0.00     0.081 A 
HETATM   10  N4  UNL     1       9.986  66.438  40.977  1.00  0.00    -0.284 N 
HETATM   11  N5  UNL     1      10.941  65.628  40.400  1.00  0.00    -0.281 N 
ATOM     12  H5  UNL     1      11.946  65.796  40.447  1.00  0.00     0.189 HD
HETATM   13  C26 UNL     1      10.383  64.607  39.777  1.00  0.00     0.144 A 
ENDROOT
BRANCH  10  14
HETATM   14  C15 UNL     1      10.420  67.639  41.679  1.00  0.00     0.188 C 
BRANCH  14  15
HETATM   15  C16 UNL     1      10.685  67.405  43.056  1.00  0.00    -0.027 A 
HETATM   16  C17 UNL     1       9.543  67.273  43.879  1.00  0.00     0.010 A 
HETATM   17  C18 UNL     1       9.620  67.158  45.241  1.00  0.00     0.002 A 
HETATM   18  C19 UNL     1      10.825  67.166  45.877  1.00  0.00     0.012 A 
HETATM   19  C20 UNL     1      11.961  67.290  45.132  1.00  0.00    -0.025 A 
HETATM   20  C21 UNL     1      13.178  67.240  45.790  1.00  0.00     0.012 A 
HETATM   21  C25 UNL     1      11.863  67.404  43.761  1.00  0.00    -0.018 A 
HETATM   22  C22 UNL     1      14.339  67.300  45.052  1.00  0.00     0.001 A 
HETATM   23  C23 UNL     1      14.234  67.411  43.674  1.00  0.00     0.001 A 
HETATM   24  C24 UNL     1      13.023  67.462  43.045  1.00  0.00     0.013 A 
ENDBRANCH  14  15
ENDBRANCH  10  14
BRANCH   9  25
HETATM   25  C10 UNL     1       7.452  66.491  40.958  1.00  0.00    -0.004 A 
HETATM   26  C11 UNL     1       6.690  66.197  42.035  1.00  0.00     0.031 A 
HETATM   27  C12 UNL     1       5.504  66.850  42.270  1.00  0.00     0.088 A 
HETATM   28  N3  UNL     1       5.064  67.803  41.430  1.00  0.00    -0.375 N 
HETATM   29  C13 UNL     1       5.767  68.145  40.341  1.00  0.00     0.088 A 
ATOM     30  H3  UNL     1       4.180  68.275  41.625  1.00  0.00     0.164 HD
HETATM   31  C14 UNL     1       6.958  67.490  40.108  1.00  0.00     0.031 A 
ENDBRANCH   9  25
BRANCH   1  32
HETATM   32  C4  UNL     1      12.302  63.380  38.923  1.00  0.00     0.139 C 
BRANCH  32  33
HETATM   33  C2  UNL     1      13.021  63.131  40.211  1.00  0.00    -0.004 C 
HETATM   34  C1  UNL     1      14.533  63.165  40.005  1.00  0.00     0.011 C 
HETATM   35  C3  UNL     1      12.732  61.747  40.779  1.00  0.00     0.011 C 
ENDBRANCH  32  33
ENDBRANCH   1  32
TORSDOF 5
ENDMDL
