MODEL 2
REMARK VINA RESULT: -9.460045836      1.314      4.786
REMARK  5 active torsions:
REMARK  status: ('A' for Active; 'I' for Inactive)
REMARK    1  A    between atoms: C2_2  and  C4_4 
REMARK    2  A    between atoms: C4_4  and  N1_5 
REMARK    3  A    between atoms: C9_13  and  C10_14 
REMARK    4  A    between atoms: N4_21  and  C15_22 
REMARK    5  A    between atoms: C15_22  and  C16_23 
ROOT
HETATM    1  N1  UNL     1      13.239  58.544  35.534  1.00  0.00    -0.283 N 
HETATM    2  C5  UNL     1      13.778  57.808  34.560  1.00  0.00     0.332 A 
HETATM    3  O1  UNL     1      13.328  57.799  33.371  1.00  0.00    -0.246 OA
HETATM    4  N2  UNL     1      14.852  57.012  34.774  1.00  0.00    -0.270 N 
HETATM    5  C6  UNL     1      15.457  56.213  33.728  1.00  0.00     0.164 C 
HETATM    6  C7  UNL     1      15.445  56.917  36.004  1.00  0.00     0.267 A 
HETATM    7  O2  UNL     1      16.429  56.191  36.185  1.00  0.00    -0.267 OA
HETATM    8  C8  UNL     1      14.887  57.677  37.017  1.00  0.00     0.107 A 
HETATM    9  C9  UNL     1      15.274  57.824  38.369  1.00  0.00     0.081 A 
HETATM   10  N4  UNL     1      14.434  58.692  38.896  1.00  0.00    -0.284 N 
HETATM   11  N5  UNL     1      13.542  59.083  37.920  1.00  0.00    -0.281 N 
ATOM     12  H5  UNL     1      12.784  59.749  38.064  1.00  0.00     0.189 HD
HETATM   13  C26 UNL     1      13.798  58.479  36.775  1.00  0.00     0.144 A 
ENDROOT
BRANCH  10  14
HETATM   14  C15 UNL     1      14.279  59.233  40.241  1.00  0.00     0.188 C 
BRANCH  14  15
HETATM   15  C16 UNL     1      14.283  60.653  40.265  1.00  0.00    -0.027 A 
HETATM   16  C17 UNL     1      13.032  61.259  40.526  1.00  0.00     0.010 A 
HETATM   17  C18 UNL     1      12.838  62.613  40.472  1.00  0.00     0.002 A 
HETATM   18  C19 UNL     1      13.863  63.455  40.160  1.00  0.00     0.012 A 
HETATM   19  C20 UNL     1      15.093  62.925  39.901  1.00  0.00    -0.025 A 
HETATM   20  C21 UNL     1      16.135  63.799  39.641  1.00  0.00     0.012 A 
HETATM   21  C25 UNL     1      15.269  61.559  39.961  1.00  0.00    -0.018 A 
HETATM   22  C22 UNL     1      17.398  63.291  39.438  1.00  0.00     0.001 A 
HETATM   23  C23 UNL     1      17.569  61.917  39.502  1.00  0.00     0.001 A 
HETATM   24  C24 UNL     1      16.527  61.072  39.758  1.00  0.00     0.013 A 
ENDBRANCH  14  15
ENDBRANCH  10  14
BRANCH   9  25
HETATM   25  C10 UNL     1      16.302  56.983  39.017  1.00  0.00    -0.004 A 
HETATM   26  C11 UNL     1      16.086  55.716  39.439  1.00  0.00     0.031 A 
HETATM   27  C12 UNL     1      17.114  54.938  39.914  1.00  0.00     0.088 A 
HETATM   28  N3  UNL     1      18.369  55.416  39.976  1.00  0.00    -0.375 N 
HETATM   29  C13 UNL     1      18.655  56.663  39.576  1.00  0.00     0.088 A 
ATOM     30  H3  UNL     1      19.116  54.820  40.332  1.00  0.00     0.164 HD
HETATM   31  C14 UNL     1      17.622  57.442  39.098  1.00  0.00     0.031 A 
ENDBRANCH   9  25
BRANCH   1  32
HETATM   32  C4  UNL     1      12.107  59.400  35.288  1.00  0.00     0.139 C 
BRANCH  32  33
HETATM   33  C2  UNL     1      12.052  60.575  36.212  1.00  0.00    -0.004 C 
HETATM   34  C1  UNL     1      10.608  60.913  36.574  1.00  0.00     0.011 C 
HETATM   35  C3  UNL     1      12.603  61.843  35.572  1.00  0.00     0.011 C 
ENDBRANCH  32  33
ENDBRANCH   1  32
TORSDOF 5
ENDMDL
