MODEL 5
REMARK VINA RESULT: -9.144866511      1.374      5.124
REMARK  5 active torsions:
REMARK  status: ('A' for Active; 'I' for Inactive)
REMARK    1  A    between atoms: C2_2  and  C4_4 
REMARK    2  A    between atoms: C4_4  and  N1_5 
REMARK    3  A    between atoms: C9_13  and  C10_14 
REMARK    4  A    between atoms: N4_21  and  C15_22 
REMARK    5  A    between atoms: C15_22  and  C16_23 
ROOT
HETATM    1  N1  UNL     1      13.340  58.576  35.660  1.00  0.00    -0.283 N 
HETATM    2  C5  UNL     1      13.793  57.709  34.753  1.00  0.00     0.332 A 
HETATM    3  O1  UNL     1      13.262  57.567  33.606  1.00  0.00    -0.246 OA
HETATM    4  N2  UNL     1      14.859  56.911  34.996  1.00  0.00    -0.270 N 
HETATM    5  C6  UNL     1      15.372  55.969  34.021  1.00  0.00     0.164 C 
HETATM    6  C7  UNL     1      15.532  56.949  36.187  1.00  0.00     0.267 A 
HETATM    7  O2  UNL     1      16.508  56.220  36.393  1.00  0.00    -0.267 OA
HETATM    8  C8  UNL     1      15.063  57.847  37.131  1.00  0.00     0.107 A 
HETATM    9  C9  UNL     1      15.546  58.147  38.425  1.00  0.00     0.081 A 
HETATM   10  N4  UNL     1      14.765  59.100  38.892  1.00  0.00    -0.284 N 
HETATM   11  N5  UNL     1      13.817  59.396  37.935  1.00  0.00    -0.281 N 
ATOM     12  H5  UNL     1      13.087  60.100  38.043  1.00  0.00     0.189 HD
HETATM   13  C26 UNL     1      13.980  58.647  36.860  1.00  0.00     0.144 A 
ENDROOT
BRANCH  10  14
HETATM   14  C15 UNL     1      14.715  59.808  40.166  1.00  0.00     0.188 C 
BRANCH  14  15
HETATM   15  C16 UNL     1      14.849  61.215  40.018  1.00  0.00    -0.027 A 
HETATM   16  C17 UNL     1      16.178  61.697  39.984  1.00  0.00     0.010 A 
HETATM   17  C18 UNL     1      16.482  63.032  39.961  1.00  0.00     0.002 A 
HETATM   18  C19 UNL     1      15.497  63.974  39.969  1.00  0.00     0.012 A 
HETATM   19  C20 UNL     1      14.196  63.565  40.000  1.00  0.00    -0.025 A 
HETATM   20  C21 UNL     1      13.209  64.535  39.951  1.00  0.00     0.012 A 
HETATM   21  C25 UNL     1      13.910  62.216  40.022  1.00  0.00    -0.018 A 
HETATM   22  C22 UNL     1      11.889  64.143  39.919  1.00  0.00     0.001 A 
HETATM   23  C23 UNL     1      11.608  62.786  39.938  1.00  0.00     0.001 A 
HETATM   24  C24 UNL     1      12.597  61.845  39.989  1.00  0.00     0.013 A 
ENDBRANCH  14  15
ENDBRANCH  10  14
BRANCH   9  25
HETATM   25  C10 UNL     1      16.594  57.359  39.106  1.00  0.00    -0.004 A 
HETATM   26  C11 UNL     1      16.343  56.302  39.910  1.00  0.00     0.031 A 
HETATM   27  C12 UNL     1      17.364  55.528  40.409  1.00  0.00     0.088 A 
HETATM   28  N3  UNL     1      18.645  55.802  40.113  1.00  0.00    -0.375 N 
HETATM   29  C13 UNL     1      18.967  56.837  39.324  1.00  0.00     0.088 A 
ATOM     30  H3  UNL     1      19.386  55.214  40.495  1.00  0.00     0.164 HD
HETATM   31  C14 UNL     1      17.942  57.611  38.822  1.00  0.00     0.031 A 
ENDBRANCH   9  25
BRANCH   1  32
HETATM   32  C4  UNL     1      12.214  59.432  35.382  1.00  0.00     0.139 C 
BRANCH  32  33
HETATM   33  C2  UNL     1      12.124  60.599  36.313  1.00  0.00    -0.004 C 
HETATM   34  C1  UNL     1      10.680  60.838  36.747  1.00  0.00     0.011 C 
HETATM   35  C3  UNL     1      12.557  61.903  35.654  1.00  0.00     0.011 C 
ENDBRANCH  32  33
ENDBRANCH   1  32
TORSDOF 5
ENDMDL
