MODEL 20
REMARK VINA RESULT: -6.059026351      1.746      2.117
REMARK  12 active torsions:
REMARK  status: ('A' for Active; 'I' for Inactive)
REMARK    1  A    between atoms: O1_1  and  C1_3 
REMARK    2  A    between atoms: C1_3  and  C2_4 
REMARK    3  A    between atoms: C3_6  and  N1_7 
REMARK    4  A    between atoms: N1_7  and  C4_9 
REMARK    5  A    between atoms: C7_15  and  O3_16 
REMARK    6  A    between atoms: C8_18  and  O4_19 
REMARK    7  A    between atoms: C9_21  and  O5_22 
REMARK    8  A    between atoms: C9_21  and  C10_24 
REMARK    9  A    between atoms: C10_24  and  O6_25 
REMARK   10  A    between atoms: C11_27  and  O7_28 
REMARK   11  A    between atoms: C12_30  and  O8_31 
REMARK   12  A    between atoms: C13_33  and  O9_34 
ROOT
HETATM    1  C4  UNL     1      17.856  49.358  11.170  1.00  0.00     0.139 C 
HETATM    2  N2  UNL     1      18.440  50.225  11.851  1.00  0.00    -0.362 N 
ATOM      3  H2  UNL     1      17.933  51.066  12.126  1.00  0.00     0.162 HD
HETATM    4  C5  UNL     1      19.772  50.072  12.245  1.00  0.00     0.139 C 
HETATM    5  C6  UNL     1      20.243  48.654  12.148  1.00  0.00     0.112 C 
HETATM    6  S1  UNL     1      19.042  48.045  10.892  1.00  0.00    -0.085 SA
HETATM    7  C7  UNL     1      20.038  47.997  13.468  1.00  0.00     0.166 C 
HETATM    8  C8  UNL     1      19.259  49.013  14.269  1.00  0.00     0.186 C 
HETATM    9  C9  UNL     1      19.849  50.310  13.762  1.00  0.00     0.128 C 
ENDROOT
BRANCH   1  10
HETATM   10  N1  UNL     1      16.513  49.414  10.718  1.00  0.00    -0.342 N 
ATOM     11  H1  UNL     1      15.797  48.810  11.122  1.00  0.00     0.164 HD
BRANCH  10  12
HETATM   12  C3  UNL     1      16.191  50.351   9.671  1.00  0.00     0.254 C 
HETATM   13  O2  UNL     1      17.352  51.065   9.383  1.00  0.00    -0.354 OA
HETATM   14  C2  UNL     1      18.214  50.343   8.562  1.00  0.00     0.179 C 
HETATM   15  C13 UNL     1      17.673  50.374   7.164  1.00  0.00     0.180 C 
HETATM   16  C12 UNL     1      16.169  50.363   7.228  1.00  0.00     0.182 C 
HETATM   17  C11 UNL     1      15.634  49.664   8.447  1.00  0.00     0.198 C 
BRANCH  14  18
HETATM   18  C1  UNL     1      19.562  51.024   8.571  1.00  0.00     0.198 C 
BRANCH  18  19
HETATM   19  O1  UNL     1      19.884  51.574   7.336  1.00  0.00    -0.398 OA
ATOM     20  H1  UNL     1      20.757  51.948   7.324  1.00  0.00     0.209 HD
ENDBRANCH  18  19
ENDBRANCH  14  18
BRANCH  15  21
HETATM   21  O9  UNL     1      18.137  49.297   6.392  1.00  0.00    -0.390 OA
ATOM     22  H9  UNL     1      18.019  49.446   5.460  1.00  0.00     0.210 HD
ENDBRANCH  15  21
BRANCH  16  23
HETATM   23  O8  UNL     1      15.723  51.684   7.262  1.00  0.00    -0.390 OA
ATOM     24  H8  UNL     1      16.179  52.163   6.580  1.00  0.00     0.210 HD
ENDBRANCH  16  23
BRANCH  17  25
HETATM   25  O7  UNL     1      15.967  48.311   8.414  1.00  0.00    -0.389 OA
ATOM     26  H7  UNL     1      16.363  48.025   9.229  1.00  0.00     0.210 HD
ENDBRANCH  17  25
ENDBRANCH  10  12
ENDBRANCH   1  10
BRANCH   9  27
HETATM   27  O5  UNL     1      21.165  50.463  14.148  1.00  0.00    -0.383 OA
ATOM     28  H5  UNL     1      21.582  49.612  14.224  1.00  0.00     0.210 HD
ENDBRANCH   9  27
BRANCH   9  29
HETATM   29  C10 UNL     1      18.997  51.497  14.156  1.00  0.00     0.206 C 
BRANCH  29  30
HETATM   30  O6  UNL     1      18.416  51.178  15.385  1.00  0.00    -0.398 OA
ATOM     31  H6  UNL     1      18.035  51.982  15.720  1.00  0.00     0.209 HD
ENDBRANCH  29  30
ENDBRANCH   9  29
BRANCH   7  32
HETATM   32  O3  UNL     1      21.299  47.844  14.066  1.00  0.00    -0.392 OA
ATOM     33  H3  UNL     1      21.300  47.014  14.529  1.00  0.00     0.210 HD
ENDBRANCH   7  32
BRANCH   8  34
HETATM   34  O4  UNL     1      17.925  48.942  13.896  1.00  0.00    -0.390 OA
ATOM     35  H4  UNL     1      17.536  48.178  14.306  1.00  0.00     0.210 HD
ENDBRANCH   8  34
TORSDOF 12
ENDMDL
