MODEL 2
REMARK VINA RESULT: -7.595754787      1.749      6.756
REMARK  12 active torsions:
REMARK  status: ('A' for Active; 'I' for Inactive)
REMARK    1  A    between atoms: O1_1  and  C1_3 
REMARK    2  A    between atoms: C1_3  and  C2_4 
REMARK    3  A    between atoms: C3_6  and  N1_7 
REMARK    4  A    between atoms: N1_7  and  C4_9 
REMARK    5  A    between atoms: C7_15  and  O3_16 
REMARK    6  A    between atoms: C8_18  and  O4_19 
REMARK    7  A    between atoms: C9_21  and  O5_22 
REMARK    8  A    between atoms: C9_21  and  C10_24 
REMARK    9  A    between atoms: C10_24  and  O6_25 
REMARK   10  A    between atoms: C11_27  and  O7_28 
REMARK   11  A    between atoms: C12_30  and  O8_31 
REMARK   12  A    between atoms: C13_33  and  O9_34 
ROOT
HETATM    1  C4  UNL     1      18.517  50.361   9.904  1.00  0.00     0.139 C 
HETATM    2  N2  UNL     1      17.583  49.994   9.164  1.00  0.00    -0.362 N 
ATOM      3  H2  UNL     1      16.664  49.820   9.571  1.00  0.00     0.162 HD
HETATM    4  C5  UNL     1      17.765  49.815   7.790  1.00  0.00     0.139 C 
HETATM    5  C6  UNL     1      18.995  50.496   7.277  1.00  0.00     0.112 C 
HETATM    6  S1  UNL     1      19.949  50.572   8.851  1.00  0.00    -0.085 SA
HETATM    7  C7  UNL     1      18.619  51.852   6.797  1.00  0.00     0.166 C 
HETATM    8  C8  UNL     1      17.178  52.009   7.225  1.00  0.00     0.186 C 
HETATM    9  C9  UNL     1      16.662  50.597   7.058  1.00  0.00     0.128 C 
ENDROOT
BRANCH   1  10
HETATM   10  N1  UNL     1      18.441  50.571  11.305  1.00  0.00    -0.342 N 
ATOM     11  H1  UNL     1      18.547  51.505  11.703  1.00  0.00     0.164 HD
BRANCH  10  12
HETATM   12  C3  UNL     1      18.208  49.427  12.149  1.00  0.00     0.254 C 
HETATM   13  O2  UNL     1      19.110  48.438  11.764  1.00  0.00    -0.354 OA
HETATM   14  C2  UNL     1      20.378  48.656  12.297  1.00  0.00     0.179 C 
HETATM   15  C13 UNL     1      20.353  48.274  13.746  1.00  0.00     0.180 C 
HETATM   16  C12 UNL     1      18.999  48.609  14.312  1.00  0.00     0.182 C 
HETATM   17  C11 UNL     1      18.337  49.766  13.615  1.00  0.00     0.198 C 
BRANCH  14  18
HETATM   18  C1  UNL     1      21.357  47.758  11.580  1.00  0.00     0.198 C 
BRANCH  18  19
HETATM   19  O1  UNL     1      20.777  47.092  10.508  1.00  0.00    -0.398 OA
ATOM     20  H1  UNL     1      20.572  47.676   9.787  1.00  0.00     0.209 HD
ENDBRANCH  18  19
ENDBRANCH  14  18
BRANCH  15  21
HETATM   21  O9  UNL     1      21.363  48.915  14.482  1.00  0.00    -0.390 OA
ATOM     22  H9  UNL     1      21.996  48.301  14.834  1.00  0.00     0.210 HD
ENDBRANCH  15  21
BRANCH  16  23
HETATM   23  O8  UNL     1      18.175  47.494  14.165  1.00  0.00    -0.390 OA
ATOM     24  H8  UNL     1      18.649  46.737  14.488  1.00  0.00     0.210 HD
ENDBRANCH  16  23
BRANCH  17  25
HETATM   25  O7  UNL     1      19.071  50.934  13.814  1.00  0.00    -0.389 OA
ATOM     26  H7  UNL     1      19.224  51.102  14.737  1.00  0.00     0.210 HD
ENDBRANCH  17  25
ENDBRANCH  10  12
ENDBRANCH   1  10
BRANCH   9  27
HETATM   27  O5  UNL     1      16.617  50.218   5.733  1.00  0.00    -0.383 OA
ATOM     28  H5  UNL     1      16.955  50.917   5.184  1.00  0.00     0.210 HD
ENDBRANCH   9  27
BRANCH   9  29
HETATM   29  C10 UNL     1      15.330  50.409   7.752  1.00  0.00     0.206 C 
BRANCH  29  30
HETATM   30  O6  UNL     1      15.205  49.042   8.008  1.00  0.00    -0.398 OA
ATOM     31  H6  UNL     1      14.371  48.926   8.448  1.00  0.00     0.209 HD
ENDBRANCH  29  30
ENDBRANCH   9  29
BRANCH   7  32
HETATM   32  O3  UNL     1      18.657  51.832   5.393  1.00  0.00    -0.392 OA
ATOM     33  H3  UNL     1      17.947  52.379   5.078  1.00  0.00     0.210 HD
ENDBRANCH   7  32
BRANCH   8  34
HETATM   34  O4  UNL     1      17.150  52.350   8.569  1.00  0.00    -0.390 OA
ATOM     35  H4  UNL     1      17.683  53.126   8.696  1.00  0.00     0.210 HD
ENDBRANCH   8  34
TORSDOF 12
ENDMDL
