MODEL 5
REMARK VINA RESULT: -7.456842765      1.665      6.518
REMARK  12 active torsions:
REMARK  status: ('A' for Active; 'I' for Inactive)
REMARK    1  A    between atoms: O1_1  and  C1_3 
REMARK    2  A    between atoms: C1_3  and  C2_4 
REMARK    3  A    between atoms: C3_6  and  N1_7 
REMARK    4  A    between atoms: N1_7  and  C4_9 
REMARK    5  A    between atoms: C7_15  and  O3_16 
REMARK    6  A    between atoms: C8_18  and  O4_19 
REMARK    7  A    between atoms: C9_21  and  O5_22 
REMARK    8  A    between atoms: C9_21  and  C10_24 
REMARK    9  A    between atoms: C10_24  and  O6_25 
REMARK   10  A    between atoms: C11_27  and  O7_28 
REMARK   11  A    between atoms: C12_30  and  O8_31 
REMARK   12  A    between atoms: C13_33  and  O9_34 
ROOT
HETATM    1  C4  UNL     1      18.937  49.464   9.969  1.00  0.00     0.139 C 
HETATM    2  N2  UNL     1      19.025  50.582   9.424  1.00  0.00    -0.362 N 
ATOM      3  H2  UNL     1      19.945  50.942   9.172  1.00  0.00     0.162 HD
HETATM    4  C5  UNL     1      17.892  51.353   9.149  1.00  0.00     0.139 C 
HETATM    5  C6  UNL     1      16.629  50.551   9.172  1.00  0.00     0.112 C 
HETATM    6  S1  UNL     1      17.193  49.169  10.250  1.00  0.00    -0.085 SA
HETATM    7  C7  UNL     1      16.340  50.085   7.788  1.00  0.00     0.166 C 
HETATM    8  C8  UNL     1      17.570  50.474   7.003  1.00  0.00     0.186 C 
HETATM    9  C9  UNL     1      17.952  51.776   7.672  1.00  0.00     0.128 C 
ENDROOT
BRANCH   1  10
HETATM   10  N1  UNL     1      20.018  48.604  10.292  1.00  0.00    -0.342 N 
ATOM     11  H1  UNL     1      20.214  47.773   9.734  1.00  0.00     0.164 HD
BRANCH  10  12
HETATM   12  C3  UNL     1      20.832  48.940  11.433  1.00  0.00     0.254 C 
HETATM   13  O2  UNL     1      20.269  50.068  12.026  1.00  0.00    -0.354 OA
HETATM   14  C2  UNL     1      19.172  49.743  12.820  1.00  0.00     0.179 C 
HETATM   15  C13 UNL     1      19.676  49.144  14.099  1.00  0.00     0.180 C 
HETATM   16  C12 UNL     1      20.921  48.350  13.802  1.00  0.00     0.182 C 
HETATM   17  C11 UNL     1      20.948  47.792  12.406  1.00  0.00     0.198 C 
BRANCH  14  18
HETATM   18  C1  UNL     1      18.427  51.015  13.147  1.00  0.00     0.198 C 
BRANCH  18  19
HETATM   19  O1  UNL     1      18.733  51.497  14.415  1.00  0.00    -0.398 OA
ATOM     20  H1  UNL     1      18.004  51.957  14.812  1.00  0.00     0.209 HD
ENDBRANCH  18  19
ENDBRANCH  14  18
BRANCH  15  21
HETATM   21  O9  UNL     1      18.714  48.331  14.719  1.00  0.00    -0.390 OA
ATOM     22  H9  UNL     1      18.732  48.412  15.666  1.00  0.00     0.210 HD
ENDBRANCH  15  21
BRANCH  16  23
HETATM   23  O8  UNL     1      22.022  49.193  13.947  1.00  0.00    -0.390 OA
ATOM     24  H8  UNL     1      22.356  49.387  13.079  1.00  0.00     0.210 HD
ENDBRANCH  16  23
BRANCH  17  25
HETATM   25  O7  UNL     1      19.923  46.863  12.237  1.00  0.00    -0.389 OA
ATOM     26  H7  UNL     1      19.836  46.291  12.991  1.00  0.00     0.210 HD
ENDBRANCH  17  25
ENDBRANCH  10  12
ENDBRANCH   1  10
BRANCH   9  27
HETATM   27  O5  UNL     1      17.027  52.770   7.430  1.00  0.00    -0.383 OA
ATOM     28  H5  UNL     1      17.034  53.002   6.508  1.00  0.00     0.210 HD
ENDBRANCH   9  27
BRANCH   9  29
HETATM   29  C10 UNL     1      19.356  52.200   7.299  1.00  0.00     0.206 C 
BRANCH  29  30
HETATM   30  O6  UNL     1      19.371  52.343   5.910  1.00  0.00    -0.398 OA
ATOM     31  H6  UNL     1      19.330  51.466   5.547  1.00  0.00     0.209 HD
ENDBRANCH  29  30
ENDBRANCH   9  29
BRANCH   7  32
HETATM   32  O3  UNL     1      15.258  50.838   7.304  1.00  0.00    -0.392 OA
ATOM     33  H3  UNL     1      15.603  51.661   6.978  1.00  0.00     0.210 HD
ENDBRANCH   7  32
BRANCH   8  34
HETATM   34  O4  UNL     1      18.561  49.533   7.238  1.00  0.00    -0.390 OA
ATOM     35  H4  UNL     1      18.448  48.815   6.626  1.00  0.00     0.210 HD
ENDBRANCH   8  34
TORSDOF 12
ENDMDL
