MODEL 4
REMARK VINA RESULT: -7.480803440      1.906      6.775
REMARK  12 active torsions:
REMARK  status: ('A' for Active; 'I' for Inactive)
REMARK    1  A    between atoms: O1_1  and  C1_3 
REMARK    2  A    between atoms: C1_3  and  C2_4 
REMARK    3  A    between atoms: C3_6  and  N1_7 
REMARK    4  A    between atoms: N1_7  and  C4_9 
REMARK    5  A    between atoms: C7_15  and  O3_16 
REMARK    6  A    between atoms: C8_18  and  O4_19 
REMARK    7  A    between atoms: C9_21  and  O5_22 
REMARK    8  A    between atoms: C9_21  and  C10_24 
REMARK    9  A    between atoms: C10_24  and  O6_25 
REMARK   10  A    between atoms: C11_27  and  O7_28 
REMARK   11  A    between atoms: C12_30  and  O8_31 
REMARK   12  A    between atoms: C13_33  and  O9_34 
ROOT
HETATM    1  C4  UNL     1      17.612  50.785  10.201  1.00  0.00     0.139 C 
HETATM    2  N2  UNL     1      17.715  51.622   9.282  1.00  0.00    -0.362 N 
ATOM      3  H2  UNL     1      18.450  52.327   9.331  1.00  0.00     0.162 HD
HETATM    4  C5  UNL     1      16.848  51.617   8.186  1.00  0.00     0.139 C 
HETATM    5  C6  UNL     1      16.122  50.317   8.031  1.00  0.00     0.112 C 
HETATM    6  S1  UNL     1      16.236  49.722   9.770  1.00  0.00    -0.085 SA
HETATM    7  C7  UNL     1      16.898  49.451   7.102  1.00  0.00     0.166 C 
HETATM    8  C8  UNL     1      18.185  50.209   6.880  1.00  0.00     0.186 C 
HETATM    9  C9  UNL     1      17.698  51.641   6.906  1.00  0.00     0.128 C 
ENDROOT
BRANCH   1  10
HETATM   10  N1  UNL     1      18.436  50.702  11.352  1.00  0.00    -0.342 N 
ATOM     11  H1  UNL     1      19.161  51.398  11.531  1.00  0.00     0.164 HD
BRANCH  10  12
HETATM   12  C3  UNL     1      18.218  49.606  12.262  1.00  0.00     0.254 C 
HETATM   13  O2  UNL     1      19.023  48.550  11.839  1.00  0.00    -0.354 OA
HETATM   14  C2  UNL     1      20.345  48.712  12.245  1.00  0.00     0.179 C 
HETATM   15  C13 UNL     1      20.435  48.386  13.705  1.00  0.00     0.180 C 
HETATM   16  C12 UNL     1      19.160  48.824  14.377  1.00  0.00     0.182 C 
HETATM   17  C11 UNL     1      18.503  49.992  13.694  1.00  0.00     0.198 C 
BRANCH  14  18
HETATM   18  C1  UNL     1      21.201  47.730  11.480  1.00  0.00     0.198 C 
BRANCH  18  19
HETATM   19  O1  UNL     1      20.481  46.620  11.055  1.00  0.00    -0.398 OA
ATOM     20  H1  UNL     1      20.500  45.913  11.688  1.00  0.00     0.209 HD
ENDBRANCH  18  19
ENDBRANCH  14  18
BRANCH  15  21
HETATM   21  O9  UNL     1      21.543  48.992  14.317  1.00  0.00    -0.390 OA
ATOM     22  H9  UNL     1      21.339  49.857  14.654  1.00  0.00     0.210 HD
ENDBRANCH  15  21
BRANCH  16  23
HETATM   23  O8  UNL     1      18.264  47.756  14.354  1.00  0.00    -0.390 OA
ATOM     24  H8  UNL     1      18.099  47.534  13.445  1.00  0.00     0.210 HD
ENDBRANCH  16  23
BRANCH  17  25
HETATM   25  O7  UNL     1      19.317  51.120  13.776  1.00  0.00    -0.389 OA
ATOM     26  H7  UNL     1      19.971  51.035  14.460  1.00  0.00     0.210 HD
ENDBRANCH  17  25
ENDBRANCH  10  12
ENDBRANCH   1  10
BRANCH   9  27
HETATM   27  O5  UNL     1      16.902  51.933   5.818  1.00  0.00    -0.383 OA
ATOM     28  H5  UNL     1      17.413  51.880   5.018  1.00  0.00     0.210 HD
ENDBRANCH   9  27
BRANCH   9  29
HETATM   29  C10 UNL     1      18.847  52.614   7.051  1.00  0.00     0.206 C 
BRANCH  29  30
HETATM   30  O6  UNL     1      19.800  52.249   6.098  1.00  0.00    -0.398 OA
ATOM     31  H6  UNL     1      20.371  51.614   6.516  1.00  0.00     0.209 HD
ENDBRANCH  29  30
ENDBRANCH   9  29
BRANCH   7  32
HETATM   32  O3  UNL     1      16.203  49.406   5.883  1.00  0.00    -0.392 OA
ATOM     33  H3  UNL     1      16.487  50.148   5.362  1.00  0.00     0.210 HD
ENDBRANCH   7  32
BRANCH   8  34
HETATM   34  O4  UNL     1      19.020  49.991   7.966  1.00  0.00    -0.390 OA
ATOM     35  H4  UNL     1      19.781  49.504   7.671  1.00  0.00     0.210 HD
ENDBRANCH   8  34
TORSDOF 12
ENDMDL
