MODEL 1
REMARK VINA RESULT: -7.684218187      0.000      0.000
REMARK  12 active torsions:
REMARK  status: ('A' for Active; 'I' for Inactive)
REMARK    1  A    between atoms: O1_1  and  C1_3 
REMARK    2  A    between atoms: C1_3  and  C2_4 
REMARK    3  A    between atoms: C3_6  and  N1_7 
REMARK    4  A    between atoms: N1_7  and  C4_9 
REMARK    5  A    between atoms: C7_15  and  O3_16 
REMARK    6  A    between atoms: C8_18  and  O4_19 
REMARK    7  A    between atoms: C9_21  and  O5_22 
REMARK    8  A    between atoms: C9_21  and  C10_24 
REMARK    9  A    between atoms: C10_24  and  O6_25 
REMARK   10  A    between atoms: C11_27  and  O7_28 
REMARK   11  A    between atoms: C12_30  and  O8_31 
REMARK   12  A    between atoms: C13_33  and  O9_34 
ROOT
HETATM    1  C4  UNL     1      20.253  49.177  10.627  1.00  0.00     0.139 C 
HETATM    2  N2  UNL     1      20.189  49.769  11.723  1.00  0.00    -0.362 N 
ATOM      3  H2  UNL     1      19.918  50.752  11.744  1.00  0.00     0.162 HD
HETATM    4  C5  UNL     1      20.481  49.116  12.924  1.00  0.00     0.139 C 
HETATM    5  C6  UNL     1      20.444  47.626  12.796  1.00  0.00     0.112 C 
HETATM    6  S1  UNL     1      20.746  47.493  10.984  1.00  0.00    -0.085 SA
HETATM    7  C7  UNL     1      19.081  47.154  13.161  1.00  0.00     0.166 C 
HETATM    8  C8  UNL     1      18.279  48.425  13.316  1.00  0.00     0.186 C 
HETATM    9  C9  UNL     1      19.315  49.363  13.895  1.00  0.00     0.128 C 
ENDROOT
BRANCH   1  10
HETATM   10  N1  UNL     1      19.979  49.743   9.356  1.00  0.00    -0.342 N 
ATOM     11  H1  UNL     1      20.329  49.309   8.501  1.00  0.00     0.164 HD
BRANCH  10  12
HETATM   12  C3  UNL     1      19.193  50.950   9.307  1.00  0.00     0.254 C 
HETATM   13  O2  UNL     1      19.617  51.676   8.196  1.00  0.00    -0.354 OA
HETATM   14  C2  UNL     1      19.062  51.188   7.015  1.00  0.00     0.179 C 
HETATM   15  C13 UNL     1      17.633  51.635   6.944  1.00  0.00     0.180 C 
HETATM   16  C12 UNL     1      17.064  51.659   8.338  1.00  0.00     0.182 C 
HETATM   17  C11 UNL     1      17.712  50.660   9.258  1.00  0.00     0.198 C 
BRANCH  14  18
HETATM   18  C1  UNL     1      19.813  51.791   5.852  1.00  0.00     0.198 C 
BRANCH  18  19
HETATM   19  O1  UNL     1      19.221  52.960   5.390  1.00  0.00    -0.398 OA
ATOM     20  H1  UNL     1      19.371  53.099   4.462  1.00  0.00     0.209 HD
ENDBRANCH  18  19
ENDBRANCH  14  18
BRANCH  15  21
HETATM   21  O9  UNL     1      16.859  50.808   6.115  1.00  0.00    -0.390 OA
ATOM     22  H9  UNL     1      16.144  51.280   5.704  1.00  0.00     0.210 HD
ENDBRANCH  15  21
BRANCH  16  23
HETATM   23  O8  UNL     1      17.271  52.930   8.873  1.00  0.00    -0.390 OA
ATOM     24  H8  UNL     1      16.507  53.156   9.390  1.00  0.00     0.210 HD
ENDBRANCH  16  23
BRANCH  17  25
HETATM   25  O7  UNL     1      17.450  49.363   8.824  1.00  0.00    -0.389 OA
ATOM     26  H7  UNL     1      16.534  49.241   8.606  1.00  0.00     0.210 HD
ENDBRANCH  17  25
ENDBRANCH  10  12
ENDBRANCH   1  10
BRANCH   9  27
HETATM   27  O5  UNL     1      19.682  48.997  15.174  1.00  0.00    -0.383 OA
ATOM     28  H5  UNL     1      20.580  49.260  15.342  1.00  0.00     0.210 HD
ENDBRANCH   9  27
BRANCH   9  29
HETATM   29  C10 UNL     1      18.860  50.804  13.822  1.00  0.00     0.206 C 
BRANCH  29  30
HETATM   30  O6  UNL     1      19.445  51.461  14.906  1.00  0.00    -0.398 OA
ATOM     31  H6  UNL     1      20.204  51.920  14.566  1.00  0.00     0.209 HD
ENDBRANCH  29  30
ENDBRANCH   9  29
BRANCH   7  32
HETATM   32  O3  UNL     1      19.167  46.538  14.420  1.00  0.00    -0.392 OA
ATOM     33  H3  UNL     1      19.087  47.218  15.079  1.00  0.00     0.210 HD
ENDBRANCH   7  32
BRANCH   8  34
HETATM   34  O4  UNL     1      17.913  48.873  12.055  1.00  0.00    -0.390 OA
ATOM     35  H4  UNL     1      18.192  49.776  11.961  1.00  0.00     0.210 HD
ENDBRANCH   8  34
TORSDOF 12
ENDMDL
