MODEL 10
REMARK VINA RESULT: -6.921110650      1.188      1.515
REMARK  12 active torsions:
REMARK  status: ('A' for Active; 'I' for Inactive)
REMARK    1  A    between atoms: O1_1  and  C1_3 
REMARK    2  A    between atoms: C1_3  and  C2_4 
REMARK    3  A    between atoms: C3_6  and  N1_7 
REMARK    4  A    between atoms: N1_7  and  C4_9 
REMARK    5  A    between atoms: C7_15  and  O3_16 
REMARK    6  A    between atoms: C8_18  and  O4_19 
REMARK    7  A    between atoms: C9_21  and  O5_22 
REMARK    8  A    between atoms: C9_21  and  C10_24 
REMARK    9  A    between atoms: C10_24  and  O6_25 
REMARK   10  A    between atoms: C11_27  and  O7_28 
REMARK   11  A    between atoms: C12_30  and  O8_31 
REMARK   12  A    between atoms: C13_33  and  O9_34 
ROOT
HETATM    1  C4  UNL     1      19.874  49.722  10.444  1.00  0.00     0.139 C 
HETATM    2  N2  UNL     1      19.883  50.159  11.612  1.00  0.00    -0.362 N 
ATOM      3  H2  UNL     1      19.622  51.130  11.783  1.00  0.00     0.162 HD
HETATM    4  C5  UNL     1      20.243  49.350  12.693  1.00  0.00     0.139 C 
HETATM    5  C6  UNL     1      20.185  47.891  12.367  1.00  0.00     0.112 C 
HETATM    6  S1  UNL     1      20.373  48.005  10.538  1.00  0.00    -0.085 SA
HETATM    7  C7  UNL     1      18.843  47.374  12.750  1.00  0.00     0.166 C 
HETATM    8  C8  UNL     1      18.064  48.613  13.124  1.00  0.00     0.186 C 
HETATM    9  C9  UNL     1      19.142  49.463  13.760  1.00  0.00     0.128 C 
ENDROOT
BRANCH   1  10
HETATM   10  N1  UNL     1      19.527  50.455   9.280  1.00  0.00    -0.342 N 
ATOM     11  H1  UNL     1      20.229  50.990   8.768  1.00  0.00     0.164 HD
BRANCH  10  12
HETATM   12  C3  UNL     1      18.154  50.422   8.844  1.00  0.00     0.254 C 
HETATM   13  O2  UNL     1      17.717  51.741   8.749  1.00  0.00    -0.354 OA
HETATM   14  C2  UNL     1      18.147  52.346   7.571  1.00  0.00     0.179 C 
HETATM   15  C13 UNL     1      17.304  51.833   6.442  1.00  0.00     0.180 C 
HETATM   16  C12 UNL     1      16.955  50.394   6.715  1.00  0.00     0.182 C 
HETATM   17  C11 UNL     1      17.991  49.680   7.539  1.00  0.00     0.198 C 
BRANCH  14  18
HETATM   18  C1  UNL     1      17.930  53.835   7.693  1.00  0.00     0.198 C 
BRANCH  18  19
HETATM   19  O1  UNL     1      18.239  54.513   6.520  1.00  0.00    -0.398 OA
ATOM     20  H1  UNL     1      19.175  54.547   6.358  1.00  0.00     0.209 HD
ENDBRANCH  18  19
ENDBRANCH  14  18
BRANCH  15  21
HETATM   21  O9  UNL     1      17.950  51.952   5.201  1.00  0.00    -0.390 OA
ATOM     22  H9  UNL     1      17.535  52.598   4.641  1.00  0.00     0.210 HD
ENDBRANCH  15  21
BRANCH  16  23
HETATM   23  O8  UNL     1      15.752  50.362   7.420  1.00  0.00    -0.390 OA
ATOM     24  H8  UNL     1      15.138  49.833   6.924  1.00  0.00     0.210 HD
ENDBRANCH  16  23
BRANCH  17  25
HETATM   25  O7  UNL     1      19.192  49.595   6.837  1.00  0.00    -0.389 OA
ATOM     26  H7  UNL     1      19.141  48.968   6.124  1.00  0.00     0.210 HD
ENDBRANCH  17  25
ENDBRANCH  10  12
ENDBRANCH   1  10
BRANCH   9  27
HETATM   27  O5  UNL     1      19.584  48.928  14.952  1.00  0.00    -0.383 OA
ATOM     28  H5  UNL     1      18.917  48.358  15.319  1.00  0.00     0.210 HD
ENDBRANCH   9  27
BRANCH   9  29
HETATM   29  C10 UNL     1      18.695  50.901  13.910  1.00  0.00     0.206 C 
BRANCH  29  30
HETATM   30  O6  UNL     1      19.420  51.432  14.980  1.00  0.00    -0.398 OA
ATOM     31  H6  UNL     1      18.867  52.095  15.378  1.00  0.00     0.209 HD
ENDBRANCH  29  30
ENDBRANCH   9  29
BRANCH   7  32
HETATM   32  O3  UNL     1      19.002  46.594  13.906  1.00  0.00    -0.392 OA
ATOM     33  H3  UNL     1      18.180  46.144  14.065  1.00  0.00     0.210 HD
ENDBRANCH   7  32
BRANCH   8  34
HETATM   34  O4  UNL     1      17.624  49.228  11.961  1.00  0.00    -0.390 OA
ATOM     35  H4  UNL     1      18.305  49.814  11.652  1.00  0.00     0.210 HD
ENDBRANCH   8  34
TORSDOF 12
ENDMDL
