MODEL 9
REMARK VINA RESULT: -8.416339060      3.541      5.662
REMARK  10 active torsions:
REMARK  status: ('A' for Active; 'I' for Inactive)
REMARK    1  A    between atoms: N2_4  and  C3_5 
REMARK    2  A    between atoms: C4_7  and  C5_8 
REMARK    3  A    between atoms: C5_8  and  O2_9 
REMARK    4  A    between atoms: O2_9  and  P1_10 
REMARK    5  A    between atoms: P1_10  and  O5_13 
REMARK    6  A    between atoms: O5_13  and  P2_14 
REMARK    7  A    between atoms: P2_14  and  O8_17 
REMARK    8  A    between atoms: O8_17  and  P3_18 
REMARK    9  A    between atoms: C6_22  and  O12_23 
REMARK   10  A    between atoms: C7_25  and  O13_26 
ROOT
HETATM    1  C3  UNL     1     -21.647  11.444  15.141  1.00  0.00     0.258 C 
HETATM    2  O1  UNL     1     -22.096  10.142  15.135  1.00  0.00    -0.354 OA
HETATM    3  C4  UNL     1     -23.267  10.096  14.394  1.00  0.00     0.180 C 
HETATM    4  C6  UNL     1     -23.062  11.140  13.316  1.00  0.00     0.182 C 
HETATM    5  C7  UNL     1     -22.454  12.246  14.153  1.00  0.00     0.198 C 
ENDROOT
BRANCH   1   6
HETATM    6  N2  UNL     1     -20.220  11.511  14.891  1.00  0.00    -0.320 N 
HETATM    7  C2  UNL     1     -19.494  12.019  13.772  1.00  0.00     0.253 C 
HETATM    8  N1  UNL     1     -18.250  12.472  14.369  1.00  0.00    -0.361 N 
HETATM    9  C1  UNL     1     -17.383  13.556  13.943  1.00  0.00     0.152 C 
HETATM   10  C11 UNL     1     -18.031  11.624  15.489  1.00  0.00     0.144 A 
HETATM   11  C8  UNL     1     -19.239  11.036  15.808  1.00  0.00     0.142 A 
HETATM   12  C10 UNL     1     -16.885  11.333  16.236  1.00  0.00     0.278 A 
HETATM   13  N3  UNL     1     -19.252  10.186  16.856  1.00  0.00    -0.314 N 
HETATM   14  C9  UNL     1     -18.151   9.900  17.581  1.00  0.00     0.196 A 
ATOM     15  H3  UNL     1     -20.133   9.740  17.111  1.00  0.00     0.170 HD
HETATM   16  N4  UNL     1     -18.225   8.996  18.673  1.00  0.00    -0.063 NA
HETATM   17  N5  UNL     1     -16.968  10.470  17.275  1.00  0.00    -0.295 N 
ATOM     18  H5  UNL     1     -16.137  10.250  17.825  1.00  0.00     0.171 HD
HETATM   19  O14 UNL     1     -15.808  11.893  15.907  1.00  0.00    -0.265 OA
ENDBRANCH   1   6
BRANCH   5  20
HETATM   20  O13 UNL     1     -23.493  12.899  14.804  1.00  0.00    -0.388 OA
ATOM     21  H13 UNL     1     -24.272  12.898  14.260  1.00  0.00     0.210 HD
ENDBRANCH   5  20
BRANCH   3  22
HETATM   22  C5  UNL     1     -23.553   8.728  13.825  1.00  0.00     0.216 C 
BRANCH  22  23
HETATM   23  O2  UNL     1     -22.689   7.779  14.322  1.00  0.00    -0.287 OA
BRANCH  23  24
HETATM   24  P1  UNL     1     -21.707   7.142  13.123  1.00  0.00     0.417 P 
HETATM   25  O3  UNL     1     -22.252   7.462  11.731  1.00  0.00    -0.624 OA
HETATM   26  O4  UNL     1     -21.609   5.452  13.242  1.00  0.00    -0.624 OA
BRANCH  24  27
HETATM   27  O5  UNL     1     -20.152   7.810  13.186  1.00  0.00    -0.180 OA
BRANCH  27  28
HETATM   28  P2  UNL     1     -19.376   7.193  14.579  1.00  0.00     0.428 P 
HETATM   29  O6  UNL     1     -20.384   7.342  15.718  1.00  0.00    -0.624 OA
HETATM   30  O7  UNL     1     -18.032   8.125  14.977  1.00  0.00    -0.624 OA
BRANCH  28  31
HETATM   31  O8  UNL     1     -18.982   5.566  14.352  1.00  0.00    -0.173 OA
BRANCH  31  32
HETATM   32  P3  UNL     1     -17.830   5.482  13.117  1.00  0.00     0.431 P 
HETATM   33  O9  UNL     1     -16.579   4.770  13.582  1.00  0.00    -0.616 OA
HETATM   34  O10 UNL     1     -17.349   7.038  12.615  1.00  0.00    -0.616 OA
HETATM   35  O11 UNL     1     -18.485   4.675  11.795  1.00  0.00    -0.616 OA
ENDBRANCH  31  32
ENDBRANCH  28  31
ENDBRANCH  27  28
ENDBRANCH  24  27
ENDBRANCH  23  24
ENDBRANCH  22  23
ENDBRANCH   3  22
BRANCH   4  36
HETATM   36  O12 UNL     1     -24.263  11.531  12.737  1.00  0.00    -0.390 OA
ATOM     37  H12 UNL     1     -24.133  12.169  12.045  1.00  0.00     0.210 HD
ENDBRANCH   4  36
TORSDOF 10
ENDMDL
