MODEL 6
REMARK VINA RESULT: -8.455821031      3.894      6.382
REMARK  10 active torsions:
REMARK  status: ('A' for Active; 'I' for Inactive)
REMARK    1  A    between atoms: N2_4  and  C3_5 
REMARK    2  A    between atoms: C4_7  and  C5_8 
REMARK    3  A    between atoms: C5_8  and  O2_9 
REMARK    4  A    between atoms: O2_9  and  P1_10 
REMARK    5  A    between atoms: P1_10  and  O5_13 
REMARK    6  A    between atoms: O5_13  and  P2_14 
REMARK    7  A    between atoms: P2_14  and  O8_17 
REMARK    8  A    between atoms: O8_17  and  P3_18 
REMARK    9  A    between atoms: C6_22  and  O12_23 
REMARK   10  A    between atoms: C7_25  and  O13_26 
ROOT
HETATM    1  C3  UNL     1     -21.837  11.022  15.013  1.00  0.00     0.258 C 
HETATM    2  O1  UNL     1     -21.757   9.739  15.507  1.00  0.00    -0.354 OA
HETATM    3  C4  UNL     1     -22.677   8.959  14.825  1.00  0.00     0.180 C 
HETATM    4  C6  UNL     1     -22.696   9.546  13.429  1.00  0.00     0.182 C 
HETATM    5  C7  UNL     1     -22.702  11.020  13.780  1.00  0.00     0.198 C 
ENDROOT
BRANCH   1   6
HETATM    6  N2  UNL     1     -20.519  11.580  14.778  1.00  0.00    -0.320 N 
HETATM    7  C2  UNL     1     -19.905  12.042  13.575  1.00  0.00     0.253 C 
HETATM    8  N1  UNL     1     -19.003  13.077  14.046  1.00  0.00    -0.361 N 
HETATM    9  C1  UNL     1     -18.558  14.275  13.356  1.00  0.00     0.152 C 
HETATM   10  C11 UNL     1     -18.621  12.686  15.359  1.00  0.00     0.144 A 
HETATM   11  C8  UNL     1     -19.551  11.769  15.806  1.00  0.00     0.142 A 
HETATM   12  C10 UNL     1     -17.550  13.060  16.176  1.00  0.00     0.278 A 
HETATM   13  N3  UNL     1     -19.373  11.266  17.046  1.00  0.00    -0.314 N 
HETATM   14  C9  UNL     1     -18.342  11.622  17.839  1.00  0.00     0.196 A 
ATOM     15  H3  UNL     1     -20.048  10.587  17.398  1.00  0.00     0.170 HD
HETATM   16  N4  UNL     1     -18.206  11.058  19.135  1.00  0.00    -0.063 NA
HETATM   17  N5  UNL     1     -17.429  12.516  17.410  1.00  0.00    -0.295 N 
ATOM     18  H5  UNL     1     -16.651  12.782  18.012  1.00  0.00     0.171 HD
HETATM   19  O14 UNL     1     -16.728  13.899  15.724  1.00  0.00    -0.265 OA
ENDBRANCH   1   6
BRANCH   5  20
HETATM   20  O13 UNL     1     -24.005  11.368  14.109  1.00  0.00    -0.388 OA
ATOM     21  H13 UNL     1     -24.330  12.028  13.508  1.00  0.00     0.210 HD
ENDBRANCH   5  20
BRANCH   3  22
HETATM   22  C5  UNL     1     -22.327   7.492  14.829  1.00  0.00     0.216 C 
BRANCH  22  23
HETATM   23  O2  UNL     1     -21.061   7.272  15.322  1.00  0.00    -0.287 OA
BRANCH  23  24
HETATM   24  P1  UNL     1     -19.976   6.886  14.105  1.00  0.00     0.417 P 
HETATM   25  O3  UNL     1     -20.702   6.540  12.804  1.00  0.00    -0.624 OA
HETATM   26  O4  UNL     1     -19.037   5.538  14.524  1.00  0.00    -0.624 OA
BRANCH  24  27
HETATM   27  O5  UNL     1     -18.966   8.198  13.747  1.00  0.00    -0.180 OA
BRANCH  27  28
HETATM   28  P2  UNL     1     -17.777   8.288  14.972  1.00  0.00     0.428 P 
HETATM   29  O6  UNL     1     -17.119   9.658  14.813  1.00  0.00    -0.624 OA
HETATM   30  O7  UNL     1     -16.581   7.128  14.731  1.00  0.00    -0.624 OA
BRANCH  28  31
HETATM   31  O8  UNL     1     -18.499   8.156  16.494  1.00  0.00    -0.173 OA
BRANCH  31  32
HETATM   32  P3  UNL     1     -17.294   7.728  17.601  1.00  0.00     0.431 P 
HETATM   33  O9  UNL     1     -16.115   8.670  17.519  1.00  0.00    -0.616 OA
HETATM   34  O10 UNL     1     -16.694   6.164  17.285  1.00  0.00    -0.616 OA
HETATM   35  O11 UNL     1     -17.933   7.749  19.156  1.00  0.00    -0.616 OA
ENDBRANCH  31  32
ENDBRANCH  28  31
ENDBRANCH  27  28
ENDBRANCH  24  27
ENDBRANCH  23  24
ENDBRANCH  22  23
ENDBRANCH   3  22
BRANCH   4  36
HETATM   36  O12 UNL     1     -23.836   9.178  12.726  1.00  0.00    -0.390 OA
ATOM     37  H12 UNL     1     -24.290   9.931  12.366  1.00  0.00     0.210 HD
ENDBRANCH   4  36
TORSDOF 10
ENDMDL
