MODEL 7
REMARK VINA RESULT: -8.437786440      2.472      5.679
REMARK  10 active torsions:
REMARK  status: ('A' for Active; 'I' for Inactive)
REMARK    1  A    between atoms: N2_4  and  C3_5 
REMARK    2  A    between atoms: C4_7  and  C5_8 
REMARK    3  A    between atoms: C5_8  and  O2_9 
REMARK    4  A    between atoms: O2_9  and  P1_10 
REMARK    5  A    between atoms: P1_10  and  O5_13 
REMARK    6  A    between atoms: O5_13  and  P2_14 
REMARK    7  A    between atoms: P2_14  and  O8_17 
REMARK    8  A    between atoms: O8_17  and  P3_18 
REMARK    9  A    between atoms: C6_22  and  O12_23 
REMARK   10  A    between atoms: C7_25  and  O13_26 
ROOT
HETATM    1  C3  UNL     1     -15.852   9.118  13.331  1.00  0.00     0.258 C 
HETATM    2  O1  UNL     1     -16.755   9.070  14.369  1.00  0.00    -0.354 OA
HETATM    3  C4  UNL     1     -17.578   7.973  14.171  1.00  0.00     0.180 C 
HETATM    4  C6  UNL     1     -16.674   6.947  13.520  1.00  0.00     0.182 C 
HETATM    5  C7  UNL     1     -15.951   7.843  12.535  1.00  0.00     0.198 C 
ENDROOT
BRANCH   1   6
HETATM    6  N2  UNL     1     -14.509   9.380  13.813  1.00  0.00    -0.320 N 
HETATM    7  C2  UNL     1     -13.340   8.562  13.803  1.00  0.00     0.253 C 
HETATM    8  N1  UNL     1     -12.263   9.532  13.711  1.00  0.00    -0.361 N 
HETATM    9  C1  UNL     1     -10.957   9.380  13.094  1.00  0.00     0.152 C 
HETATM   10  C11 UNL     1     -12.743  10.701  14.362  1.00  0.00     0.144 A 
HETATM   11  C8  UNL     1     -14.119  10.607  14.423  1.00  0.00     0.142 A 
HETATM   12  C10 UNL     1     -12.087  11.816  14.892  1.00  0.00     0.278 A 
HETATM   13  N3  UNL     1     -14.780  11.627  15.009  1.00  0.00    -0.314 N 
HETATM   14  C9  UNL     1     -14.155  12.706  15.524  1.00  0.00     0.196 A 
ATOM     15  H3  UNL     1     -15.797  11.581  15.066  1.00  0.00     0.170 HD
HETATM   16  N4  UNL     1     -14.904  13.749  16.130  1.00  0.00    -0.063 NA
HETATM   17  N5  UNL     1     -12.811  12.805  15.468  1.00  0.00    -0.295 N 
ATOM     18  H5  UNL     1     -12.342  13.622  15.858  1.00  0.00     0.171 HD
HETATM   19  O14 UNL     1     -10.833  11.856  14.813  1.00  0.00    -0.265 OA
ENDBRANCH   1   6
BRANCH   5  20
HETATM   20  O13 UNL     1     -16.787   8.026  11.442  1.00  0.00    -0.388 OA
ATOM     21  H13 UNL     1     -16.948   8.952  11.304  1.00  0.00     0.210 HD
ENDBRANCH   5  20
BRANCH   3  22
HETATM   22  C5  UNL     1     -18.203   7.464  15.446  1.00  0.00     0.216 C 
BRANCH  22  23
HETATM   23  O2  UNL     1     -18.479   8.489  16.322  1.00  0.00    -0.287 OA
BRANCH  23  24
HETATM   24  P1  UNL     1     -17.374   8.548  17.580  1.00  0.00     0.417 P 
HETATM   25  O3  UNL     1     -16.337   7.431  17.461  1.00  0.00    -0.624 OA
HETATM   26  O4  UNL     1     -18.141   8.356  19.081  1.00  0.00    -0.624 OA
BRANCH  24  27
HETATM   27  O5  UNL     1     -16.506  10.002  17.564  1.00  0.00    -0.180 OA
BRANCH  27  28
HETATM   28  P2  UNL     1     -17.625  11.274  17.336  1.00  0.00     0.428 P 
HETATM   29  O6  UNL     1     -18.918  10.818  18.010  1.00  0.00    -0.624 OA
HETATM   30  O7  UNL     1     -17.963  11.488  15.700  1.00  0.00    -0.624 OA
BRANCH  28  31
HETATM   31  O8  UNL     1     -17.051  12.689  18.060  1.00  0.00    -0.173 OA
BRANCH  31  32
HETATM   32  P3  UNL     1     -17.837  12.862  19.548  1.00  0.00     0.431 P 
HETATM   33  O9  UNL     1     -17.098  13.825  20.449  1.00  0.00    -0.616 OA
HETATM   34  O10 UNL     1     -17.917  11.377  20.379  1.00  0.00    -0.616 OA
HETATM   35  O11 UNL     1     -19.405  13.413  19.290  1.00  0.00    -0.616 OA
ENDBRANCH  31  32
ENDBRANCH  28  31
ENDBRANCH  27  28
ENDBRANCH  24  27
ENDBRANCH  23  24
ENDBRANCH  22  23
ENDBRANCH   3  22
BRANCH   4  36
HETATM   36  O12 UNL     1     -17.398   5.950  12.876  1.00  0.00    -0.390 OA
ATOM     37  H12 UNL     1     -18.273   5.859  13.234  1.00  0.00     0.210 HD
ENDBRANCH   4  36
TORSDOF 10
ENDMDL
