MODEL 3
REMARK VINA RESULT: -7.020022704      2.750      6.383
REMARK  5 active torsions:
REMARK  status: ('A' for Active; 'I' for Inactive)
REMARK    1  A    between atoms: C1_2  and  C2_4 
REMARK    2  A    between atoms: C2_4  and  C3_5 
REMARK    3  A    between atoms: C3_5  and  C4_6 
REMARK    4  A    between atoms: C4_6  and  C5_7 
REMARK    5  A    between atoms: C5_7  and  C6_8 
ROOT
HETATM    1  C6  UNL     1      37.649  10.804  52.051  1.00  0.00     0.072 C 
HETATM    2  S1  UNL     1      38.375  12.444  51.655  1.00  0.00    -0.160 SA
HETATM    3  C7  UNL     1      40.141  11.994  51.870  1.00  0.00     0.101 C 
HETATM    4  C8  UNL     1      40.037  10.645  52.488  1.00  0.00     0.119 C 
HETATM    5  N1  UNL     1      41.135   9.837  51.938  1.00  0.00    -0.336 N 
ATOM      6  H1  UNL     1      42.022   9.603  52.383  1.00  0.00     0.164 HD
HETATM    7  C9  UNL     1      40.682   9.455  50.645  1.00  0.00     0.316 C 
HETATM    8  O3  UNL     1      41.440   9.012  49.735  1.00  0.00    -0.247 OA
HETATM    9  N2  UNL     1      39.258   9.661  50.575  1.00  0.00    -0.335 N 
ATOM     10  H2  UNL     1      38.666   9.622  49.744  1.00  0.00     0.164 HD
HETATM   11  C10 UNL     1      38.850   9.932  51.919  1.00  0.00     0.123 C 
ENDROOT
BRANCH   1  12
HETATM   12  C5  UNL     1      36.539  10.470  51.120  1.00  0.00     0.017 C 
BRANCH  12  13
HETATM   13  C4  UNL     1      35.403   9.881  51.919  1.00  0.00     0.002 C 
BRANCH  13  14
HETATM   14  C3  UNL     1      34.210  10.787  51.994  1.00  0.00     0.010 C 
BRANCH  14  15
HETATM   15  C2  UNL     1      34.048  11.388  53.367  1.00  0.00     0.113 C 
BRANCH  15  16
HETATM   16  C1  UNL     1      34.612  12.745  53.461  1.00  0.00     0.172 C 
HETATM   17  O1  UNL     1      35.670  12.976  54.079  1.00  0.00    -0.648 OA
HETATM   18  O2  UNL     1      33.962  13.792  52.852  1.00  0.00    -0.648 OA
ENDBRANCH  15  16
ENDBRANCH  14  15
ENDBRANCH  13  14
ENDBRANCH  12  13
ENDBRANCH   1  12
TORSDOF 5
ENDMDL
