MODEL 2
REMARK VINA RESULT: -7.270619676      2.613      6.304
REMARK  5 active torsions:
REMARK  status: ('A' for Active; 'I' for Inactive)
REMARK    1  A    between atoms: C1_2  and  C2_4 
REMARK    2  A    between atoms: C2_4  and  C3_5 
REMARK    3  A    between atoms: C3_5  and  C4_6 
REMARK    4  A    between atoms: C4_6  and  C5_7 
REMARK    5  A    between atoms: C5_7  and  C6_8 
ROOT
HETATM    1  C6  UNL     1      37.192  10.647  52.151  1.00  0.00     0.072 C 
HETATM    2  S1  UNL     1      37.639  12.427  52.224  1.00  0.00    -0.160 SA
HETATM    3  C7  UNL     1      39.457  12.235  52.060  1.00  0.00     0.101 C 
HETATM    4  C8  UNL     1      39.621  10.765  52.214  1.00  0.00     0.119 C 
HETATM    5  N1  UNL     1      40.698  10.358  51.300  1.00  0.00    -0.336 N 
ATOM      6  H1  UNL     1      41.669  10.151  51.531  1.00  0.00     0.164 HD
HETATM    7  C9  UNL     1      40.080  10.316  50.019  1.00  0.00     0.316 C 
HETATM    8  O3  UNL     1      40.720  10.303  48.928  1.00  0.00    -0.247 OA
HETATM    9  N2  UNL     1      38.650  10.292  50.196  1.00  0.00    -0.335 N 
ATOM     10  H2  UNL     1      37.935  10.409  49.478  1.00  0.00     0.164 HD
HETATM   11  C10 UNL     1      38.448  10.071  51.595  1.00  0.00     0.123 C 
ENDROOT
BRANCH   1  12
HETATM   12  C5  UNL     1      35.987  10.432  51.306  1.00  0.00     0.017 C 
BRANCH  12  13
HETATM   13  C4  UNL     1      34.860   9.958  52.190  1.00  0.00     0.002 C 
BRANCH  13  14
HETATM   14  C3  UNL     1      33.786  10.989  52.369  1.00  0.00     0.010 C 
BRANCH  14  15
HETATM   15  C2  UNL     1      33.836  11.621  53.737  1.00  0.00     0.113 C 
BRANCH  15  16
HETATM   16  C1  UNL     1      34.172  13.054  53.685  1.00  0.00     0.172 C 
HETATM   17  O1  UNL     1      34.149  13.696  52.616  1.00  0.00    -0.648 OA
HETATM   18  O2  UNL     1      34.521  13.709  54.841  1.00  0.00    -0.648 OA
ENDBRANCH  15  16
ENDBRANCH  14  15
ENDBRANCH  13  14
ENDBRANCH  12  13
ENDBRANCH   1  12
TORSDOF 5
ENDMDL
