MODEL 4
REMARK VINA RESULT: -6.956935460      3.302      6.993
REMARK  5 active torsions:
REMARK  status: ('A' for Active; 'I' for Inactive)
REMARK    1  A    between atoms: C1_2  and  C2_4 
REMARK    2  A    between atoms: C2_4  and  C3_5 
REMARK    3  A    between atoms: C3_5  and  C4_6 
REMARK    4  A    between atoms: C4_6  and  C5_7 
REMARK    5  A    between atoms: C5_7  and  C6_8 
ROOT
HETATM    1  C6  UNL     1      39.496  11.032  51.530  1.00  0.00     0.072 C 
HETATM    2  S1  UNL     1      40.154  10.670  49.854  1.00  0.00    -0.160 SA
HETATM    3  C7  UNL     1      41.727   9.877  50.368  1.00  0.00     0.101 C 
HETATM    4  C8  UNL     1      41.754  10.174  51.825  1.00  0.00     0.119 C 
HETATM    5  N1  UNL     1      42.332   8.998  52.491  1.00  0.00    -0.336 N 
ATOM      6  H1  UNL     1      43.283   8.882  52.839  1.00  0.00     0.164 HD
HETATM    7  C9  UNL     1      41.266   8.058  52.540  1.00  0.00     0.316 C 
HETATM    8  O3  UNL     1      41.425   6.822  52.759  1.00  0.00    -0.247 OA
HETATM    9  N2  UNL     1      40.026   8.752  52.303  1.00  0.00    -0.335 N 
ATOM     10  H2  UNL     1      39.109   8.340  52.130  1.00  0.00     0.164 HD
HETATM   11  C10 UNL     1      40.356  10.143  52.361  1.00  0.00     0.123 C 
ENDROOT
BRANCH   1  12
HETATM   12  C5  UNL     1      38.042  10.734  51.611  1.00  0.00     0.017 C 
BRANCH  12  13
HETATM   13  C4  UNL     1      37.384  11.784  52.471  1.00  0.00     0.002 C 
BRANCH  13  14
HETATM   14  C3  UNL     1      35.962  11.451  52.814  1.00  0.00     0.010 C 
BRANCH  14  15
HETATM   15  C2  UNL     1      35.373  12.441  53.786  1.00  0.00     0.113 C 
BRANCH  15  16
HETATM   16  C1  UNL     1      34.823  13.632  53.116  1.00  0.00     0.172 C 
HETATM   17  O1  UNL     1      34.369  13.582  51.955  1.00  0.00    -0.648 OA
HETATM   18  O2  UNL     1      34.806  14.835  53.780  1.00  0.00    -0.648 OA
ENDBRANCH  15  16
ENDBRANCH  14  15
ENDBRANCH  13  14
ENDBRANCH  12  13
ENDBRANCH   1  12
TORSDOF 5
ENDMDL
