MODEL 6
REMARK VINA RESULT: -6.616134487      1.489      1.925
REMARK  5 active torsions:
REMARK  status: ('A' for Active; 'I' for Inactive)
REMARK    1  A    between atoms: C1_2  and  C2_4 
REMARK    2  A    between atoms: C2_4  and  C3_5 
REMARK    3  A    between atoms: C3_5  and  C4_6 
REMARK    4  A    between atoms: C4_6  and  C5_7 
REMARK    5  A    between atoms: C5_7  and  C6_8 
ROOT
HETATM    1  C6  UNL     1      37.675  11.344  52.332  1.00  0.00     0.072 C 
HETATM    2  S1  UNL     1      36.733  10.480  51.013  1.00  0.00    -0.160 SA
HETATM    3  C7  UNL     1      35.100  10.452  51.849  1.00  0.00     0.101 C 
HETATM    4  C8  UNL     1      35.455  10.899  53.222  1.00  0.00     0.119 C 
HETATM    5  N1  UNL     1      34.346  11.739  53.698  1.00  0.00    -0.336 N 
ATOM      6  H1  UNL     1      33.597  11.480  54.339  1.00  0.00     0.164 HD
HETATM    7  C9  UNL     1      34.555  12.995  53.064  1.00  0.00     0.316 C 
HETATM    8  O3  UNL     1      33.668  13.892  52.969  1.00  0.00    -0.247 OA
HETATM    9  N2  UNL     1      35.908  13.045  52.571  1.00  0.00    -0.335 N 
ATOM     10  H2  UNL     1      36.314  13.744  51.948  1.00  0.00     0.164 HD
HETATM   11  C10 UNL     1      36.559  11.907  53.143  1.00  0.00     0.123 C 
ENDROOT
BRANCH   1  12
HETATM   12  C5  UNL     1      38.593  12.362  51.755  1.00  0.00     0.017 C 
BRANCH  12  13
HETATM   13  C4  UNL     1      39.409  11.710  50.667  1.00  0.00     0.002 C 
BRANCH  13  14
HETATM   14  C3  UNL     1      40.584  10.943  51.198  1.00  0.00     0.010 C 
BRANCH  14  15
HETATM   15  C2  UNL     1      40.912   9.751  50.335  1.00  0.00     0.113 C 
BRANCH  15  16
HETATM   16  C1  UNL     1      40.730   8.473  51.045  1.00  0.00     0.172 C 
HETATM   17  O1  UNL     1      40.484   8.429  52.267  1.00  0.00    -0.648 OA
HETATM   18  O2  UNL     1      40.833   7.293  50.350  1.00  0.00    -0.648 OA
ENDBRANCH  15  16
ENDBRANCH  14  15
ENDBRANCH  13  14
ENDBRANCH  12  13
ENDBRANCH   1  12
TORSDOF 5
ENDMDL
