MODEL 1
REMARK VINA RESULT: -7.868452432      0.000      0.000
REMARK  5 active torsions:
REMARK  status: ('A' for Active; 'I' for Inactive)
REMARK    1  A    between atoms: C1_2  and  C2_4 
REMARK    2  A    between atoms: C2_4  and  C3_5 
REMARK    3  A    between atoms: C3_5  and  C4_6 
REMARK    4  A    between atoms: C4_6  and  C5_7 
REMARK    5  A    between atoms: C5_7  and  C6_8 
ROOT
HETATM    1  C6  UNL     1      36.053  10.650  52.370  1.00  0.00     0.072 C 
HETATM    2  S1  UNL     1      34.330  10.484  51.756  1.00  0.00    -0.160 SA
HETATM    3  C7  UNL     1      33.495  11.416  53.098  1.00  0.00     0.101 C 
HETATM    4  C8  UNL     1      34.598  11.585  54.082  1.00  0.00     0.119 C 
HETATM    5  N1  UNL     1      34.435  12.916  54.682  1.00  0.00    -0.336 N 
ATOM      6  H1  UNL     1      34.039  13.146  55.594  1.00  0.00     0.164 HD
HETATM    7  C9  UNL     1      34.954  13.812  53.708  1.00  0.00     0.316 C 
HETATM    8  O3  UNL     1      34.728  15.057  53.703  1.00  0.00    -0.247 OA
HETATM    9  N2  UNL     1      35.749  13.063  52.768  1.00  0.00    -0.335 N 
ATOM     10  H2  UNL     1      36.129  13.390  51.879  1.00  0.00     0.164 HD
HETATM   11  C10 UNL     1      35.891  11.763  53.347  1.00  0.00     0.123 C 
ENDROOT
BRANCH   1  12
HETATM   12  C5  UNL     1      36.993  10.940  51.255  1.00  0.00     0.017 C 
BRANCH  12  13
HETATM   13  C4  UNL     1      38.402  10.910  51.795  1.00  0.00     0.002 C 
BRANCH  13  14
HETATM   14  C3  UNL     1      39.354  11.743  50.991  1.00  0.00     0.010 C 
BRANCH  14  15
HETATM   15  C2  UNL     1      40.018  10.942  49.900  1.00  0.00     0.113 C 
BRANCH  15  16
HETATM   16  C1  UNL     1      41.132  10.120  50.402  1.00  0.00     0.172 C 
HETATM   17  O1  UNL     1      41.447   9.041  49.861  1.00  0.00    -0.648 OA
HETATM   18  O2  UNL     1      41.850  10.546  51.493  1.00  0.00    -0.648 OA
ENDBRANCH  15  16
ENDBRANCH  14  15
ENDBRANCH  13  14
ENDBRANCH  12  13
ENDBRANCH   1  12
TORSDOF 5
ENDMDL
