MODEL 10
REMARK VINA RESULT: -7.005702329      2.735      5.665
REMARK  6 active torsions:
REMARK  status: ('A' for Active; 'I' for Inactive)
REMARK    1  A    between atoms: C2_2  and  C15_25 
REMARK    2  A    between atoms: C3_3  and  S1_4 
REMARK    3  A    between atoms: S1_4  and  N1_7 
REMARK    4  A    between atoms: N1_7  and  C4_9 
REMARK    5  A    between atoms: N2_12  and  C7_13 
REMARK    6  A    between atoms: C7_13  and  C9_15 
REMARK       I    between atoms: C9_15  and  N3_17 
ROOT
HETATM    1  C4  UNL     1       5.810  18.979  51.113  1.00  0.00     0.186 C 
HETATM    2  C5  UNL     1       5.997  19.283  49.639  1.00  0.00     0.055 C 
HETATM    3  C6  UNL     1       5.835  17.893  49.023  1.00  0.00     0.129 C 
HETATM    4  N2  UNL     1       6.615  17.098  49.964  1.00  0.00    -0.337 N 
HETATM    5  C14 UNL     1       6.520  17.678  51.257  1.00  0.00     0.244 C 
HETATM    6  O5  UNL     1       6.976  17.138  52.298  1.00  0.00    -0.271 OA
ENDROOT
BRANCH   1   7
HETATM    7  N1  UNL     1       6.505  19.959  51.890  1.00  0.00    -0.302 N 
ATOM      8  H1  UNL     1       7.210  19.722  52.588  1.00  0.00     0.173 HD
BRANCH   7   9
HETATM    9  S1  UNL     1       6.042  21.563  51.536  1.00  0.00     0.250 S 
HETATM   10  O1  UNL     1       4.601  21.615  51.161  1.00  0.00    -0.201 OA
HETATM   11  O2  UNL     1       6.247  22.387  52.798  1.00  0.00    -0.201 OA
BRANCH   9  12
HETATM   12  C3  UNL     1       7.073  22.179  50.265  1.00  0.00     0.139 C 
HETATM   13  C2  UNL     1       8.376  22.018  50.263  1.00  0.00    -0.032 C 
HETATM   14  C1  UNL     1       9.008  21.289  51.370  1.00  0.00     0.050 C 
BRANCH  13  15
HETATM   15  C15 UNL     1       9.232  22.550  49.175  1.00  0.00     0.013 A 
HETATM   16  C16 UNL     1      10.193  21.883  48.466  1.00  0.00     0.021 A 
HETATM   17  C17 UNL     1      10.849  22.567  47.522  1.00  0.00     0.033 A 
HETATM   18  C18 UNL     1      10.504  23.880  47.343  1.00  0.00     0.075 A 
HETATM   19 CL1  UNL     1      11.192  25.029  46.178  1.00  0.00    -0.076 Cl
HETATM   20  S2  UNL     1       9.274  24.115  48.501  1.00  0.00    -0.078 SA
ENDBRANCH  13  15
ENDBRANCH   9  12
ENDBRANCH   7   9
ENDBRANCH   1   7
BRANCH   4  21
HETATM   21  C7  UNL     1       7.379  15.894  49.648  1.00  0.00     0.175 C 
HETATM   22  C8  UNL     1       7.055  15.475  48.223  1.00  0.00     0.042 C 
BRANCH  21  23
HETATM   23  C9  UNL     1       8.841  16.233  49.683  1.00  0.00     0.242 C 
HETATM   24  O3  UNL     1       9.290  17.148  48.914  1.00  0.00    -0.271 OA
HETATM   25  N3  UNL     1       9.708  15.551  50.554  1.00  0.00    -0.346 N 
HETATM   26  C10 UNL     1      11.099  15.876  50.582  1.00  0.00     0.152 C 
HETATM   27  C13 UNL     1       9.184  14.519  51.423  1.00  0.00     0.152 C 
HETATM   28  C11 UNL     1      11.787  15.567  51.873  1.00  0.00     0.187 C 
HETATM   29  O4  UNL     1      11.174  14.612  52.641  1.00  0.00    -0.388 OA
HETATM   30  C12 UNL     1       9.819  14.771  52.797  1.00  0.00     0.187 C 
ENDBRANCH  21  23
ENDBRANCH   4  21
TORSDOF 6
ENDMDL
