MODEL 9
REMARK VINA RESULT: -7.034720650      2.787      4.680
REMARK  6 active torsions:
REMARK  status: ('A' for Active; 'I' for Inactive)
REMARK    1  A    between atoms: C2_2  and  C15_25 
REMARK    2  A    between atoms: C3_3  and  S1_4 
REMARK    3  A    between atoms: S1_4  and  N1_7 
REMARK    4  A    between atoms: N1_7  and  C4_9 
REMARK    5  A    between atoms: N2_12  and  C7_13 
REMARK    6  A    between atoms: C7_13  and  C9_15 
REMARK       I    between atoms: C9_15  and  N3_17 
ROOT
HETATM    1  C4  UNL     1       3.495  20.054  50.724  1.00  0.00     0.186 C 
HETATM    2  C5  UNL     1       1.997  20.184  50.920  1.00  0.00     0.055 C 
HETATM    3  C6  UNL     1       1.481  19.003  50.096  1.00  0.00     0.129 C 
HETATM    4  N2  UNL     1       2.327  19.121  48.914  1.00  0.00    -0.337 N 
HETATM    5  C14 UNL     1       3.590  19.651  49.293  1.00  0.00     0.244 C 
HETATM    6  O5  UNL     1       4.571  19.739  48.511  1.00  0.00    -0.271 OA
ENDROOT
BRANCH   1   7
HETATM    7  N1  UNL     1       4.105  21.340  50.870  1.00  0.00    -0.302 N 
ATOM      8  H1  UNL     1       3.657  22.208  50.577  1.00  0.00     0.173 HD
BRANCH   7   9
HETATM    9  S1  UNL     1       5.655  21.281  51.582  1.00  0.00     0.250 S 
HETATM   10  O1  UNL     1       5.733  22.226  52.731  1.00  0.00    -0.201 OA
HETATM   11  O2  UNL     1       5.865  19.866  52.099  1.00  0.00    -0.201 OA
BRANCH   9  12
HETATM   12  C3  UNL     1       6.851  21.637  50.358  1.00  0.00     0.139 C 
HETATM   13  C2  UNL     1       8.123  21.814  50.633  1.00  0.00    -0.032 C 
HETATM   14  C1  UNL     1       8.573  21.711  52.027  1.00  0.00     0.050 C 
BRANCH  13  15
HETATM   15  C15 UNL     1       9.121  22.115  49.579  1.00  0.00     0.013 A 
HETATM   16  C16 UNL     1      10.101  21.291  49.096  1.00  0.00     0.021 A 
HETATM   17  C17 UNL     1      10.896  21.775  48.136  1.00  0.00     0.033 A 
HETATM   18  C18 UNL     1      10.664  23.058  47.715  1.00  0.00     0.075 A 
HETATM   19 CL1  UNL     1      11.546  23.963  46.469  1.00  0.00    -0.076 Cl
HETATM   20  S2  UNL     1       9.342  23.544  48.676  1.00  0.00    -0.078 SA
ENDBRANCH  13  15
ENDBRANCH   9  12
ENDBRANCH   7   9
ENDBRANCH   1   7
BRANCH   4  21
HETATM   21  C7  UNL     1       1.955  18.757  47.550  1.00  0.00     0.175 C 
HETATM   22  C8  UNL     1       2.959  19.378  46.591  1.00  0.00     0.042 C 
BRANCH  21  23
HETATM   23  C9  UNL     1       2.074  17.268  47.403  1.00  0.00     0.242 C 
HETATM   24  O3  UNL     1       3.134  16.682  47.807  1.00  0.00    -0.271 OA
HETATM   25  N3  UNL     1       1.028  16.525  46.828  1.00  0.00    -0.346 N 
HETATM   26  C10 UNL     1       1.147  15.108  46.689  1.00  0.00     0.152 C 
HETATM   27  C13 UNL     1      -0.169  17.203  46.379  1.00  0.00     0.152 C 
HETATM   28  C11 UNL     1      -0.154  14.374  46.645  1.00  0.00     0.187 C 
HETATM   29  O4  UNL     1      -1.231  15.127  46.257  1.00  0.00    -0.388 OA
HETATM   30  C12 UNL     1      -1.342  16.347  46.876  1.00  0.00     0.187 C 
ENDBRANCH  21  23
ENDBRANCH   4  21
TORSDOF 6
ENDMDL
