MODEL 1
REMARK VINA RESULT: -8.147751674      0.000      0.000
REMARK  6 active torsions:
REMARK  status: ('A' for Active; 'I' for Inactive)
REMARK    1  A    between atoms: C2_2  and  C15_25 
REMARK    2  A    between atoms: C3_3  and  S1_4 
REMARK    3  A    between atoms: S1_4  and  N1_7 
REMARK    4  A    between atoms: N1_7  and  C4_9 
REMARK    5  A    between atoms: N2_12  and  C7_13 
REMARK    6  A    between atoms: C7_13  and  C9_15 
REMARK       I    between atoms: C9_15  and  N3_17 
ROOT
HETATM    1  C4  UNL     1       6.633  17.893  49.693  1.00  0.00     0.186 C 
HETATM    2  C5  UNL     1       5.492  17.106  50.308  1.00  0.00     0.055 C 
HETATM    3  C6  UNL     1       4.416  17.243  49.230  1.00  0.00     0.129 C 
HETATM    4  N2  UNL     1       4.562  18.654  48.894  1.00  0.00    -0.337 N 
HETATM    5  C14 UNL     1       5.920  19.037  49.062  1.00  0.00     0.244 C 
HETATM    6  O5  UNL     1       6.375  20.159  48.719  1.00  0.00    -0.271 OA
ENDROOT
BRANCH   1   7
HETATM    7  N1  UNL     1       7.470  18.404  50.735  1.00  0.00    -0.302 N 
ATOM      8  H1  UNL     1       7.106  18.856  51.574  1.00  0.00     0.173 HD
BRANCH   7   9
HETATM    9  S1  UNL     1       9.137  18.185  50.439  1.00  0.00     0.250 S 
HETATM   10  O1  UNL     1       9.899  18.218  51.719  1.00  0.00    -0.201 OA
HETATM   11  O2  UNL     1       9.310  16.813  49.804  1.00  0.00    -0.201 OA
BRANCH   9  12
HETATM   12  C3  UNL     1       9.677  19.416  49.321  1.00  0.00     0.139 C 
HETATM   13  C2  UNL     1       9.656  20.697  49.606  1.00  0.00    -0.032 C 
HETATM   14  C1  UNL     1       9.159  21.129  50.918  1.00  0.00     0.050 C 
BRANCH  13  15
HETATM   15  C15 UNL     1      10.119  21.725  48.642  1.00  0.00     0.013 A 
HETATM   16  C16 UNL     1      11.081  21.593  47.679  1.00  0.00     0.021 A 
HETATM   17  C17 UNL     1      11.339  22.660  46.915  1.00  0.00     0.033 A 
HETATM   18  C18 UNL     1      10.618  23.798  47.161  1.00  0.00     0.075 A 
HETATM   19 CL1  UNL     1      10.738  25.356  46.319  1.00  0.00    -0.076 Cl
HETATM   20  S2  UNL     1       9.603  23.338  48.452  1.00  0.00    -0.078 SA
ENDBRANCH  13  15
ENDBRANCH   9  12
ENDBRANCH   7   9
ENDBRANCH   1   7
BRANCH   4  21
HETATM   21  C7  UNL     1       3.495  19.549  48.454  1.00  0.00     0.175 C 
HETATM   22  C8  UNL     1       2.859  18.965  47.201  1.00  0.00     0.042 C 
BRANCH  21  23
HETATM   23  C9  UNL     1       2.431  19.580  49.512  1.00  0.00     0.242 C 
HETATM   24  O3  UNL     1       1.376  18.877  49.359  1.00  0.00    -0.271 OA
HETATM   25  N3  UNL     1       2.593  20.374  50.660  1.00  0.00    -0.346 N 
HETATM   26  C10 UNL     1       1.576  20.401  51.663  1.00  0.00     0.152 C 
HETATM   27  C13 UNL     1       3.796  21.162  50.821  1.00  0.00     0.152 C 
HETATM   28  C11 UNL     1       2.059  20.753  53.033  1.00  0.00     0.187 C 
HETATM   29  O4  UNL     1       3.236  21.454  53.069  1.00  0.00    -0.388 OA
HETATM   30  C12 UNL     1       4.238  20.952  52.276  1.00  0.00     0.187 C 
ENDBRANCH  21  23
ENDBRANCH   4  21
TORSDOF 6
ENDMDL
