MODEL 4
REMARK VINA RESULT: -7.450131723      3.480      5.552
REMARK  6 active torsions:
REMARK  status: ('A' for Active; 'I' for Inactive)
REMARK    1  A    between atoms: C2_2  and  C15_25 
REMARK    2  A    between atoms: C3_3  and  S1_4 
REMARK    3  A    between atoms: S1_4  and  N1_7 
REMARK    4  A    between atoms: N1_7  and  C4_9 
REMARK    5  A    between atoms: N2_12  and  C7_13 
REMARK    6  A    between atoms: C7_13  and  C9_15 
REMARK       I    between atoms: C9_15  and  N3_17 
ROOT
HETATM    1  C4  UNL     1       4.137  20.379  50.979  1.00  0.00     0.186 C 
HETATM    2  C5  UNL     1       2.695  20.838  51.079  1.00  0.00     0.055 C 
HETATM    3  C6  UNL     1       1.950  19.504  51.017  1.00  0.00     0.129 C 
HETATM    4  N2  UNL     1       2.693  18.840  49.952  1.00  0.00    -0.337 N 
HETATM    5  C14 UNL     1       4.045  19.274  49.985  1.00  0.00     0.244 C 
HETATM    6  O5  UNL     1       4.955  18.774  49.274  1.00  0.00    -0.271 OA
ENDROOT
BRANCH   1   7
HETATM    7  N1  UNL     1       4.929  21.428  50.413  1.00  0.00    -0.302 N 
ATOM      8  H1  UNL     1       4.667  21.931  49.565  1.00  0.00     0.173 HD
BRANCH   7   9
HETATM    9  S1  UNL     1       6.353  21.758  51.294  1.00  0.00     0.250 S 
HETATM   10  O1  UNL     1       7.172  22.784  50.590  1.00  0.00    -0.201 OA
HETATM   11  O2  UNL     1       5.934  22.312  52.647  1.00  0.00    -0.201 OA
BRANCH   9  12
HETATM   12  C3  UNL     1       7.231  20.263  51.525  1.00  0.00     0.139 C 
HETATM   13  C2  UNL     1       8.020  19.750  50.609  1.00  0.00    -0.032 C 
HETATM   14  C1  UNL     1       8.182  20.453  49.330  1.00  0.00     0.050 C 
BRANCH  13  15
HETATM   15  C15 UNL     1       8.755  18.480  50.826  1.00  0.00     0.013 A 
HETATM   16  C16 UNL     1       9.154  17.940  52.018  1.00  0.00     0.021 A 
HETATM   17  C17 UNL     1       9.809  16.775  51.977  1.00  0.00     0.033 A 
HETATM   18  C18 UNL     1      10.028  16.219  50.745  1.00  0.00     0.075 A 
HETATM   19 CL1  UNL     1      10.861  14.695  50.379  1.00  0.00    -0.076 Cl
HETATM   20  S2  UNL     1       9.309  17.344  49.684  1.00  0.00    -0.078 SA
ENDBRANCH  13  15
ENDBRANCH   9  12
ENDBRANCH   7   9
ENDBRANCH   1   7
BRANCH   4  21
HETATM   21  C7  UNL     1       2.152  17.880  48.994  1.00  0.00     0.175 C 
HETATM   22  C8  UNL     1       1.297  16.873  49.748  1.00  0.00     0.042 C 
BRANCH  21  23
HETATM   23  C9  UNL     1       1.240  18.609  48.050  1.00  0.00     0.242 C 
HETATM   24  O3  UNL     1       0.267  19.288  48.520  1.00  0.00    -0.271 OA
HETATM   25  N3  UNL     1       1.456  18.544  46.663  1.00  0.00    -0.346 N 
HETATM   26  C10 UNL     1       0.584  19.238  45.768  1.00  0.00     0.152 C 
HETATM   27  C13 UNL     1       2.566  17.773  46.146  1.00  0.00     0.152 C 
HETATM   28  C11 UNL     1       1.197  19.602  44.455  1.00  0.00     0.187 C 
HETATM   29  O4  UNL     1       2.276  18.840  44.089  1.00  0.00    -0.388 OA
HETATM   30  C12 UNL     1       3.218  18.653  45.070  1.00  0.00     0.187 C 
ENDBRANCH  21  23
ENDBRANCH   4  21
TORSDOF 6
ENDMDL
