MODEL 13
REMARK VINA RESULT: -7.626236591      2.847      4.346
REMARK  6 active torsions:
REMARK  status: ('A' for Active; 'I' for Inactive)
REMARK    1  A    between atoms: C2_2  and  C3_3 
REMARK    2  A    between atoms: C2_2  and  N2_11 
REMARK       I    between atoms: C3_3  and  N1_5 
REMARK    3  A    between atoms: C10_14  and  N3_15 
REMARK    4  A    between atoms: N3_15  and  S1_17 
REMARK    5  A    between atoms: S1_17  and  C11_20 
REMARK    6  A    between atoms: C12_21  and  C13_22 
ROOT
HETATM    1  N2  UNL     1       4.328  16.528  49.620  1.00  0.00    -0.337 N 
HETATM    2  C8  UNL     1       4.613  15.563  50.650  1.00  0.00     0.129 C 
HETATM    3  C9  UNL     1       6.039  15.168  50.421  1.00  0.00     0.055 C 
HETATM    4  C10 UNL     1       6.701  16.370  49.866  1.00  0.00     0.186 C 
HETATM    5  C17 UNL     1       5.596  17.116  49.261  1.00  0.00     0.244 C 
HETATM    6  O5  UNL     1       5.704  18.146  48.515  1.00  0.00    -0.271 OA
ENDROOT
BRANCH   4   7
HETATM    7  N3  UNL     1       7.415  17.170  50.834  1.00  0.00    -0.302 N 
ATOM      8  H3  UNL     1       7.056  17.396  51.762  1.00  0.00     0.173 HD
BRANCH   7   9
HETATM    9  S1  UNL     1       8.944  17.699  50.238  1.00  0.00     0.249 S 
HETATM   10  O3  UNL     1       9.475  16.793  49.179  1.00  0.00    -0.201 OA
HETATM   11  O4  UNL     1       9.880  17.777  51.427  1.00  0.00    -0.201 OA
BRANCH   9  12
HETATM   12  C11 UNL     1       8.852  19.336  49.584  1.00  0.00     0.132 C 
HETATM   13  C12 UNL     1       9.911  20.079  49.398  1.00  0.00     0.032 C 
BRANCH  13  14
HETATM   14  C13 UNL     1       9.782  21.437  48.850  1.00  0.00     0.007 A 
HETATM   15  C14 UNL     1       8.993  22.477  49.259  1.00  0.00     0.021 A 
HETATM   16  C15 UNL     1       9.073  23.619  48.569  1.00  0.00     0.033 A 
HETATM   17  C16 UNL     1       9.937  23.658  47.508  1.00  0.00     0.075 A 
HETATM   18 CL1  UNL     1      10.255  25.018  46.418  1.00  0.00    -0.076 Cl
HETATM   19  S2  UNL     1      10.611  22.088  47.512  1.00  0.00    -0.078 SA
ENDBRANCH  13  14
ENDBRANCH   9  12
ENDBRANCH   7   9
ENDBRANCH   4   7
BRANCH   1  20
HETATM   20  C2  UNL     1       3.072  16.891  48.984  1.00  0.00     0.175 C 
HETATM   21  C1  UNL     1       2.354  15.707  48.378  1.00  0.00     0.042 C 
BRANCH  20  22
HETATM   22  C3  UNL     1       2.177  17.698  49.792  1.00  0.00     0.242 C 
HETATM   23  O1  UNL     1       1.148  17.124  50.340  1.00  0.00    -0.271 OA
HETATM   24  N1  UNL     1       2.291  19.056  50.063  1.00  0.00    -0.346 N 
HETATM   25  C4  UNL     1       3.332  19.950  49.630  1.00  0.00     0.152 C 
HETATM   26  C7  UNL     1       1.256  19.751  50.894  1.00  0.00     0.152 C 
HETATM   27  C5  UNL     1       3.429  21.084  50.674  1.00  0.00     0.187 C 
HETATM   28  O2  UNL     1       3.267  20.570  51.949  1.00  0.00    -0.388 OA
HETATM   29  C6  UNL     1       1.989  20.094  52.184  1.00  0.00     0.187 C 
ENDBRANCH  20  22
ENDBRANCH   1  20
TORSDOF 6
ENDMDL
