MODEL 17
REMARK VINA RESULT: -7.476776685      2.981      3.412
REMARK  6 active torsions:
REMARK  status: ('A' for Active; 'I' for Inactive)
REMARK    1  A    between atoms: C2_2  and  C3_3 
REMARK    2  A    between atoms: C2_2  and  N2_11 
REMARK       I    between atoms: C3_3  and  N1_5 
REMARK    3  A    between atoms: C10_14  and  N3_15 
REMARK    4  A    between atoms: N3_15  and  S1_17 
REMARK    5  A    between atoms: S1_17  and  C11_20 
REMARK    6  A    between atoms: C12_21  and  C13_22 
ROOT
HETATM    1  N2  UNL     1       2.198  18.603  50.008  1.00  0.00    -0.337 N 
HETATM    2  C8  UNL     1       1.460  19.606  50.732  1.00  0.00     0.129 C 
HETATM    3  C9  UNL     1       2.320  19.936  51.913  1.00  0.00     0.055 C 
HETATM    4  C10 UNL     1       3.715  19.758  51.452  1.00  0.00     0.186 C 
HETATM    5  C17 UNL     1       3.587  18.809  50.345  1.00  0.00     0.244 C 
HETATM    6  O5  UNL     1       4.547  18.226  49.739  1.00  0.00    -0.271 OA
ENDROOT
BRANCH   4   7
HETATM    7  N3  UNL     1       4.377  20.973  51.037  1.00  0.00    -0.302 N 
ATOM      8  H3  UNL     1       4.012  21.605  50.324  1.00  0.00     0.173 HD
BRANCH   7   9
HETATM    9  S1  UNL     1       5.855  21.230  51.887  1.00  0.00     0.249 S 
HETATM   10  O3  UNL     1       5.642  21.955  53.172  1.00  0.00    -0.201 OA
HETATM   11  O4  UNL     1       6.771  21.999  50.958  1.00  0.00    -0.201 OA
BRANCH   9  12
HETATM   12  C11 UNL     1       6.676  19.706  52.231  1.00  0.00     0.132 C 
HETATM   13  C12 UNL     1       7.648  19.249  51.485  1.00  0.00     0.032 C 
BRANCH  13  14
HETATM   14  C13 UNL     1       8.301  17.973  51.814  1.00  0.00     0.007 A 
HETATM   15  C14 UNL     1       7.849  16.923  52.565  1.00  0.00     0.021 A 
HETATM   16  C15 UNL     1       8.660  15.870  52.705  1.00  0.00     0.033 A 
HETATM   17  C16 UNL     1       9.880  15.926  52.086  1.00  0.00     0.075 A 
HETATM   18 CL1  UNL     1      11.155  14.696  52.091  1.00  0.00    -0.076 Cl
HETATM   19  S2  UNL     1       9.849  17.455  51.326  1.00  0.00    -0.078 SA
ENDBRANCH  13  14
ENDBRANCH   9  12
ENDBRANCH   7   9
ENDBRANCH   4   7
BRANCH   1  20
HETATM   20  C2  UNL     1       1.740  17.546  49.122  1.00  0.00     0.175 C 
HETATM   21  C1  UNL     1       1.200  16.346  49.867  1.00  0.00     0.042 C 
BRANCH  20  22
HETATM   22  C3  UNL     1       0.838  17.965  48.067  1.00  0.00     0.242 C 
HETATM   23  O1  UNL     1      -0.273  18.553  48.396  1.00  0.00    -0.271 OA
HETATM   24  N1  UNL     1       1.025  17.814  46.698  1.00  0.00    -0.346 N 
HETATM   25  C4  UNL     1       2.161  17.237  46.029  1.00  0.00     0.152 C 
HETATM   26  C7  UNL     1      -0.026  18.275  45.735  1.00  0.00     0.152 C 
HETATM   27  C5  UNL     1       2.247  17.884  44.629  1.00  0.00     0.187 C 
HETATM   28  O2  UNL     1       1.939  19.231  44.709  1.00  0.00    -0.388 OA
HETATM   29  C6  UNL     1       0.615  19.466  45.035  1.00  0.00     0.187 C 
ENDBRANCH  20  22
ENDBRANCH   1  20
TORSDOF 6
ENDMDL
