MODEL 18
REMARK VINA RESULT: -7.460698996      3.844      4.379
REMARK  6 active torsions:
REMARK  status: ('A' for Active; 'I' for Inactive)
REMARK    1  A    between atoms: C2_2  and  C3_3 
REMARK    2  A    between atoms: C2_2  and  N2_11 
REMARK       I    between atoms: C3_3  and  N1_5 
REMARK    3  A    between atoms: C10_14  and  N3_15 
REMARK    4  A    between atoms: N3_15  and  S1_17 
REMARK    5  A    between atoms: S1_17  and  C11_20 
REMARK    6  A    between atoms: C12_21  and  C13_22 
ROOT
HETATM    1  N2  UNL     1       3.580  19.702  50.346  1.00  0.00    -0.337 N 
HETATM    2  C8  UNL     1       3.758  21.089  50.002  1.00  0.00     0.129 C 
HETATM    3  C9  UNL     1       5.066  21.473  50.622  1.00  0.00     0.055 C 
HETATM    4  C10 UNL     1       5.895  20.248  50.594  1.00  0.00     0.186 C 
HETATM    5  C17 UNL     1       4.905  19.170  50.557  1.00  0.00     0.244 C 
HETATM    6  O5  UNL     1       5.146  17.924  50.690  1.00  0.00    -0.271 OA
ENDROOT
BRANCH   4   7
HETATM    7  N3  UNL     1       6.814  20.163  49.483  1.00  0.00    -0.302 N 
ATOM      8  H3  UNL     1       6.540  19.903  48.535  1.00  0.00     0.173 HD
BRANCH   7   9
HETATM    9  S1  UNL     1       8.429  20.553  49.945  1.00  0.00     0.249 S 
HETATM   10  O3  UNL     1       8.468  21.461  51.128  1.00  0.00    -0.201 OA
HETATM   11  O4  UNL     1       9.095  21.182  48.739  1.00  0.00    -0.201 OA
BRANCH   9  12
HETATM   12  C11 UNL     1       9.363  19.103  50.317  1.00  0.00     0.132 C 
HETATM   13  C12 UNL     1       8.997  18.249  51.236  1.00  0.00     0.032 C 
BRANCH  13  14
HETATM   14  C13 UNL     1       9.810  17.054  51.509  1.00  0.00     0.007 A 
HETATM   15  C14 UNL     1      11.032  16.943  52.114  1.00  0.00     0.021 A 
HETATM   16  C15 UNL     1      11.551  15.718  52.234  1.00  0.00     0.033 A 
HETATM   17  C16 UNL     1      10.821  14.670  51.741  1.00  0.00     0.075 A 
HETATM   18 CL1  UNL     1      11.245  12.950  51.755  1.00  0.00    -0.076 Cl
HETATM   19  S2  UNL     1       9.425  15.440  51.125  1.00  0.00    -0.078 SA
ENDBRANCH  13  14
ENDBRANCH   9  12
ENDBRANCH   7   9
ENDBRANCH   4   7
BRANCH   1  20
HETATM   20  C2  UNL     1       2.369  18.913  50.503  1.00  0.00     0.175 C 
HETATM   21  C1  UNL     1       1.516  19.368  51.665  1.00  0.00     0.042 C 
BRANCH  20  22
HETATM   22  C3  UNL     1       1.579  18.741  49.300  1.00  0.00     0.242 C 
HETATM   23  O1  UNL     1       0.372  19.223  49.275  1.00  0.00    -0.271 OA
HETATM   24  N1  UNL     1       1.968  18.104  48.127  1.00  0.00    -0.346 N 
HETATM   25  C4  UNL     1       3.245  17.505  47.840  1.00  0.00     0.152 C 
HETATM   26  C7  UNL     1       1.013  17.982  46.979  1.00  0.00     0.152 C 
HETATM   27  C5  UNL     1       3.447  17.566  46.310  1.00  0.00     0.187 C 
HETATM   28  O2  UNL     1       2.976  18.770  45.816  1.00  0.00    -0.388 OA
HETATM   29  C6  UNL     1       1.602  18.896  45.913  1.00  0.00     0.187 C 
ENDBRANCH  20  22
ENDBRANCH   1  20
TORSDOF 6
ENDMDL
