MODEL 2
REMARK VINA RESULT: -8.189768451      5.352      7.896
REMARK  6 active torsions:
REMARK  status: ('A' for Active; 'I' for Inactive)
REMARK    1  A    between atoms: C2_2  and  C3_3 
REMARK    2  A    between atoms: C2_2  and  N2_11 
REMARK       I    between atoms: C3_3  and  N1_5 
REMARK    3  A    between atoms: C10_14  and  N3_15 
REMARK    4  A    between atoms: N3_15  and  S1_17 
REMARK    5  A    between atoms: S1_17  and  C11_20 
REMARK    6  A    between atoms: C12_21  and  C13_22 
ROOT
HETATM    1  N2  UNL     1       6.217  20.050  53.461  1.00  0.00    -0.337 N 
HETATM    2  C8  UNL     1       6.001  18.635  53.618  1.00  0.00     0.129 C 
HETATM    3  C9  UNL     1       6.242  18.057  52.258  1.00  0.00     0.055 C 
HETATM    4  C10 UNL     1       7.271  18.921  51.635  1.00  0.00     0.186 C 
HETATM    5  C17 UNL     1       7.113  20.195  52.339  1.00  0.00     0.244 C 
HETATM    6  O5  UNL     1       7.675  21.298  52.030  1.00  0.00    -0.271 OA
ENDROOT
BRANCH   4   7
HETATM    7  N3  UNL     1       8.622  18.422  51.734  1.00  0.00    -0.302 N 
ATOM      8  H3  UNL     1       9.164  18.413  52.599  1.00  0.00     0.173 HD
BRANCH   7   9
HETATM    9  S1  UNL     1       9.214  17.845  50.221  1.00  0.00     0.249 S 
HETATM   10  O3  UNL     1       8.250  16.918  49.561  1.00  0.00    -0.201 OA
HETATM   11  O4  UNL     1      10.541  17.167  50.494  1.00  0.00    -0.201 OA
BRANCH   9  12
HETATM   12  C11 UNL     1       9.565  19.174  49.115  1.00  0.00     0.132 C 
HETATM   13  C12 UNL     1       9.759  20.399  49.528  1.00  0.00     0.032 C 
BRANCH  13  14
HETATM   14  C13 UNL     1      10.049  21.472  48.565  1.00  0.00     0.007 A 
HETATM   15  C14 UNL     1      10.864  21.470  47.467  1.00  0.00     0.021 A 
HETATM   16  C15 UNL     1      10.946  22.599  46.757  1.00  0.00     0.033 A 
HETATM   17  C16 UNL     1      10.208  23.670  47.185  1.00  0.00     0.075 A 
HETATM   18 CL1  UNL     1      10.113  25.282  46.457  1.00  0.00    -0.076 Cl
HETATM   19  S2  UNL     1       9.421  23.056  48.572  1.00  0.00    -0.078 SA
ENDBRANCH  13  14
ENDBRANCH   9  12
ENDBRANCH   7   9
ENDBRANCH   4   7
BRANCH   1  20
HETATM   20  C2  UNL     1       5.675  21.179  54.200  1.00  0.00     0.175 C 
HETATM   21  C1  UNL     1       4.180  21.089  54.401  1.00  0.00     0.042 C 
BRANCH  20  22
HETATM   22  C3  UNL     1       6.359  21.496  55.439  1.00  0.00     0.242 C 
HETATM   23  O1  UNL     1       7.114  22.553  55.479  1.00  0.00    -0.271 OA
HETATM   24  N1  UNL     1       6.303  20.784  56.632  1.00  0.00    -0.346 N 
HETATM   25  C4  UNL     1       5.534  19.599  56.907  1.00  0.00     0.152 C 
HETATM   26  C7  UNL     1       7.102  21.230  57.817  1.00  0.00     0.152 C 
HETATM   27  C5  UNL     1       5.239  19.585  58.423  1.00  0.00     0.187 C 
HETATM   28  O2  UNL     1       4.958  20.867  58.864  1.00  0.00    -0.388 OA
HETATM   29  C6  UNL     1       6.052  21.712  58.809  1.00  0.00     0.187 C 
ENDBRANCH  20  22
ENDBRANCH   1  20
TORSDOF 6
ENDMDL
