MODEL 10
REMARK VINA RESULT: -7.439120495      3.754      7.606
REMARK  7 active torsions:
REMARK  status: ('A' for Active; 'I' for Inactive)
REMARK    1  A    between atoms: C2_2  and  C3_3 
REMARK    2  A    between atoms: C2_2  and  N2_11 
REMARK       I    between atoms: C3_3  and  N1_5 
REMARK    3  A    between atoms: C10_14  and  N3_15 
REMARK    4  A    between atoms: N3_15  and  S1_17 
REMARK    5  A    between atoms: S1_17  and  C11_20 
REMARK    6  A    between atoms: C11_20  and  C12_21 
REMARK    7  A    between atoms: C12_21  and  C13_22 
ROOT
HETATM    1  N2  UNL     1       6.800  19.593  50.720  1.00  0.00    -0.337 N 
HETATM    2  C8  UNL     1       6.459  19.569  49.317  1.00  0.00     0.129 C 
HETATM    3  C9  UNL     1       5.209  20.455  49.239  1.00  0.00     0.055 C 
HETATM    4  C10 UNL     1       4.469  19.990  50.484  1.00  0.00     0.186 C 
HETATM    5  C17 UNL     1       5.583  19.816  51.451  1.00  0.00     0.244 C 
HETATM    6  O5  UNL     1       5.475  19.860  52.723  1.00  0.00    -0.271 OA
ENDROOT
BRANCH   4   7
HETATM    7  N3  UNL     1       3.541  20.961  50.982  1.00  0.00    -0.306 N 
ATOM      8  H3  UNL     1       3.761  21.950  51.101  1.00  0.00     0.173 HD
BRANCH   7   9
HETATM    9  S1  UNL     1       2.000  20.261  51.360  1.00  0.00     0.227 S 
HETATM   10  O3  UNL     1       0.974  21.318  50.942  1.00  0.00    -0.206 OA
HETATM   11  O4  UNL     1       1.932  20.028  52.809  1.00  0.00    -0.206 OA
BRANCH   9  12
HETATM   12  C11 UNL     1       1.743  18.793  50.431  1.00  0.00     0.168 C 
BRANCH  12  13
HETATM   13  C12 UNL     1       1.292  19.108  49.044  1.00  0.00     0.063 C 
BRANCH  13  14
HETATM   14  C13 UNL     1       2.255  18.557  48.049  1.00  0.00    -0.015 A 
HETATM   15  C14 UNL     1       2.647  19.177  46.884  1.00  0.00     0.017 A 
HETATM   16  C15 UNL     1       3.562  18.563  46.135  1.00  0.00     0.032 A 
HETATM   17  C16 UNL     1       4.047  17.363  46.575  1.00  0.00     0.075 A 
HETATM   18 CL1  UNL     1       5.259  16.335  45.785  1.00  0.00    -0.076 Cl
HETATM   19  S2  UNL     1       3.202  17.126  48.032  1.00  0.00    -0.083 SA
ENDBRANCH  13  14
ENDBRANCH  12  13
ENDBRANCH   9  12
ENDBRANCH   7   9
ENDBRANCH   4   7
BRANCH   1  20
HETATM   20  C2  UNL     1       8.097  19.430  51.346  1.00  0.00     0.175 C 
HETATM   21  C1  UNL     1       8.122  18.101  52.045  1.00  0.00     0.042 C 
BRANCH  20  22
HETATM   22  C3  UNL     1       9.182  19.575  50.355  1.00  0.00     0.242 C 
HETATM   23  O1  UNL     1       9.654  18.541  49.827  1.00  0.00    -0.271 OA
HETATM   24  N1  UNL     1       9.701  20.824  49.986  1.00  0.00    -0.346 N 
HETATM   25  C4  UNL     1       9.235  22.088  50.523  1.00  0.00     0.152 C 
HETATM   26  C7  UNL     1      10.767  20.898  49.009  1.00  0.00     0.152 C 
HETATM   27  C5  UNL     1       9.129  23.041  49.324  1.00  0.00     0.187 C 
HETATM   28  O2  UNL     1       9.056  22.347  48.138  1.00  0.00    -0.388 OA
HETATM   29  C6  UNL     1      10.246  21.686  47.826  1.00  0.00     0.187 C 
ENDBRANCH  20  22
ENDBRANCH   1  20
TORSDOF 7
ENDMDL
