MODEL 9
REMARK VINA RESULT: -7.477052663      1.502      1.705
REMARK  7 active torsions:
REMARK  status: ('A' for Active; 'I' for Inactive)
REMARK    1  A    between atoms: C2_2  and  C3_3 
REMARK    2  A    between atoms: C2_2  and  N2_11 
REMARK       I    between atoms: C3_3  and  N1_5 
REMARK    3  A    between atoms: C10_14  and  N3_15 
REMARK    4  A    between atoms: N3_15  and  S1_17 
REMARK    5  A    between atoms: S1_17  and  C11_20 
REMARK    6  A    between atoms: C11_20  and  C12_21 
REMARK    7  A    between atoms: C12_21  and  C13_22 
ROOT
HETATM    1  N2  UNL     1       2.297  17.635  49.301  1.00  0.00    -0.337 N 
HETATM    2  C8  UNL     1       1.711  18.054  50.552  1.00  0.00     0.129 C 
HETATM    3  C9  UNL     1       2.341  19.433  50.797  1.00  0.00     0.055 C 
HETATM    4  C10 UNL     1       3.776  19.152  50.377  1.00  0.00     0.186 C 
HETATM    5  C17 UNL     1       3.580  18.274  49.196  1.00  0.00     0.244 C 
HETATM    6  O5  UNL     1       4.416  18.115  48.243  1.00  0.00    -0.271 OA
ENDROOT
BRANCH   4   7
HETATM    7  N3  UNL     1       4.490  20.333  49.992  1.00  0.00    -0.306 N 
ATOM      8  H3  UNL     1       4.246  20.907  49.184  1.00  0.00     0.173 HD
BRANCH   7   9
HETATM    9  S1  UNL     1       5.814  20.675  51.057  1.00  0.00     0.227 S 
HETATM   10  O3  UNL     1       5.432  20.018  52.386  1.00  0.00    -0.206 OA
HETATM   11  O4  UNL     1       5.923  22.131  51.220  1.00  0.00    -0.206 OA
BRANCH   9  12
HETATM   12  C11 UNL     1       7.298  19.956  50.450  1.00  0.00     0.168 C 
BRANCH  12  13
HETATM   13  C12 UNL     1       8.491  20.733  50.894  1.00  0.00     0.063 C 
BRANCH  13  14
HETATM   14  C13 UNL     1       9.103  21.448  49.738  1.00  0.00    -0.015 A 
HETATM   15  C14 UNL     1       8.916  22.775  49.425  1.00  0.00     0.017 A 
HETATM   16  C15 UNL     1       9.587  23.264  48.383  1.00  0.00     0.032 A 
HETATM   17  C16 UNL     1      10.414  22.416  47.700  1.00  0.00     0.075 A 
HETATM   18 CL1  UNL     1      11.418  22.796  46.287  1.00  0.00    -0.076 Cl
HETATM   19  S2  UNL     1      10.226  20.949  48.540  1.00  0.00    -0.083 SA
ENDBRANCH  13  14
ENDBRANCH  12  13
ENDBRANCH   9  12
ENDBRANCH   7   9
ENDBRANCH   4   7
BRANCH   1  20
HETATM   20  C2  UNL     1       1.756  16.743  48.295  1.00  0.00     0.175 C 
HETATM   21  C1  UNL     1       1.026  15.631  48.991  1.00  0.00     0.042 C 
BRANCH  20  22
HETATM   22  C3  UNL     1       0.901  17.481  47.343  1.00  0.00     0.242 C 
HETATM   23  O1  UNL     1      -0.152  18.009  47.768  1.00  0.00    -0.271 OA
HETATM   24  N1  UNL     1       1.227  17.609  45.985  1.00  0.00    -0.346 N 
HETATM   25  C4  UNL     1       2.418  17.047  45.378  1.00  0.00     0.152 C 
HETATM   26  C7  UNL     1       0.344  18.343  45.102  1.00  0.00     0.152 C 
HETATM   27  C5  UNL     1       2.973  18.138  44.452  1.00  0.00     0.187 C 
HETATM   28  O2  UNL     1       2.494  19.381  44.799  1.00  0.00    -0.388 OA
HETATM   29  C6  UNL     1       1.126  19.518  44.553  1.00  0.00     0.187 C 
ENDBRANCH  20  22
ENDBRANCH   1  20
TORSDOF 7
ENDMDL
