MODEL 11
REMARK VINA RESULT: -7.372794956      3.305      4.150
REMARK  7 active torsions:
REMARK  status: ('A' for Active; 'I' for Inactive)
REMARK    1  A    between atoms: C2_2  and  C3_3 
REMARK    2  A    between atoms: C2_2  and  N2_11 
REMARK       I    between atoms: C3_3  and  N1_5 
REMARK    3  A    between atoms: C10_14  and  N3_15 
REMARK    4  A    between atoms: N3_15  and  S1_17 
REMARK    5  A    between atoms: S1_17  and  C11_20 
REMARK    6  A    between atoms: C11_20  and  C12_21 
REMARK    7  A    between atoms: C12_21  and  C13_22 
ROOT
HETATM    1  N2  UNL     1       3.183  18.884  49.794  1.00  0.00    -0.337 N 
HETATM    2  C8  UNL     1       2.908  19.516  51.062  1.00  0.00     0.129 C 
HETATM    3  C9  UNL     1       3.661  20.850  50.967  1.00  0.00     0.055 C 
HETATM    4  C10 UNL     1       4.951  20.385  50.309  1.00  0.00     0.186 C 
HETATM    5  C17 UNL     1       4.451  19.382  49.336  1.00  0.00     0.244 C 
HETATM    6  O5  UNL     1       5.050  19.022  48.266  1.00  0.00    -0.271 OA
ENDROOT
BRANCH   4   7
HETATM    7  N3  UNL     1       5.638  21.434  49.616  1.00  0.00    -0.306 N 
ATOM      8  H3  UNL     1       5.171  22.149  49.059  1.00  0.00     0.173 HD
BRANCH   7   9
HETATM    9  S1  UNL     1       7.356  21.347  49.833  1.00  0.00     0.227 S 
HETATM   10  O3  UNL     1       7.823  22.805  49.874  1.00  0.00    -0.206 OA
HETATM   11  O4  UNL     1       7.942  20.656  48.676  1.00  0.00    -0.206 OA
BRANCH   9  12
HETATM   12  C11 UNL     1       7.749  20.560  51.353  1.00  0.00     0.168 C 
BRANCH  12  13
HETATM   13  C12 UNL     1       8.650  19.392  51.134  1.00  0.00     0.063 C 
BRANCH  13  14
HETATM   14  C13 UNL     1       7.848  18.163  50.868  1.00  0.00    -0.015 A 
HETATM   15  C14 UNL     1       6.824  17.687  51.655  1.00  0.00     0.017 A 
HETATM   16  C15 UNL     1       6.177  16.600  51.237  1.00  0.00     0.032 A 
HETATM   17  C16 UNL     1       6.574  16.035  50.057  1.00  0.00     0.075 A 
HETATM   18 CL1  UNL     1       5.896  14.597  49.268  1.00  0.00    -0.076 Cl
HETATM   19  S2  UNL     1       7.850  17.047  49.565  1.00  0.00    -0.083 SA
ENDBRANCH  13  14
ENDBRANCH  12  13
ENDBRANCH   9  12
ENDBRANCH   7   9
ENDBRANCH   4   7
BRANCH   1  20
HETATM   20  C2  UNL     1       2.383  17.922  49.063  1.00  0.00     0.175 C 
HETATM   21  C1  UNL     1       1.752  16.983  50.049  1.00  0.00     0.042 C 
BRANCH  20  22
HETATM   22  C3  UNL     1       1.390  18.605  48.207  1.00  0.00     0.242 C 
HETATM   23  O1  UNL     1       0.576  19.391  48.745  1.00  0.00    -0.271 OA
HETATM   24  N1  UNL     1       1.328  18.403  46.821  1.00  0.00    -0.346 N 
HETATM   25  C4  UNL     1       2.216  17.523  46.087  1.00  0.00     0.152 C 
HETATM   26  C7  UNL     1       0.329  19.101  46.039  1.00  0.00     0.152 C 
HETATM   27  C5  UNL     1       2.615  18.291  44.819  1.00  0.00     0.187 C 
HETATM   28  O2  UNL     1       2.414  19.644  44.969  1.00  0.00    -0.388 OA
HETATM   29  C6  UNL     1       1.061  19.981  45.048  1.00  0.00     0.187 C 
ENDBRANCH  20  22
ENDBRANCH   1  20
TORSDOF 7
ENDMDL
