MODEL 7
REMARK VINA RESULT: -7.522087245      2.277      3.804
REMARK  7 active torsions:
REMARK  status: ('A' for Active; 'I' for Inactive)
REMARK    1  A    between atoms: C2_2  and  C3_3 
REMARK    2  A    between atoms: C2_2  and  N2_11 
REMARK       I    between atoms: C3_3  and  N1_5 
REMARK    3  A    between atoms: C10_14  and  N3_15 
REMARK    4  A    between atoms: N3_15  and  S1_17 
REMARK    5  A    between atoms: S1_17  and  C11_20 
REMARK    6  A    between atoms: C11_20  and  C12_21 
REMARK    7  A    between atoms: C12_21  and  C13_22 
ROOT
HETATM    1  N2  UNL     1       4.940  18.378  48.614  1.00  0.00    -0.337 N 
HETATM    2  C8  UNL     1       4.910  17.000  49.047  1.00  0.00     0.129 C 
HETATM    3  C9  UNL     1       5.911  16.970  50.210  1.00  0.00     0.055 C 
HETATM    4  C10 UNL     1       7.017  17.844  49.637  1.00  0.00     0.186 C 
HETATM    5  C17 UNL     1       6.240  18.899  48.939  1.00  0.00     0.244 C 
HETATM    6  O5  UNL     1       6.658  20.076  48.673  1.00  0.00    -0.271 OA
ENDROOT
BRANCH   4   7
HETATM    7  N3  UNL     1       7.844  18.437  50.646  1.00  0.00    -0.306 N 
ATOM      8  H3  UNL     1       7.498  18.753  51.552  1.00  0.00     0.173 HD
BRANCH   7   9
HETATM    9  S1  UNL     1       9.501  18.555  50.149  1.00  0.00     0.227 S 
HETATM   10  O3  UNL     1       9.580  17.754  48.847  1.00  0.00    -0.206 OA
HETATM   11  O4  UNL     1      10.346  17.938  51.180  1.00  0.00    -0.206 OA
BRANCH   9  12
HETATM   12  C11 UNL     1       9.936  20.228  49.838  1.00  0.00     0.168 C 
BRANCH  12  13
HETATM   13  C12 UNL     1      10.546  20.381  48.486  1.00  0.00     0.063 C 
BRANCH  13  14
HETATM   14  C13 UNL     1      10.332  21.765  47.975  1.00  0.00    -0.015 A 
HETATM   15  C14 UNL     1       9.500  22.708  48.535  1.00  0.00     0.017 A 
HETATM   16  C15 UNL     1       9.472  23.917  47.976  1.00  0.00     0.032 A 
HETATM   17  C16 UNL     1      10.270  24.137  46.888  1.00  0.00     0.075 A 
HETATM   18 CL1  UNL     1      10.431  25.637  45.955  1.00  0.00    -0.076 Cl
HETATM   19  S2  UNL     1      11.041  22.635  46.677  1.00  0.00    -0.083 SA
ENDBRANCH  13  14
ENDBRANCH  12  13
ENDBRANCH   9  12
ENDBRANCH   7   9
ENDBRANCH   4   7
BRANCH   1  20
HETATM   20  C2  UNL     1       3.899  19.153  47.969  1.00  0.00     0.175 C 
HETATM   21  C1  UNL     1       3.540  18.480  46.676  1.00  0.00     0.042 C 
BRANCH  20  22
HETATM   22  C3  UNL     1       2.738  19.325  48.866  1.00  0.00     0.242 C 
HETATM   23  O1  UNL     1       1.719  18.624  48.669  1.00  0.00    -0.271 OA
HETATM   24  N1  UNL     1       2.737  20.243  49.926  1.00  0.00    -0.346 N 
HETATM   25  C4  UNL     1       3.856  21.106  50.255  1.00  0.00     0.152 C 
HETATM   26  C7  UNL     1       1.565  20.366  50.767  1.00  0.00     0.152 C 
HETATM   27  C5  UNL     1       3.985  21.060  51.784  1.00  0.00     0.187 C 
HETATM   28  O2  UNL     1       3.367  19.947  52.306  1.00  0.00    -0.388 OA
HETATM   29  C6  UNL     1       1.977  19.994  52.176  1.00  0.00     0.187 C 
ENDBRANCH  20  22
ENDBRANCH   1  20
TORSDOF 7
ENDMDL
