MODEL 9
REMARK VINA RESULT: -5.117711817      1.813      4.864
REMARK  2 active torsions:
REMARK  status: ('A' for Active; 'I' for Inactive)
REMARK    1  A    between atoms: C1_2  and  C2_4 
REMARK    2  A    between atoms: C5_9  and  C6_10 
ROOT
HETATM    1  C2  UNL     1       2.374  20.416 -21.144  1.00  0.00     0.044 A 
HETATM    2  C3  UNL     1       1.271  20.705 -21.925  1.00  0.00     0.035 A 
HETATM    3  C4  UNL     1       0.259  19.780 -22.020  1.00  0.00     0.089 A 
HETATM    4  N1  UNL     1       0.333  18.602 -21.365  1.00  0.00    -0.360 N 
ATOM      5  H1  UNL     1      -0.437  17.939 -21.459  1.00  0.00     0.165 HD
HETATM    6  C5  UNL     1       1.381  18.271 -20.593  1.00  0.00     0.110 A 
HETATM    7  C7  UNL     1       2.397  19.212 -20.503  1.00  0.00     0.055 A 
ENDROOT
BRANCH   1   8
HETATM    8  C1  UNL     1       3.479  21.338 -20.993  1.00  0.00     0.209 C 
HETATM    9  O1  UNL     1       3.588  22.021 -19.959  1.00  0.00    -0.644 OA
HETATM   10  O2  UNL     1       4.408  21.453 -22.003  1.00  0.00    -0.644 OA
ENDBRANCH   1   8
BRANCH   6  11
HETATM   11  C6  UNL     1       1.465  17.002 -19.882  1.00  0.00     0.226 C 
HETATM   12  O3  UNL     1       2.517  16.725 -19.260  1.00  0.00    -0.643 OA
HETATM   13  O4  UNL     1       0.446  16.068 -19.846  1.00  0.00    -0.643 OA
ENDBRANCH   6  11
TORSDOF 2
ENDMDL
