MODEL 7
REMARK VINA RESULT: -5.532756330      1.873      4.676
REMARK  2 active torsions:
REMARK  status: ('A' for Active; 'I' for Inactive)
REMARK    1  A    between atoms: C1_2  and  C2_4 
REMARK    2  A    between atoms: C5_9  and  C6_10 
ROOT
HETATM    1  C2  UNL     1       2.757  20.866 -20.970  1.00  0.00     0.044 A 
HETATM    2  C3  UNL     1       2.807  21.334 -19.671  1.00  0.00     0.035 A 
HETATM    3  C4  UNL     1       2.556  20.465 -18.636  1.00  0.00     0.089 A 
HETATM    4  N1  UNL     1       2.263  19.170 -18.876  1.00  0.00    -0.360 N 
ATOM      5  H1  UNL     1       2.081  18.553 -18.084  1.00  0.00     0.165 HD
HETATM    6  C5  UNL     1       2.201  18.661 -20.118  1.00  0.00     0.110 A 
HETATM    7  C7  UNL     1       2.457  19.548 -21.155  1.00  0.00     0.055 A 
ENDROOT
BRANCH   1   8
HETATM    8  C1  UNL     1       3.010  21.718 -22.111  1.00  0.00     0.209 C 
HETATM    9  O1  UNL     1       4.174  21.902 -22.510  1.00  0.00    -0.644 OA
HETATM   10  O2  UNL     1       1.952  22.324 -22.752  1.00  0.00    -0.644 OA
ENDBRANCH   1   8
BRANCH   6  11
HETATM   11  C6  UNL     1       1.887  17.264 -20.382  1.00  0.00     0.226 C 
HETATM   12  O3  UNL     1       2.546  16.649 -21.253  1.00  0.00    -0.643 OA
HETATM   13  O4  UNL     1       0.896  16.558 -19.726  1.00  0.00    -0.643 OA
ENDBRANCH   6  11
TORSDOF 2
ENDMDL
