MODEL 1
REMARK VINA RESULT: -7.127793948      0.000      0.000
REMARK  2 active torsions:
REMARK  status: ('A' for Active; 'I' for Inactive)
REMARK    1  A    between atoms: C1_2  and  C2_4 
REMARK    2  A    between atoms: C5_9  and  C6_10 
ROOT
HETATM    1  C2  UNL     1       0.813  17.981 -20.789  1.00  0.00     0.044 A 
HETATM    2  C3  UNL     1       1.832  17.061 -20.637  1.00  0.00     0.035 A 
HETATM    3  C4  UNL     1       3.136  17.490 -20.703  1.00  0.00     0.089 A 
HETATM    4  N1  UNL     1       3.428  18.790 -20.915  1.00  0.00    -0.360 N 
ATOM      5  H1  UNL     1       4.407  19.073 -20.959  1.00  0.00     0.165 HD
HETATM    6  C5  UNL     1       2.477  19.727 -21.071  1.00  0.00     0.110 A 
HETATM    7  C7  UNL     1       1.163  19.282 -21.001  1.00  0.00     0.055 A 
ENDROOT
BRANCH   1   8
HETATM    8  C1  UNL     1      -0.583  17.608 -20.732  1.00  0.00     0.209 C 
HETATM    9  O1  UNL     1      -1.368  17.982 -21.623  1.00  0.00    -0.644 OA
HETATM   10  O2  UNL     1      -1.037  16.837 -19.685  1.00  0.00    -0.644 OA
ENDBRANCH   1   8
BRANCH   6  11
HETATM   11  C6  UNL     1       2.786  21.131 -21.298  1.00  0.00     0.226 C 
HETATM   12  O3  UNL     1       2.212  21.734 -22.236  1.00  0.00    -0.643 OA
HETATM   13  O4  UNL     1       3.684  21.858 -20.538  1.00  0.00    -0.643 OA
ENDBRANCH   6  11
TORSDOF 2
ENDMDL
