MODEL 6
REMARK VINA RESULT: -5.809637059      1.673      4.649
REMARK  2 active torsions:
REMARK  status: ('A' for Active; 'I' for Inactive)
REMARK    1  A    between atoms: C1_2  and  C2_4 
REMARK    2  A    between atoms: C5_9  and  C6_10 
ROOT
HETATM    1  C2  UNL     1       2.390  21.178 -21.785  1.00  0.00     0.044 A 
HETATM    2  C3  UNL     1       3.016  21.585 -20.623  1.00  0.00     0.035 A 
HETATM    3  C4  UNL     1       2.974  20.768 -19.518  1.00  0.00     0.089 A 
HETATM    4  N1  UNL     1       2.332  19.582 -19.559  1.00  0.00    -0.360 N 
ATOM      5  H1  UNL     1       2.320  19.001 -18.720  1.00  0.00     0.165 HD
HETATM    6  C5  UNL     1       1.707  19.137 -20.662  1.00  0.00     0.110 A 
HETATM    7  C7  UNL     1       1.756  19.971 -21.772  1.00  0.00     0.055 A 
ENDROOT
BRANCH   1   8
HETATM    8  C1  UNL     1       2.390  21.982 -22.988  1.00  0.00     0.209 C 
HETATM    9  O1  UNL     1       3.272  21.817 -23.851  1.00  0.00    -0.644 OA
HETATM   10  O2  UNL     1       1.409  22.930 -23.170  1.00  0.00    -0.644 OA
ENDBRANCH   1   8
BRANCH   6  11
HETATM   11  C6  UNL     1       1.013  17.857 -20.712  1.00  0.00     0.226 C 
HETATM   12  O3  UNL     1       1.573  16.846 -20.228  1.00  0.00    -0.643 OA
HETATM   13  O4  UNL     1      -0.242  17.679 -21.265  1.00  0.00    -0.643 OA
ENDBRANCH   6  11
TORSDOF 2
ENDMDL
