MODEL 5
REMARK VINA RESULT: -6.106129975      0.791      1.020
REMARK  2 active torsions:
REMARK  status: ('A' for Active; 'I' for Inactive)
REMARK    1  A    between atoms: C1_2  and  C2_4 
REMARK    2  A    between atoms: C5_9  and  C6_10 
ROOT
HETATM    1  C2  UNL     1       0.832  17.917 -20.725  1.00  0.00     0.044 A 
HETATM    2  C3  UNL     1       1.838  17.029 -21.055  1.00  0.00     0.035 A 
HETATM    3  C4  UNL     1       3.142  17.465 -21.054  1.00  0.00     0.089 A 
HETATM    4  N1  UNL     1       3.445  18.741 -20.737  1.00  0.00    -0.360 N 
ATOM      5  H1  UNL     1       4.424  19.030 -20.748  1.00  0.00     0.165 HD
HETATM    6  C5  UNL     1       2.507  19.646 -20.409  1.00  0.00     0.110 A 
HETATM    7  C7  UNL     1       1.194  19.194 -20.413  1.00  0.00     0.055 A 
ENDROOT
BRANCH   1   8
HETATM    8  C1  UNL     1      -0.563  17.535 -20.703  1.00  0.00     0.209 C 
HETATM    9  O1  UNL     1      -1.328  17.907 -21.612  1.00  0.00    -0.644 OA
HETATM   10  O2  UNL     1      -1.036  16.757 -19.671  1.00  0.00    -0.644 OA
ENDBRANCH   1   8
BRANCH   6  11
HETATM   11  C6  UNL     1       2.830  21.023 -20.065  1.00  0.00     0.226 C 
HETATM   12  O3  UNL     1       2.216  21.571 -19.120  1.00  0.00    -0.643 OA
HETATM   13  O4  UNL     1       3.783  21.780 -20.720  1.00  0.00    -0.643 OA
ENDBRANCH   6  11
TORSDOF 2
ENDMDL
