MODEL 2
REMARK VINA RESULT: -6.422183100      1.578      2.419
REMARK  6 active torsions:
REMARK  status: ('A' for Active; 'I' for Inactive)
REMARK       I    between atoms: C2_2  and  N1_4 
REMARK    1  A    between atoms: N1_4  and  C3_6 
REMARK    2  A    between atoms: C4_7  and  N2_8 
REMARK    3  A    between atoms: C6_13  and  C7_14 
REMARK    4  A    between atoms: C7_14  and  O2_15 
REMARK    5  A    between atoms: C8_17  and  O3_18 
REMARK    6  A    between atoms: C9_20  and  O4_21 
ROOT
HETATM    1  C3  UNL     1       6.687 -12.729   1.904  1.00  0.00     0.150 C 
HETATM    2  C4  UNL     1       6.524 -11.248   1.882  1.00  0.00     0.231 C 
HETATM    3  C5  UNL     1       6.823 -10.667   3.221  1.00  0.00     0.015 C 
HETATM    4  C6  UNL     1       6.172 -11.206   4.248  1.00  0.00    -0.027 C 
HETATM    5  C8  UNL     1       5.234 -12.315   3.927  1.00  0.00     0.179 C 
HETATM    6  C9  UNL     1       6.017 -13.339   3.115  1.00  0.00     0.176 C 
ENDROOT
BRANCH   1   7
HETATM    7  N1  UNL     1       6.040 -13.325   0.724  1.00  0.00    -0.352 N 
HETATM    8  C2  UNL     1       6.280 -14.692   0.408  1.00  0.00     0.214 C 
HETATM    9  C1  UNL     1       5.609 -15.252  -0.788  1.00  0.00     0.117 C 
HETATM   10  O1  UNL     1       7.049 -15.374   1.151  1.00  0.00    -0.274 OA
ATOM     11  H1  UNL     1       5.423 -12.762   0.136  1.00  0.00     0.163 HD
ENDBRANCH   1   7
BRANCH   2  12
HETATM   12  N2  UNL     1       7.366 -10.576   0.926  1.00  0.00    -0.070 N 
ATOM     13  H23 UNL     1       7.987  -9.918   1.397  1.00  0.00     0.275 HD
ATOM     14  H22 UNL     1       8.057 -11.222   0.542  1.00  0.00     0.275 HD
ATOM     15  H21 UNL     1       6.857 -10.111   0.175  1.00  0.00     0.275 HD
ENDBRANCH   2  12
BRANCH   6  16
HETATM   16  O4  UNL     1       6.940 -13.972   3.945  1.00  0.00    -0.391 OA
ATOM     17  H4  UNL     1       7.825 -13.675   3.770  1.00  0.00     0.210 HD
ENDBRANCH   6  16
BRANCH   5  18
HETATM   18  O3  UNL     1       4.096 -11.911   3.276  1.00  0.00    -0.388 OA
ATOM     19  H3  UNL     1       3.964 -12.330   2.433  1.00  0.00     0.210 HD
ENDBRANCH   5  18
BRANCH   4  20
HETATM   20  C7  UNL     1       6.359 -10.742   5.627  1.00  0.00     0.201 C 
BRANCH  20  21
HETATM   21  O2  UNL     1       7.720 -10.761   5.930  1.00  0.00    -0.397 OA
ATOM     22  H2  UNL     1       7.835 -11.096   6.811  1.00  0.00     0.209 HD
ENDBRANCH  20  21
ENDBRANCH   4  20
TORSDOF 6
ENDMDL
