MODEL 5
REMARK VINA RESULT: -6.137675622      2.056      5.510
REMARK  6 active torsions:
REMARK  status: ('A' for Active; 'I' for Inactive)
REMARK       I    between atoms: C2_2  and  N1_4 
REMARK    1  A    between atoms: N1_4  and  C3_6 
REMARK    2  A    between atoms: C4_7  and  N2_8 
REMARK    3  A    between atoms: C6_13  and  C7_14 
REMARK    4  A    between atoms: C7_14  and  O2_15 
REMARK    5  A    between atoms: C8_17  and  O3_18 
REMARK    6  A    between atoms: C9_20  and  O4_21 
ROOT
HETATM    1  C3  UNL     1       6.019 -14.312   2.890  1.00  0.00     0.150 C 
HETATM    2  C4  UNL     1       6.271 -13.974   1.461  1.00  0.00     0.231 C 
HETATM    3  C5  UNL     1       5.713 -15.025   0.565  1.00  0.00     0.015 C 
HETATM    4  C6  UNL     1       6.083 -16.274   0.835  1.00  0.00    -0.027 C 
HETATM    5  C8  UNL     1       7.000 -16.457   1.991  1.00  0.00     0.179 C 
HETATM    6  C9  UNL     1       6.361 -15.756   3.183  1.00  0.00     0.176 C 
ENDROOT
BRANCH   1   7
HETATM    7  N1  UNL     1       6.878 -13.494   3.761  1.00  0.00    -0.352 N 
HETATM    8  C2  UNL     1       6.354 -12.309   4.350  1.00  0.00     0.214 C 
HETATM    9  C1  UNL     1       7.252 -11.515   5.221  1.00  0.00     0.117 C 
HETATM   10  O1  UNL     1       5.152 -11.978   4.113  1.00  0.00    -0.274 OA
ATOM     11  H1  UNL     1       7.843 -13.775   3.942  1.00  0.00     0.163 HD
ENDBRANCH   1   7
BRANCH   2  12
HETATM   12  N2  UNL     1       5.708 -12.714   1.045  1.00  0.00    -0.070 N 
ATOM     13  H23 UNL     1       5.596 -12.691   0.031  1.00  0.00     0.275 HD
ATOM     14  H22 UNL     1       4.730 -12.649   1.329  1.00  0.00     0.275 HD
ATOM     15  H21 UNL     1       6.228 -11.898   1.365  1.00  0.00     0.275 HD
ENDBRANCH   2  12
BRANCH   6  16
HETATM   16  O4  UNL     1       5.238 -16.475   3.588  1.00  0.00    -0.391 OA
ATOM     17  H4  UNL     1       5.126 -17.265   3.073  1.00  0.00     0.210 HD
ENDBRANCH   6  16
BRANCH   5  18
HETATM   18  O3  UNL     1       8.278 -16.012   1.763  1.00  0.00    -0.388 OA
ATOM     19  H3  UNL     1       8.930 -16.403   2.334  1.00  0.00     0.210 HD
ENDBRANCH   5  18
BRANCH   4  20
HETATM   20  C7  UNL     1       5.618 -17.419   0.043  1.00  0.00     0.201 C 
BRANCH  20  21
HETATM   21  O2  UNL     1       4.811 -18.225   0.846  1.00  0.00    -0.397 OA
ATOM     22  H2  UNL     1       5.293 -19.009   1.078  1.00  0.00     0.209 HD
ENDBRANCH  20  21
ENDBRANCH   4  20
TORSDOF 6
ENDMDL
