MODEL 1
REMARK VINA RESULT: -6.552279271      0.000      0.000
REMARK  6 active torsions:
REMARK  status: ('A' for Active; 'I' for Inactive)
REMARK       I    between atoms: C2_2  and  N1_4 
REMARK    1  A    between atoms: N1_4  and  C3_6 
REMARK    2  A    between atoms: C4_7  and  N2_8 
REMARK    3  A    between atoms: C6_13  and  C7_14 
REMARK    4  A    between atoms: C7_14  and  O2_15 
REMARK    5  A    between atoms: C8_17  and  O3_18 
REMARK    6  A    between atoms: C9_20  and  O4_21 
ROOT
HETATM    1  C3  UNL     1       5.604 -13.203   1.925  1.00  0.00     0.150 C 
HETATM    2  C4  UNL     1       6.677 -13.592   2.882  1.00  0.00     0.231 C 
HETATM    3  C5  UNL     1       6.527 -12.856   4.168  1.00  0.00     0.015 C 
HETATM    4  C6  UNL     1       6.426 -11.533   4.073  1.00  0.00    -0.027 C 
HETATM    5  C8  UNL     1       6.475 -10.964   2.699  1.00  0.00     0.179 C 
HETATM    6  C9  UNL     1       5.429 -11.701   1.873  1.00  0.00     0.176 C 
ENDROOT
BRANCH   1   7
HETATM    7  N1  UNL     1       5.964 -13.629   0.563  1.00  0.00    -0.352 N 
HETATM    8  C2  UNL     1       5.520 -14.893   0.084  1.00  0.00     0.214 C 
HETATM    9  C1  UNL     1       5.904 -15.283  -1.293  1.00  0.00     0.117 C 
HETATM   10  O1  UNL     1       4.821 -15.632   0.840  1.00  0.00    -0.274 OA
ATOM     11  H1  UNL     1       6.527 -13.022  -0.034  1.00  0.00     0.163 HD
ENDBRANCH   1   7
BRANCH   2  12
HETATM   12  N2  UNL     1       6.707 -14.998   3.195  1.00  0.00    -0.070 N 
ATOM     13  H23 UNL     1       5.935 -15.242   3.816  1.00  0.00     0.275 HD
ATOM     14  H22 UNL     1       6.454 -15.552   2.376  1.00  0.00     0.275 HD
ATOM     15  H21 UNL     1       7.593 -15.321   3.584  1.00  0.00     0.275 HD
ENDBRANCH   2  12
BRANCH   6  16
HETATM   16  O4  UNL     1       4.158 -11.320   2.299  1.00  0.00    -0.391 OA
ATOM     17  H4  UNL     1       4.154 -10.428   2.626  1.00  0.00     0.210 HD
ENDBRANCH   6  16
BRANCH   5  18
HETATM   18  O3  UNL     1       7.717 -11.021   2.118  1.00  0.00    -0.388 OA
ATOM     19  H3  UNL     1       7.697 -11.198   1.184  1.00  0.00     0.210 HD
ENDBRANCH   5  18
BRANCH   4  20
HETATM   20  C7  UNL     1       6.273 -10.670   5.249  1.00  0.00     0.201 C 
BRANCH  20  21
HETATM   21  O2  UNL     1       7.501 -10.575   5.903  1.00  0.00    -0.397 OA
ATOM     22  H2  UNL     1       7.783  -9.669   5.898  1.00  0.00     0.209 HD
ENDBRANCH  20  21
ENDBRANCH   4  20
TORSDOF 6
ENDMDL
