MODEL 1
REMARK VINA RESULT: -8.567818435      0.000      0.000
REMARK  12 active torsions:
REMARK  status: ('A' for Active; 'I' for Inactive)
REMARK    1  A    between atoms: O1_1  and  C1_3 
REMARK    2  A    between atoms: C1_3  and  C2_4 
REMARK    3  A    between atoms: C3_6  and  O3_7 
REMARK    4  A    between atoms: O3_7  and  C4_8 
REMARK    5  A    between atoms: C7_12  and  O4_13 
REMARK    6  A    between atoms: C8_15  and  O5_16 
REMARK    7  A    between atoms: C9_18  and  O6_19 
REMARK    8  A    between atoms: C10_21  and  C11_22 
REMARK    9  A    between atoms: C11_22  and  O7_23 
REMARK   10  A    between atoms: C12_25  and  O8_26 
REMARK   11  A    between atoms: C13_28  and  O9_29 
REMARK   12  A    between atoms: C14_31  and  O10_32 
ROOT
HETATM    1  C4  UNL     1      -2.264 -35.768  40.835  1.00  0.00     0.184 C 
HETATM    2  C5  UNL     1      -2.220 -34.336  41.258  1.00  0.00     0.308 C 
HETATM    3  N1  UNL     1      -0.787 -34.188  41.545  1.00  0.00     0.110 N 
HETATM    4  C6  UNL     1      -0.384 -35.394  42.196  1.00  0.00     0.285 C 
HETATM    5  C7  UNL     1      -1.436 -36.443  41.903  1.00  0.00     0.185 C 
HETATM    6  C8  UNL     1      -0.360 -35.136  43.677  1.00  0.00     0.185 C 
HETATM    7  C9  UNL     1      -0.181 -33.655  43.767  1.00  0.00     0.184 C 
HETATM    8  C10 UNL     1      -0.516 -33.088  42.416  1.00  0.00     0.278 C 
ENDROOT
BRANCH   1   9
HETATM    9  O3  UNL     1      -3.513 -36.299  40.688  1.00  0.00    -0.349 OA
BRANCH   9  10
HETATM   10  C3  UNL     1      -4.548 -35.460  41.077  1.00  0.00     0.292 C 
HETATM   11  O2  UNL     1      -5.597 -35.682  40.197  1.00  0.00    -0.348 OA
HETATM   12  C2  UNL     1      -6.701 -34.897  40.440  1.00  0.00     0.179 C 
HETATM   13  C14 UNL     1      -7.236 -34.950  41.820  1.00  0.00     0.180 C 
HETATM   14  C13 UNL     1      -6.295 -35.366  42.880  1.00  0.00     0.183 C 
HETATM   15  C12 UNL     1      -5.038 -36.010  42.421  1.00  0.00     0.204 C 
BRANCH  12  16
HETATM   16  C1  UNL     1      -6.423 -33.457  39.995  1.00  0.00     0.198 C 
BRANCH  16  17
HETATM   17  O1  UNL     1      -7.604 -32.744  40.201  1.00  0.00    -0.398 OA
ATOM     18  H1  UNL     1      -7.432 -32.136  40.910  1.00  0.00     0.209 HD
ENDBRANCH  16  17
ENDBRANCH  12  16
BRANCH  13  19
HETATM   19  O10 UNL     1      -8.399 -35.755  41.882  1.00  0.00    -0.390 OA
ATOM     20  H10 UNL     1      -9.166 -35.229  42.076  1.00  0.00     0.210 HD
ENDBRANCH  13  19
BRANCH  14  21
HETATM   21  O9  UNL     1      -5.933 -34.276  43.705  1.00  0.00    -0.390 OA
ATOM     22  H9  UNL     1      -5.705 -34.629  44.557  1.00  0.00     0.210 HD
ENDBRANCH  14  21
BRANCH  15  23
HETATM   23  O8  UNL     1      -5.326 -37.370  42.173  1.00  0.00    -0.388 OA
ATOM     24  H8  UNL     1      -5.161 -37.809  43.000  1.00  0.00     0.210 HD
ENDBRANCH  15  23
ENDBRANCH   9  10
ENDBRANCH   1   9
BRANCH   5  25
HETATM   25  O4  UNL     1      -0.795 -37.572  41.399  1.00  0.00    -0.391 OA
ATOM     26  H4  UNL     1      -0.026 -37.332  40.894  1.00  0.00     0.210 HD
ENDBRANCH   5  25
BRANCH   8  27
HETATM   27  C11 UNL     1       0.752 -32.396  41.900  1.00  0.00     0.202 C 
BRANCH  27  28
HETATM   28  O7  UNL     1       1.631 -32.119  42.947  1.00  0.00    -0.399 OA
ATOM     29  H7  UNL     1       1.710 -31.182  43.086  1.00  0.00     0.209 HD
ENDBRANCH  27  28
ENDBRANCH   8  27
BRANCH   6  30
HETATM   30  O5  UNL     1       0.734 -35.821  44.210  1.00  0.00    -0.391 OA
ATOM     31  H5  UNL     1       0.405 -36.431  44.859  1.00  0.00     0.210 HD
ENDBRANCH   6  30
BRANCH   7  32
HETATM   32  O6  UNL     1      -0.972 -33.120  44.779  1.00  0.00    -0.391 OA
ATOM     33  H6  UNL     1      -1.886 -33.099  44.521  1.00  0.00     0.210 HD
ENDBRANCH   7  32
TORSDOF 12
ENDMDL
