MODEL 2
REMARK VINA RESULT: -8.370234456      2.697      6.935
REMARK  12 active torsions:
REMARK  status: ('A' for Active; 'I' for Inactive)
REMARK    1  A    between atoms: O1_1  and  C1_3 
REMARK    2  A    between atoms: C1_3  and  C2_4 
REMARK    3  A    between atoms: C3_6  and  O3_7 
REMARK    4  A    between atoms: O3_7  and  C4_8 
REMARK    5  A    between atoms: C7_12  and  O4_13 
REMARK    6  A    between atoms: C8_15  and  O5_16 
REMARK    7  A    between atoms: C9_18  and  O6_19 
REMARK    8  A    between atoms: C10_21  and  C11_22 
REMARK    9  A    between atoms: C11_22  and  O7_23 
REMARK   10  A    between atoms: C12_25  and  O8_26 
REMARK   11  A    between atoms: C13_28  and  O9_29 
REMARK   12  A    between atoms: C14_31  and  O10_32 
ROOT
HETATM    1  C4  UNL     1      -2.559 -33.775  43.829  1.00  0.00     0.184 C 
HETATM    2  C5  UNL     1      -3.861 -33.139  43.465  1.00  0.00     0.308 C 
HETATM    3  N1  UNL     1      -4.649 -34.329  43.115  1.00  0.00     0.110 N 
HETATM    4  C6  UNL     1      -3.768 -35.192  42.394  1.00  0.00     0.285 C 
HETATM    5  C7  UNL     1      -2.351 -34.750  42.694  1.00  0.00     0.185 C 
HETATM    6  C8  UNL     1      -4.031 -35.004  40.927  1.00  0.00     0.185 C 
HETATM    7  C9  UNL     1      -5.434 -34.488  40.891  1.00  0.00     0.184 C 
HETATM    8  C10 UNL     1      -5.765 -34.018  42.278  1.00  0.00     0.278 C 
ENDROOT
BRANCH   1   9
HETATM    9  O3  UNL     1      -1.517 -32.913  44.014  1.00  0.00    -0.349 OA
BRANCH   9  10
HETATM   10  C3  UNL     1      -1.194 -32.672  45.342  1.00  0.00     0.292 C 
HETATM   11  O2  UNL     1      -1.486 -33.833  46.043  1.00  0.00    -0.348 OA
HETATM   12  C2  UNL     1      -1.240 -33.743  47.394  1.00  0.00     0.179 C 
HETATM   13  C14 UNL     1       0.125 -33.307  47.770  1.00  0.00     0.180 C 
HETATM   14  C13 UNL     1       0.875 -32.532  46.762  1.00  0.00     0.183 C 
HETATM   15  C12 UNL     1       0.336 -32.566  45.378  1.00  0.00     0.204 C 
BRANCH  12  16
HETATM   16  C1  UNL     1      -2.315 -32.878  48.062  1.00  0.00     0.198 C 
BRANCH  16  17
HETATM   17  O1  UNL     1      -3.544 -33.457  47.742  1.00  0.00    -0.398 OA
ATOM     18  H1  UNL     1      -3.951 -33.698  48.566  1.00  0.00     0.209 HD
ENDBRANCH  16  17
ENDBRANCH  12  16
BRANCH  13  19
HETATM   19  O10 UNL     1       0.908 -34.408  48.194  1.00  0.00    -0.390 OA
ATOM     20  H10 UNL     1       1.630 -34.120  48.741  1.00  0.00     0.210 HD
ENDBRANCH  13  19
BRANCH  14  21
HETATM   21  O9  UNL     1       0.988 -31.172  47.136  1.00  0.00    -0.390 OA
ATOM     22  H9  UNL     1       1.661 -31.118  47.804  1.00  0.00     0.210 HD
ENDBRANCH  14  21
BRANCH  15  23
HETATM   23  O8  UNL     1       0.797 -33.756  44.774  1.00  0.00    -0.388 OA
ATOM     24  H8  UNL     1       1.741 -33.729  44.871  1.00  0.00     0.210 HD
ENDBRANCH  15  23
ENDBRANCH   9  10
ENDBRANCH   1   9
BRANCH   5  25
HETATM   25  O4  UNL     1      -1.629 -35.863  43.118  1.00  0.00    -0.391 OA
ATOM     26  H4  UNL     1      -2.162 -36.429  43.664  1.00  0.00     0.210 HD
ENDBRANCH   5  25
BRANCH   8  27
HETATM   27  C11 UNL     1      -6.950 -34.865  42.761  1.00  0.00     0.202 C 
BRANCH  27  28
HETATM   28  O7  UNL     1      -6.730 -35.339  44.054  1.00  0.00    -0.399 OA
ATOM     29  H7  UNL     1      -6.131 -36.077  44.049  1.00  0.00     0.209 HD
ENDBRANCH  27  28
ENDBRANCH   8  27
BRANCH   6  30
HETATM   30  O5  UNL     1      -3.927 -36.254  40.313  1.00  0.00    -0.391 OA
ATOM     31  H5  UNL     1      -4.147 -36.145  39.395  1.00  0.00     0.210 HD
ENDBRANCH   6  30
BRANCH   7  32
HETATM   32  O6  UNL     1      -5.567 -33.479  39.941  1.00  0.00    -0.391 OA
ATOM     33  H6  UNL     1      -5.425 -32.624  40.332  1.00  0.00     0.210 HD
ENDBRANCH   7  32
TORSDOF 12
ENDMDL
