MODEL 4
REMARK VINA RESULT: -8.044896524      1.584      2.455
REMARK  12 active torsions:
REMARK  status: ('A' for Active; 'I' for Inactive)
REMARK    1  A    between atoms: O1_1  and  C1_3 
REMARK    2  A    between atoms: C1_3  and  C2_4 
REMARK    3  A    between atoms: C3_6  and  O3_7 
REMARK    4  A    between atoms: O3_7  and  C4_8 
REMARK    5  A    between atoms: C7_12  and  O4_13 
REMARK    6  A    between atoms: C8_15  and  O5_16 
REMARK    7  A    between atoms: C9_18  and  O6_19 
REMARK    8  A    between atoms: C10_21  and  C11_22 
REMARK    9  A    between atoms: C11_22  and  O7_23 
REMARK   10  A    between atoms: C12_25  and  O8_26 
REMARK   11  A    between atoms: C13_28  and  O9_29 
REMARK   12  A    between atoms: C14_31  and  O10_32 
ROOT
HETATM    1  C4  UNL     1      -2.275 -33.927  41.071  1.00  0.00     0.184 C 
HETATM    2  C5  UNL     1      -1.806 -33.097  42.221  1.00  0.00     0.308 C 
HETATM    3  N1  UNL     1      -0.457 -33.646  42.413  1.00  0.00     0.110 N 
HETATM    4  C6  UNL     1      -0.572 -35.058  42.233  1.00  0.00     0.285 C 
HETATM    5  C7  UNL     1      -1.868 -35.319  41.494  1.00  0.00     0.185 C 
HETATM    6  C8  UNL     1      -0.656 -35.694  43.592  1.00  0.00     0.185 C 
HETATM    7  C9  UNL     1      -0.001 -34.688  44.485  1.00  0.00     0.184 C 
HETATM    8  C10 UNL     1       0.053 -33.394  43.724  1.00  0.00     0.278 C 
ENDROOT
BRANCH   1   9
HETATM    9  O3  UNL     1      -3.599 -33.808  40.762  1.00  0.00    -0.349 OA
BRANCH   9  10
HETATM   10  C3  UNL     1      -4.466 -34.198  41.773  1.00  0.00     0.292 C 
HETATM   11  O2  UNL     1      -5.029 -33.040  42.288  1.00  0.00    -0.348 OA
HETATM   12  C2  UNL     1      -5.903 -33.261  43.328  1.00  0.00     0.179 C 
HETATM   13  C14 UNL     1      -6.995 -34.223  43.053  1.00  0.00     0.180 C 
HETATM   14  C13 UNL     1      -6.759 -35.207  41.978  1.00  0.00     0.183 C 
HETATM   15  C12 UNL     1      -5.622 -34.916  41.066  1.00  0.00     0.204 C 
BRANCH  12  16
HETATM   16  C1  UNL     1      -5.122 -33.635  44.592  1.00  0.00     0.198 C 
BRANCH  16  17
HETATM   17  O1  UNL     1      -5.801 -34.707  45.174  1.00  0.00    -0.398 OA
ATOM     18  H1  UNL     1      -5.137 -35.291  45.520  1.00  0.00     0.209 HD
ENDBRANCH  16  17
ENDBRANCH  12  16
BRANCH  13  19
HETATM   19  O10 UNL     1      -8.216 -33.548  42.813  1.00  0.00    -0.390 OA
ATOM     20  H10 UNL     1      -8.660 -33.908  42.053  1.00  0.00     0.210 HD
ENDBRANCH  13  19
BRANCH  14  21
HETATM   21  O9  UNL     1      -6.558 -36.505  42.500  1.00  0.00    -0.390 OA
ATOM     22  H9  UNL     1      -7.201 -37.076  42.095  1.00  0.00     0.210 HD
ENDBRANCH  14  21
BRANCH  15  23
HETATM   23  O8  UNL     1      -6.081 -33.998  40.097  1.00  0.00    -0.388 OA
ATOM     24  H8  UNL     1      -5.902 -33.142  40.467  1.00  0.00     0.210 HD
ENDBRANCH  15  23
ENDBRANCH   9  10
ENDBRANCH   1   9
BRANCH   5  25
HETATM   25  O4  UNL     1      -1.585 -36.116  40.388  1.00  0.00    -0.391 OA
ATOM     26  H4  UNL     1      -0.992 -36.821  40.618  1.00  0.00     0.210 HD
ENDBRANCH   5  25
BRANCH   8  27
HETATM   27  C11 UNL     1       1.536 -33.029  43.577  1.00  0.00     0.202 C 
BRANCH  27  28
HETATM   28  O7  UNL     1       1.980 -32.295  44.676  1.00  0.00    -0.399 OA
ATOM     29  H7  UNL     1       2.930 -32.298  44.726  1.00  0.00     0.209 HD
ENDBRANCH  27  28
ENDBRANCH   8  27
BRANCH   6  30
HETATM   30  O5  UNL     1       0.064 -36.889  43.548  1.00  0.00    -0.391 OA
ATOM     31  H5  UNL     1      -0.435 -37.545  44.019  1.00  0.00     0.210 HD
ENDBRANCH   6  30
BRANCH   7  32
HETATM   32  O6  UNL     1      -0.690 -34.570  45.688  1.00  0.00    -0.391 OA
ATOM     33  H6  UNL     1      -1.090 -35.396  45.933  1.00  0.00     0.210 HD
ENDBRANCH   7  32
TORSDOF 12
ENDMDL
