MODEL 18
REMARK VINA RESULT: -5.016812991      6.047      7.273
REMARK  5 active torsions:
REMARK  status: ('A' for Active; 'I' for Inactive)
REMARK    1  A    between atoms: O1_1  and  C1_3 
REMARK    2  A    between atoms: C1_3  and  C2_4 
REMARK    3  A    between atoms: C4_8  and  O2_9 
REMARK    4  A    between atoms: C5_11  and  O3_12 
REMARK    5  A    between atoms: C6_14  and  O4_15 
ROOT
HETATM    1  C2  UNL     1      22.299  48.946  66.931  1.00  0.00     0.131 C 
HETATM    2  N1  UNL     1      22.749  50.223  66.459  1.00  0.00    -0.410 N 
ATOM      3  H1  UNL     1      22.111  50.925  66.084  1.00  0.00     0.153 HD
HETATM    4  C3  UNL     1      24.154  50.437  66.553  1.00  0.00     0.148 C 
HETATM    5  C4  UNL     1      24.649  50.148  67.972  1.00  0.00     0.166 C 
HETATM    6  C5  UNL     1      24.351  48.657  68.187  1.00  0.00     0.179 C 
HETATM    7  C6  UNL     1      22.840  48.581  68.285  1.00  0.00     0.173 C 
ENDROOT
BRANCH   1   8
HETATM    8  C1  UNL     1      20.800  48.884  66.855  1.00  0.00     0.191 C 
BRANCH   8   9
HETATM    9  O1  UNL     1      20.298  49.964  67.586  1.00  0.00    -0.399 OA
ATOM     10  H1  UNL     1      19.353  49.957  67.491  1.00  0.00     0.209 HD
ENDBRANCH   8   9
ENDBRANCH   1   8
BRANCH   7  11
HETATM   11  O4  UNL     1      22.383  47.327  68.628  1.00  0.00    -0.391 OA
ATOM     12  H4  UNL     1      23.047  46.886  69.145  1.00  0.00     0.210 HD
ENDBRANCH   7  11
BRANCH   6  13
HETATM   13  O3  UNL     1      24.994  48.147  69.280  1.00  0.00    -0.390 OA
ATOM     14  H3  UNL     1      24.774  47.237  69.439  1.00  0.00     0.210 HD
ENDBRANCH   6  13
BRANCH   5  15
HETATM   15  O2  UNL     1      25.978  50.442  68.131  1.00  0.00    -0.391 OA
ATOM     16  H2  UNL     1      26.198  51.308  67.808  1.00  0.00     0.210 HD
ENDBRANCH   5  15
TORSDOF 5
ENDMDL
