MODEL 1
REMARK VINA RESULT: -6.219133997      0.000      0.000
REMARK  5 active torsions:
REMARK  status: ('A' for Active; 'I' for Inactive)
REMARK    1  A    between atoms: O1_1  and  C1_3 
REMARK    2  A    between atoms: C1_3  and  C2_4 
REMARK    3  A    between atoms: C4_8  and  O2_9 
REMARK    4  A    between atoms: C5_11  and  O3_12 
REMARK    5  A    between atoms: C6_14  and  O4_15 
ROOT
HETATM    1  C2  UNL     1      25.404  42.773  67.662  1.00  0.00     0.131 C 
HETATM    2  N1  UNL     1      24.158  43.362  67.268  1.00  0.00    -0.410 N 
ATOM      3  H1  UNL     1      23.728  43.181  66.361  1.00  0.00     0.153 HD
HETATM    4  C3  UNL     1      23.564  44.218  68.239  1.00  0.00     0.148 C 
HETATM    5  C4  UNL     1      23.457  43.507  69.590  1.00  0.00     0.166 C 
HETATM    6  C5  UNL     1      24.911  43.221  69.991  1.00  0.00     0.179 C 
HETATM    7  C6  UNL     1      25.368  42.145  69.027  1.00  0.00     0.173 C 
ENDROOT
BRANCH   1   8
HETATM    8  C1  UNL     1      25.875  41.833  66.588  1.00  0.00     0.191 C 
BRANCH   8   9
HETATM    9  O1  UNL     1      24.759  41.128  66.129  1.00  0.00    -0.399 OA
ATOM     10  H1  UNL     1      24.318  41.677  65.492  1.00  0.00     0.209 HD
ENDBRANCH   8   9
ENDBRANCH   1   8
BRANCH   7  11
HETATM   11  O4  UNL     1      26.618  41.646  69.325  1.00  0.00    -0.391 OA
ATOM     12  H4  UNL     1      26.553  41.087  70.091  1.00  0.00     0.210 HD
ENDBRANCH   7  11
BRANCH   6  13
HETATM   13  O3  UNL     1      25.031  42.862  71.305  1.00  0.00    -0.390 OA
ATOM     14  H3  UNL     1      25.283  41.952  71.411  1.00  0.00     0.210 HD
ENDBRANCH   6  13
BRANCH   5  15
HETATM   15  O2  UNL     1      22.797  44.260  70.526  1.00  0.00    -0.391 OA
ATOM     16  H2  UNL     1      22.718  43.812  71.360  1.00  0.00     0.210 HD
ENDBRANCH   5  15
TORSDOF 5
ENDMDL
