MODEL 13
REMARK VINA RESULT: -5.220193606      4.728      5.757
REMARK  5 active torsions:
REMARK  status: ('A' for Active; 'I' for Inactive)
REMARK    1  A    between atoms: O1_1  and  C1_3 
REMARK    2  A    between atoms: C1_3  and  C2_4 
REMARK    3  A    between atoms: C4_8  and  O2_9 
REMARK    4  A    between atoms: C5_11  and  O3_12 
REMARK    5  A    between atoms: C6_14  and  O4_15 
ROOT
HETATM    1  C2  UNL     1      25.694  47.760  68.442  1.00  0.00     0.131 C 
HETATM    2  N1  UNL     1      25.892  49.096  67.962  1.00  0.00    -0.410 N 
ATOM      3  H1  UNL     1      26.727  49.375  67.447  1.00  0.00     0.153 HD
HETATM    4  C3  UNL     1      24.835  50.004  68.256  1.00  0.00     0.148 C 
HETATM    5  C4  UNL     1      23.490  49.430  67.804  1.00  0.00     0.166 C 
HETATM    6  C5  UNL     1      23.312  48.158  68.646  1.00  0.00     0.179 C 
HETATM    7  C6  UNL     1      24.345  47.192  68.100  1.00  0.00     0.173 C 
ENDROOT
BRANCH   1   8
HETATM    8  C1  UNL     1      26.835  46.891  67.994  1.00  0.00     0.191 C 
BRANCH   8   9
HETATM    9  O1  UNL     1      27.099  45.983  69.024  1.00  0.00    -0.399 OA
ATOM     10  H1  UNL     1      26.516  46.193  69.744  1.00  0.00     0.209 HD
ENDBRANCH   8   9
ENDBRANCH   1   8
BRANCH   7  11
HETATM   11  O4  UNL     1      24.240  45.927  68.638  1.00  0.00    -0.391 OA
ATOM     12  H4  UNL     1      23.498  45.483  68.244  1.00  0.00     0.210 HD
ENDBRANCH   7  11
BRANCH   6  13
HETATM   13  O3  UNL     1      22.034  47.674  68.599  1.00  0.00    -0.390 OA
ATOM     14  H3  UNL     1      21.864  47.175  67.808  1.00  0.00     0.210 HD
ENDBRANCH   6  13
BRANCH   5  15
HETATM   15  O2  UNL     1      22.460  50.316  67.975  1.00  0.00    -0.391 OA
ATOM     16  H2  UNL     1      22.025  50.527  67.157  1.00  0.00     0.210 HD
ENDBRANCH   5  15
TORSDOF 5
ENDMDL
