MODEL 3
REMARK VINA RESULT: -7.991833164      1.368      1.719
REMARK  6 active torsions:
REMARK  status: ('A' for Active; 'I' for Inactive)
REMARK    1  A    between atoms: N1_2  and  C4_5 
REMARK    2  A    between atoms: C4_5  and  C5_6 
REMARK    3  A    between atoms: C5_6  and  C6_7 
REMARK    4  A    between atoms: C6_7  and  N2_8 
REMARK    5  A    between atoms: C15_20  and  C16_21 
REMARK    6  A    between atoms: C18_23  and  C19_24 
ROOT
HETATM    1  N2  UNL     1      -5.400  10.829  21.175  1.00  0.00    -0.288 N 
HETATM    2  C7  UNL     1      -4.147  11.127  21.852  1.00  0.00     0.234 C 
HETATM    3  O1  UNL     1      -3.271  10.285  22.138  1.00  0.00    -0.272 OA
HETATM    4  C8  UNL     1      -4.078  12.564  22.141  1.00  0.00     0.133 C 
HETATM    5  C9  UNL     1      -5.473  13.076  21.830  1.00  0.00     0.127 C 
HETATM    6  C10 UNL     1      -6.283  11.867  21.534  1.00  0.00     0.233 C 
HETATM    7  O2  UNL     1      -7.523  11.837  21.612  1.00  0.00    -0.272 OA
HETATM    8  C11 UNL     1      -5.990  13.590  23.159  1.00  0.00     0.238 C 
HETATM    9  C12 UNL     1      -5.666  15.013  23.442  1.00  0.00     0.038 C 
HETATM   10  C13 UNL     1      -5.245  15.007  24.899  1.00  0.00     0.032 C 
HETATM   11  C14 UNL     1      -5.310  13.571  25.373  1.00  0.00     0.274 C 
HETATM   12  N3  UNL     1      -5.237  12.823  24.130  1.00  0.00     0.105 N 
HETATM   13  C15 UNL     1      -3.897  12.902  23.571  1.00  0.00     0.288 C 
ENDROOT
BRANCH  13  14
HETATM   14  C16 UNL     1      -2.946  12.065  24.321  1.00  0.00     0.069 A 
HETATM   15  C17 UNL     1      -3.218  11.024  25.174  1.00  0.00     0.070 A 
HETATM   16  C18 UNL     1      -2.003  10.522  25.654  1.00  0.00     0.117 A 
HETATM   17  O3  UNL     1      -1.084  11.257  25.087  1.00  0.00    -0.236 OA
HETATM   18  N4  UNL     1      -1.611  12.165  24.304  1.00  0.00    -0.263 N 
ATOM     19  H4  UNL     1      -1.083  12.848  23.761  1.00  0.00     0.194 HD
BRANCH  16  20
HETATM   20  C19 UNL     1      -1.857   9.412  26.586  1.00  0.00     0.042 A 
HETATM   21  C20 UNL     1      -2.689   9.034  27.607  1.00  0.00     0.024 A 
HETATM   22  C21 UNL     1      -2.328   7.968  28.326  1.00  0.00     0.033 A 
HETATM   23  C22 UNL     1      -1.162   7.338  27.992  1.00  0.00     0.075 A 
HETATM   24 CL1  UNL     1      -0.434   5.916  28.755  1.00  0.00    -0.076 Cl
HETATM   25  S1  UNL     1      -0.602   8.267  26.668  1.00  0.00    -0.075 SA
ENDBRANCH  16  20
ENDBRANCH  13  14
BRANCH   1  26
HETATM   26  C6  UNL     1      -5.547   9.650  20.358  1.00  0.00     0.137 C 
BRANCH  26  27
HETATM   27  C5  UNL     1      -4.619   9.526  19.217  1.00  0.00     0.048 C 
BRANCH  27  28
HETATM   28  C4  UNL     1      -4.551  10.577  18.188  1.00  0.00     0.237 C 
BRANCH  28  29
HETATM   29  N1  UNL     1      -5.068  10.282  16.896  1.00  0.00    -0.079 N 
HETATM   30  C1  UNL     1      -4.340  10.956  15.820  1.00  0.00     0.271 C 
HETATM   31  C2  UNL     1      -5.277   8.915  16.567  1.00  0.00     0.271 C 
HETATM   32  C3  UNL     1      -6.419  10.901  16.854  1.00  0.00     0.271 C 
ENDBRANCH  28  29
ENDBRANCH  27  28
ENDBRANCH  26  27
ENDBRANCH   1  26
TORSDOF 6
ENDMDL
