MODEL 7
REMARK VINA RESULT: -7.519836682      3.700      7.481
REMARK  6 active torsions:
REMARK  status: ('A' for Active; 'I' for Inactive)
REMARK    1  A    between atoms: N1_2  and  C4_5 
REMARK    2  A    between atoms: C4_5  and  C5_6 
REMARK    3  A    between atoms: C5_6  and  C6_7 
REMARK    4  A    between atoms: C6_7  and  N2_8 
REMARK    5  A    between atoms: C15_20  and  C16_21 
REMARK    6  A    between atoms: C18_23  and  C19_24 
ROOT
HETATM    1  N2  UNL     1      -5.791  13.037  23.582  1.00  0.00    -0.288 N 
HETATM    2  C7  UNL     1      -5.280  12.682  22.267  1.00  0.00     0.234 C 
HETATM    3  O1  UNL     1      -5.972  12.249  21.323  1.00  0.00    -0.272 OA
HETATM    4  C8  UNL     1      -3.832  12.915  22.226  1.00  0.00     0.133 C 
HETATM    5  C9  UNL     1      -3.455  13.187  23.672  1.00  0.00     0.127 C 
HETATM    6  C10 UNL     1      -4.690  12.936  24.457  1.00  0.00     0.233 C 
HETATM    7  O2  UNL     1      -4.689  12.683  25.673  1.00  0.00    -0.272 OA
HETATM    8  C11 UNL     1      -2.513  12.056  24.034  1.00  0.00     0.238 C 
HETATM    9  C12 UNL     1      -1.081  12.325  23.742  1.00  0.00     0.038 C 
HETATM   10  C13 UNL     1      -0.584  11.027  23.135  1.00  0.00     0.032 C 
HETATM   11  C14 UNL     1      -1.768  10.086  23.072  1.00  0.00     0.274 C 
HETATM   12  N3  UNL     1      -2.899  10.995  23.127  1.00  0.00     0.105 N 
HETATM   13  C15 UNL     1      -3.021  11.727  21.876  1.00  0.00     0.288 C 
ENDROOT
BRANCH  13  14
HETATM   14  C16 UNL     1      -3.550  10.874  20.799  1.00  0.00     0.069 A 
HETATM   15  C17 UNL     1      -4.349   9.763  20.908  1.00  0.00     0.070 A 
HETATM   16  C18 UNL     1      -4.605   9.279  19.619  1.00  0.00     0.117 A 
HETATM   17  O3  UNL     1      -3.970  10.093  18.818  1.00  0.00    -0.236 OA
HETATM   18  N4  UNL     1      -3.346  11.033  19.485  1.00  0.00    -0.263 N 
ATOM     19  H4  UNL     1      -2.788  11.776  19.066  1.00  0.00     0.194 HD
BRANCH  16  20
HETATM   20  C19 UNL     1      -5.414   8.111  19.301  1.00  0.00     0.042 A 
HETATM   21  C20 UNL     1      -6.718   7.852  19.636  1.00  0.00     0.024 A 
HETATM   22  C21 UNL     1      -7.237   6.695  19.219  1.00  0.00     0.033 A 
HETATM   23  C22 UNL     1      -6.435   5.860  18.492  1.00  0.00     0.075 A 
HETATM   24 CL1  UNL     1      -6.842   4.277  17.812  1.00  0.00    -0.076 Cl
HETATM   25  S1  UNL     1      -4.963   6.730  18.416  1.00  0.00    -0.075 SA
ENDBRANCH  16  20
ENDBRANCH  13  14
BRANCH   1  26
HETATM   26  C6  UNL     1      -7.179  13.373  23.780  1.00  0.00     0.137 C 
BRANCH  26  27
HETATM   27  C5  UNL     1      -7.451  14.587  24.575  1.00  0.00     0.048 C 
BRANCH  27  28
HETATM   28  C4  UNL     1      -7.068  15.915  24.069  1.00  0.00     0.237 C 
BRANCH  28  29
HETATM   29  N1  UNL     1      -5.981  16.583  24.699  1.00  0.00    -0.079 N 
HETATM   30  C1  UNL     1      -5.744  16.128  26.069  1.00  0.00     0.271 C 
HETATM   31  C2  UNL     1      -4.753  16.657  23.987  1.00  0.00     0.271 C 
HETATM   32  C3  UNL     1      -6.419  17.994  24.862  1.00  0.00     0.271 C 
ENDBRANCH  28  29
ENDBRANCH  27  28
ENDBRANCH  26  27
ENDBRANCH   1  26
TORSDOF 6
ENDMDL
