MODEL 9
REMARK VINA RESULT: -7.439065418      3.658      6.431
REMARK  6 active torsions:
REMARK  status: ('A' for Active; 'I' for Inactive)
REMARK    1  A    between atoms: N1_2  and  C4_5 
REMARK    2  A    between atoms: C4_5  and  C5_6 
REMARK    3  A    between atoms: C5_6  and  C6_7 
REMARK    4  A    between atoms: C6_7  and  N2_8 
REMARK    5  A    between atoms: C15_20  and  C16_21 
REMARK    6  A    between atoms: C18_23  and  C19_24 
ROOT
HETATM    1  N2  UNL     1      -5.419  13.478  23.566  1.00  0.00    -0.288 N 
HETATM    2  C7  UNL     1      -4.899  13.029  22.284  1.00  0.00     0.234 C 
HETATM    3  O1  UNL     1      -5.598  12.665  21.316  1.00  0.00    -0.272 OA
HETATM    4  C8  UNL     1      -3.433  13.077  22.308  1.00  0.00     0.133 C 
HETATM    5  C9  UNL     1      -3.090  13.333  23.765  1.00  0.00     0.127 C 
HETATM    6  C10 UNL     1      -4.381  13.260  24.495  1.00  0.00     0.233 C 
HETATM    7  O2  UNL     1      -4.467  13.038  25.714  1.00  0.00    -0.272 OA
HETATM    8  C11 UNL     1      -2.317  12.101  24.192  1.00  0.00     0.238 C 
HETATM    9  C12 UNL     1      -0.850  12.180  23.964  1.00  0.00     0.038 C 
HETATM   10  C13 UNL     1      -0.496  10.815  23.405  1.00  0.00     0.032 C 
HETATM   11  C14 UNL     1      -1.786  10.031  23.303  1.00  0.00     0.274 C 
HETATM   12  N3  UNL     1      -2.794  11.076  23.288  1.00  0.00     0.105 N 
HETATM   13  C15 UNL     1      -2.765  11.787  22.019  1.00  0.00     0.288 C 
ENDROOT
BRANCH  13  14
HETATM   14  C16 UNL     1      -3.349  10.982  20.933  1.00  0.00     0.069 A 
HETATM   15  C17 UNL     1      -4.172   9.888  21.034  1.00  0.00     0.070 A 
HETATM   16  C18 UNL     1      -4.480   9.452  19.739  1.00  0.00     0.117 A 
HETATM   17  O3  UNL     1      -3.852  10.276  18.944  1.00  0.00    -0.236 OA
HETATM   18  N4  UNL     1      -3.184  11.178  19.619  1.00  0.00    -0.263 N 
ATOM     19  H4  UNL     1      -2.621  11.921  19.205  1.00  0.00     0.194 HD
BRANCH  16  20
HETATM   20  C19 UNL     1      -5.329   8.314  19.411  1.00  0.00     0.042 A 
HETATM   21  C20 UNL     1      -6.622   8.069  19.792  1.00  0.00     0.024 A 
HETATM   22  C21 UNL     1      -7.185   6.941  19.353  1.00  0.00     0.033 A 
HETATM   23  C22 UNL     1      -6.433   6.118  18.561  1.00  0.00     0.075 A 
HETATM   24 CL1  UNL     1      -6.903   4.573  17.838  1.00  0.00    -0.076 Cl
HETATM   25  S1  UNL     1      -4.946   6.960  18.455  1.00  0.00    -0.075 SA
ENDBRANCH  16  20
ENDBRANCH  13  14
BRANCH   1  26
HETATM   26  C6  UNL     1      -6.761  13.991  23.691  1.00  0.00     0.137 C 
BRANCH  26  27
HETATM   27  C5  UNL     1      -7.839  12.987  23.773  1.00  0.00     0.048 C 
BRANCH  27  28
HETATM   28  C4  UNL     1      -8.913  12.956  22.766  1.00  0.00     0.237 C 
BRANCH  28  29
HETATM   29  N1  UNL     1      -9.436  11.690  22.384  1.00  0.00    -0.079 N 
HETATM   30  C1  UNL     1      -8.399  10.678  22.180  1.00  0.00     0.271 C 
HETATM   31  C2  UNL     1     -10.497  11.155  23.164  1.00  0.00     0.271 C 
HETATM   32  C3  UNL     1     -10.013  11.887  21.029  1.00  0.00     0.271 C 
ENDBRANCH  28  29
ENDBRANCH  27  28
ENDBRANCH  26  27
ENDBRANCH   1  26
TORSDOF 6
ENDMDL
