MODEL 2
REMARK VINA RESULT: -8.513808644      0.855      1.097
REMARK  6 active torsions:
REMARK  status: ('A' for Active; 'I' for Inactive)
REMARK    1  A    between atoms: N1_2  and  C4_5 
REMARK    2  A    between atoms: C4_5  and  C5_6 
REMARK    3  A    between atoms: C5_6  and  C6_7 
REMARK    4  A    between atoms: C6_7  and  N2_8 
REMARK    5  A    between atoms: C15_20  and  C16_21 
REMARK    6  A    between atoms: C18_23  and  C19_24 
ROOT
HETATM    1  N2  UNL     1      -5.338  11.521  21.168  1.00  0.00    -0.288 N 
HETATM    2  C7  UNL     1      -4.079  11.700  21.875  1.00  0.00     0.234 C 
HETATM    3  O1  UNL     1      -3.218  10.811  22.037  1.00  0.00    -0.272 OA
HETATM    4  C8  UNL     1      -3.984  13.080  22.362  1.00  0.00     0.133 C 
HETATM    5  C9  UNL     1      -5.371  13.655  22.132  1.00  0.00     0.127 C 
HETATM    6  C10 UNL     1      -6.203  12.514  21.674  1.00  0.00     0.233 C 
HETATM    7  O2  UNL     1      -7.442  12.495  21.751  1.00  0.00    -0.272 OA
HETATM    8  C11 UNL     1      -5.876  13.987  23.522  1.00  0.00     0.238 C 
HETATM    9  C12 UNL     1      -5.526  15.351  24.000  1.00  0.00     0.038 C 
HETATM   10  C13 UNL     1      -5.102  15.133  25.440  1.00  0.00     0.032 C 
HETATM   11  C14 UNL     1      -5.192  13.647  25.708  1.00  0.00     0.274 C 
HETATM   12  N3  UNL     1      -5.135  13.079  24.373  1.00  0.00     0.105 N 
HETATM   13  C15 UNL     1      -3.794  13.212  23.824  1.00  0.00     0.288 C 
ENDROOT
BRANCH  13  14
HETATM   14  C16 UNL     1      -2.857  12.262  24.445  1.00  0.00     0.069 A 
HETATM   15  C17 UNL     1      -3.138  11.231  25.308  1.00  0.00     0.070 A 
HETATM   16  C18 UNL     1      -1.935  10.594  25.635  1.00  0.00     0.117 A 
HETATM   17  O3  UNL     1      -1.014  11.247  24.977  1.00  0.00    -0.236 OA
HETATM   18  N4  UNL     1      -1.530  12.226  24.275  1.00  0.00    -0.263 N 
ATOM     19  H4  UNL     1      -0.999  12.866  23.686  1.00  0.00     0.194 HD
BRANCH  16  20
HETATM   20  C19 UNL     1      -1.800   9.450  26.527  1.00  0.00     0.042 A 
HETATM   21  C20 UNL     1      -2.629   9.052  27.543  1.00  0.00     0.024 A 
HETATM   22  C21 UNL     1      -2.281   7.955  28.220  1.00  0.00     0.033 A 
HETATM   23  C22 UNL     1      -1.130   7.315  27.852  1.00  0.00     0.075 A 
HETATM   24 CL1  UNL     1      -0.421   5.854  28.556  1.00  0.00    -0.076 Cl
HETATM   25  S1  UNL     1      -0.566   8.279  26.554  1.00  0.00    -0.075 SA
ENDBRANCH  16  20
ENDBRANCH  13  14
BRANCH   1  26
HETATM   26  C6  UNL     1      -5.508  10.471  20.195  1.00  0.00     0.137 C 
BRANCH  26  27
HETATM   27  C5  UNL     1      -5.817   9.130  20.728  1.00  0.00     0.048 C 
BRANCH  27  28
HETATM   28  C4  UNL     1      -6.722   8.225  20.001  1.00  0.00     0.237 C 
BRANCH  28  29
HETATM   29  N1  UNL     1      -6.222   7.565  18.845  1.00  0.00    -0.079 N 
HETATM   30  C1  UNL     1      -6.749   8.117  17.596  1.00  0.00     0.271 C 
HETATM   31  C2  UNL     1      -4.815   7.385  18.746  1.00  0.00     0.271 C 
HETATM   32  C3  UNL     1      -6.785   6.191  18.892  1.00  0.00     0.271 C 
ENDBRANCH  28  29
ENDBRANCH  27  28
ENDBRANCH  26  27
ENDBRANCH   1  26
TORSDOF 6
ENDMDL
