MODEL 5
REMARK VINA RESULT: -7.566159063      4.282      6.800
REMARK  6 active torsions:
REMARK  status: ('A' for Active; 'I' for Inactive)
REMARK    1  A    between atoms: N1_2  and  C4_5 
REMARK    2  A    between atoms: C4_5  and  C5_6 
REMARK    3  A    between atoms: C5_6  and  C6_7 
REMARK    4  A    between atoms: C6_7  and  N2_8 
REMARK    5  A    between atoms: C15_20  and  C16_21 
REMARK    6  A    between atoms: C18_23  and  C19_24 
ROOT
HETATM    1  N2  UNL     1      -7.573  10.970  16.884  1.00  0.00    -0.288 N 
HETATM    2  C7  UNL     1      -7.189  10.801  18.277  1.00  0.00     0.234 C 
HETATM    3  O1  UNL     1      -6.686  11.690  18.993  1.00  0.00    -0.272 OA
HETATM    4  C8  UNL     1      -7.487   9.429  18.703  1.00  0.00     0.133 C 
HETATM    5  C9  UNL     1      -7.835   8.705  17.415  1.00  0.00     0.127 C 
HETATM    6  C10 UNL     1      -7.560   9.676  16.326  1.00  0.00     0.233 C 
HETATM    7  O2  UNL     1      -7.357   9.344  15.146  1.00  0.00    -0.272 OA
HETATM    8  C11 UNL     1      -6.766   7.639  17.281  1.00  0.00     0.238 C 
HETATM    9  C12 UNL     1      -7.089   6.349  17.947  1.00  0.00     0.038 C 
HETATM   10  C13 UNL     1      -5.792   5.956  18.628  1.00  0.00     0.032 C 
HETATM   11  C14 UNL     1      -4.795   7.061  18.352  1.00  0.00     0.274 C 
HETATM   12  N3  UNL     1      -5.652   8.187  18.026  1.00  0.00     0.105 N 
HETATM   13  C15 UNL     1      -6.325   8.672  19.221  1.00  0.00     0.288 C 
ENDROOT
BRANCH  13  14
HETATM   14  C16 UNL     1      -5.405   9.415  20.098  1.00  0.00     0.069 A 
HETATM   15  C17 UNL     1      -4.092   9.743  19.871  1.00  0.00     0.070 A 
HETATM   16  C18 UNL     1      -3.620  10.455  20.980  1.00  0.00     0.117 A 
HETATM   17  O3  UNL     1      -4.636  10.523  21.797  1.00  0.00    -0.236 OA
HETATM   18  N4  UNL     1      -5.690   9.922  21.304  1.00  0.00    -0.263 N 
ATOM     19  H4  UNL     1      -6.595   9.851  21.769  1.00  0.00     0.194 HD
BRANCH  16  20
HETATM   20  C19 UNL     1      -2.271  10.984  21.132  1.00  0.00     0.042 A 
HETATM   21  C20 UNL     1      -1.268  10.552  21.961  1.00  0.00     0.024 A 
HETATM   22  C21 UNL     1      -0.109  11.213  21.912  1.00  0.00     0.033 A 
HETATM   23  C22 UNL     1      -0.009  12.264  21.044  1.00  0.00     0.075 A 
HETATM   24 CL1  UNL     1       1.386  13.317  20.763  1.00  0.00    -0.076 Cl
HETATM   25  S1  UNL     1      -1.558  12.296  20.316  1.00  0.00    -0.075 SA
ENDBRANCH  16  20
ENDBRANCH  13  14
BRANCH   1  26
HETATM   26  C6  UNL     1      -7.851  12.275  16.338  1.00  0.00     0.137 C 
BRANCH  26  27
HETATM   27  C5  UNL     1      -6.902  12.776  15.325  1.00  0.00     0.048 C 
BRANCH  27  28
HETATM   28  C4  UNL     1      -5.483  12.975  15.663  1.00  0.00     0.237 C 
BRANCH  28  29
HETATM   29  N1  UNL     1      -4.534  12.056  15.135  1.00  0.00    -0.079 N 
HETATM   30  C1  UNL     1      -4.133  11.029  16.098  1.00  0.00     0.271 C 
HETATM   31  C2  UNL     1      -4.822  11.462  13.876  1.00  0.00     0.271 C 
HETATM   32  C3  UNL     1      -3.293  12.843  14.916  1.00  0.00     0.271 C 
ENDBRANCH  28  29
ENDBRANCH  27  28
ENDBRANCH  26  27
ENDBRANCH   1  26
TORSDOF 6
ENDMDL
