MODEL 1
REMARK VINA RESULT: -6.463763047      0.000      0.000
REMARK  4 active torsions:
REMARK  status: ('A' for Active; 'I' for Inactive)
REMARK    1  A    between atoms: O1_1  and  C1_3 
REMARK    2  A    between atoms: C5_8  and  O2_9 
REMARK    3  A    between atoms: C7_12  and  O3_13 
REMARK    4  A    between atoms: C8_15  and  O4_16 
ROOT
HETATM    1  C1  UNL     1      21.826  42.981  71.158  1.00  0.00     0.177 C 
HETATM    2  C2  UNL     1      21.839  43.481  69.768  1.00  0.00     0.307 C 
HETATM    3  N1  UNL     1      22.738  42.853  68.873  1.00  0.00     0.101 N 
HETATM    4  C3  UNL     1      23.185  43.706  67.780  1.00  0.00     0.276 C 
HETATM    5  C4  UNL     1      24.152  42.740  67.101  1.00  0.00     0.064 C 
HETATM    6  C5  UNL     1      24.815  42.062  68.305  1.00  0.00     0.155 C 
HETATM    7  C6  UNL     1      24.043  42.560  69.471  1.00  0.00     0.282 C 
HETATM    8  C7  UNL     1      23.820  41.572  70.561  1.00  0.00     0.185 C 
HETATM    9  C8  UNL     1      23.032  42.273  71.631  1.00  0.00     0.179 C 
ENDROOT
BRANCH   1  10
HETATM   10  O1  UNL     1      21.617  44.091  72.011  1.00  0.00    -0.391 OA
ATOM     11  H1  UNL     1      22.142  44.811  71.680  1.00  0.00     0.210 HD
ENDBRANCH   1  10
BRANCH   9  12
HETATM   12  O4  UNL     1      22.740  41.376  72.663  1.00  0.00    -0.390 OA
ATOM     13  H4  UNL     1      23.148  40.530  72.523  1.00  0.00     0.210 HD
ENDBRANCH   9  12
BRANCH   8  14
HETATM   14  O3  UNL     1      25.009  41.131  71.091  1.00  0.00    -0.391 OA
ATOM     15  H3  UNL     1      25.017  40.187  71.189  1.00  0.00     0.210 HD
ENDBRANCH   8  14
BRANCH   6  16
HETATM   16  O2  UNL     1      24.740  40.673  68.190  1.00  0.00    -0.393 OA
ATOM     17  H2  UNL     1      24.663  40.270  69.047  1.00  0.00     0.210 HD
ENDBRANCH   6  16
TORSDOF 4
ENDMDL
