MODEL 11
REMARK VINA RESULT: -5.212904644      3.014      4.447
REMARK  4 active torsions:
REMARK  status: ('A' for Active; 'I' for Inactive)
REMARK    1  A    between atoms: O1_1  and  C1_3 
REMARK    2  A    between atoms: C5_8  and  O2_9 
REMARK    3  A    between atoms: C7_12  and  O3_13 
REMARK    4  A    between atoms: C8_15  and  O4_16 
ROOT
HETATM    1  C1  UNL     1      23.374  43.205  69.726  1.00  0.00     0.177 C 
HETATM    2  C2  UNL     1      24.730  43.714  69.431  1.00  0.00     0.307 C 
HETATM    3  N1  UNL     1      24.966  45.085  69.688  1.00  0.00     0.101 N 
HETATM    4  C3  UNL     1      26.001  45.678  68.854  1.00  0.00     0.276 C 
HETATM    5  C4  UNL     1      25.920  47.118  69.356  1.00  0.00     0.064 C 
HETATM    6  C5  UNL     1      24.409  47.305  69.528  1.00  0.00     0.155 C 
HETATM    7  C6  UNL     1      23.848  45.949  69.300  1.00  0.00     0.282 C 
HETATM    8  C7  UNL     1      22.687  45.584  70.154  1.00  0.00     0.185 C 
HETATM    9  C8  UNL     1      22.277  44.192  69.764  1.00  0.00     0.179 C 
ENDROOT
BRANCH   1  10
HETATM   10  O1  UNL     1      23.053  42.243  68.738  1.00  0.00    -0.391 OA
ATOM     11  H1  UNL     1      23.437  41.416  69.006  1.00  0.00     0.210 HD
ENDBRANCH   1  10
BRANCH   9  12
HETATM   12  O4  UNL     1      21.221  43.768  70.575  1.00  0.00    -0.390 OA
ATOM     13  H4  UNL     1      20.530  43.357  70.071  1.00  0.00     0.210 HD
ENDBRANCH   9  12
BRANCH   8  14
HETATM   14  O3  UNL     1      21.628  46.438  69.957  1.00  0.00    -0.391 OA
ATOM     15  H3  UNL     1      20.939  46.026  69.450  1.00  0.00     0.210 HD
ENDBRANCH   8  14
BRANCH   6  16
HETATM   16  O2  UNL     1      24.114  47.778  70.808  1.00  0.00    -0.393 OA
ATOM     17  H2  UNL     1      23.588  48.568  70.760  1.00  0.00     0.210 HD
ENDBRANCH   6  16
TORSDOF 4
ENDMDL
