MODEL 5
REMARK VINA RESULT: -5.819238528      4.369      5.928
REMARK  4 active torsions:
REMARK  status: ('A' for Active; 'I' for Inactive)
REMARK    1  A    between atoms: O1_1  and  C1_3 
REMARK    2  A    between atoms: C5_8  and  O2_9 
REMARK    3  A    between atoms: C7_12  and  O3_13 
REMARK    4  A    between atoms: C8_15  and  O4_16 
ROOT
HETATM    1  C1  UNL     1      23.837  45.299  69.445  1.00  0.00     0.177 C 
HETATM    2  C2  UNL     1      24.722  46.320  68.847  1.00  0.00     0.307 C 
HETATM    3  N1  UNL     1      24.363  47.674  69.051  1.00  0.00     0.101 N 
HETATM    4  C3  UNL     1      24.820  48.576  68.004  1.00  0.00     0.276 C 
HETATM    5  C4  UNL     1      24.207  49.875  68.521  1.00  0.00     0.064 C 
HETATM    6  C5  UNL     1      22.847  49.395  69.040  1.00  0.00     0.155 C 
HETATM    7  C6  UNL     1      22.922  47.916  68.939  1.00  0.00     0.282 C 
HETATM    8  C7  UNL     1      22.259  47.164  70.037  1.00  0.00     0.185 C 
HETATM    9  C8  UNL     1      22.448  45.703  69.743  1.00  0.00     0.179 C 
ENDROOT
BRANCH   1  10
HETATM   10  O1  UNL     1      23.784  44.203  68.552  1.00  0.00    -0.391 OA
ATOM     11  H1  UNL     1      23.482  43.447  69.042  1.00  0.00     0.210 HD
ENDBRANCH   1  10
BRANCH   9  12
HETATM   12  O4  UNL     1      21.893  44.940  70.774  1.00  0.00    -0.390 OA
ATOM     13  H4  UNL     1      22.418  44.173  70.968  1.00  0.00     0.210 HD
ENDBRANCH   9  12
BRANCH   8  14
HETATM   14  O3  UNL     1      20.914  47.442  70.096  1.00  0.00    -0.391 OA
ATOM     15  H3  UNL     1      20.454  47.096  69.340  1.00  0.00     0.210 HD
ENDBRANCH   8  14
BRANCH   6  16
HETATM   16  O2  UNL     1      22.648  49.814  70.357  1.00  0.00    -0.393 OA
ATOM     17  H2  UNL     1      22.088  49.202  70.821  1.00  0.00     0.210 HD
ENDBRANCH   6  16
TORSDOF 4
ENDMDL
