MODEL 6
REMARK VINA RESULT: -5.754712398      4.287      5.182
REMARK  4 active torsions:
REMARK  status: ('A' for Active; 'I' for Inactive)
REMARK    1  A    between atoms: O1_1  and  C1_3 
REMARK    2  A    between atoms: C5_8  and  O2_9 
REMARK    3  A    between atoms: C7_12  and  O3_13 
REMARK    4  A    between atoms: C8_15  and  O4_16 
ROOT
HETATM    1  C1  UNL     1      22.575  48.810  69.344  1.00  0.00     0.177 C 
HETATM    2  C2  UNL     1      24.000  48.712  68.966  1.00  0.00     0.307 C 
HETATM    3  N1  UNL     1      24.538  47.409  68.841  1.00  0.00     0.101 N 
HETATM    4  C3  UNL     1      25.969  47.328  69.095  1.00  0.00     0.276 C 
HETATM    5  C4  UNL     1      26.157  45.822  68.939  1.00  0.00     0.064 C 
HETATM    6  C5  UNL     1      24.891  45.277  69.610  1.00  0.00     0.155 C 
HETATM    7  C6  UNL     1      24.076  46.488  69.882  1.00  0.00     0.282 C 
HETATM    8  C7  UNL     1      22.608  46.324  69.711  1.00  0.00     0.185 C 
HETATM    9  C8  UNL     1      21.979  47.649  70.036  1.00  0.00     0.179 C 
ENDROOT
BRANCH   1  10
HETATM   10  O1  UNL     1      22.433  49.935  70.191  1.00  0.00    -0.391 OA
ATOM     11  H1  UNL     1      21.912  50.580  69.728  1.00  0.00     0.210 HD
ENDBRANCH   1  10
BRANCH   9  12
HETATM   12  O4  UNL     1      20.598  47.576  69.837  1.00  0.00    -0.390 OA
ATOM     13  H4  UNL     1      20.119  48.065  70.495  1.00  0.00     0.210 HD
ENDBRANCH   9  12
BRANCH   8  14
HETATM   14  O3  UNL     1      22.106  45.367  70.561  1.00  0.00    -0.391 OA
ATOM     15  H3  UNL     1      22.319  45.559  71.466  1.00  0.00     0.210 HD
ENDBRANCH   8  14
BRANCH   6  16
HETATM   16  O2  UNL     1      24.229  44.388  68.761  1.00  0.00    -0.393 OA
ATOM     17  H2  UNL     1      23.386  44.142  69.125  1.00  0.00     0.210 HD
ENDBRANCH   6  16
TORSDOF 4
ENDMDL
