MODEL 12
REMARK VINA RESULT: -5.196658450      1.815      2.061
REMARK  4 active torsions:
REMARK  status: ('A' for Active; 'I' for Inactive)
REMARK    1  A    between atoms: O1_1  and  C1_3 
REMARK    2  A    between atoms: C5_8  and  O2_9 
REMARK    3  A    between atoms: C7_12  and  O3_13 
REMARK    4  A    between atoms: C8_15  and  O4_16 
ROOT
HETATM    1  C1  UNL     1      21.553  43.827  70.362  1.00  0.00     0.177 C 
HETATM    2  C2  UNL     1      22.781  44.564  69.999  1.00  0.00     0.307 C 
HETATM    3  N1  UNL     1      23.591  43.996  68.987  1.00  0.00     0.101 N 
HETATM    4  C3  UNL     1      25.001  44.343  69.086  1.00  0.00     0.276 C 
HETATM    5  C4  UNL     1      25.534  43.522  67.915  1.00  0.00     0.064 C 
HETATM    6  C5  UNL     1      24.710  42.236  68.032  1.00  0.00     0.155 C 
HETATM    7  C6  UNL     1      23.713  42.539  69.090  1.00  0.00     0.282 C 
HETATM    8  C7  UNL     1      22.358  41.964  68.878  1.00  0.00     0.185 C 
HETATM    9  C8  UNL     1      21.517  42.384  70.051  1.00  0.00     0.179 C 
ENDROOT
BRANCH   1  10
HETATM   10  O1  UNL     1      21.364  43.970  71.757  1.00  0.00    -0.391 OA
ATOM     11  H1  UNL     1      21.287  43.099  72.128  1.00  0.00     0.210 HD
ENDBRANCH   1  10
BRANCH   9  12
HETATM   12  O4  UNL     1      20.210  41.919  69.882  1.00  0.00    -0.390 OA
ATOM     13  H4  UNL     1      19.935  41.364  70.602  1.00  0.00     0.210 HD
ENDBRANCH   9  12
BRANCH   8  14
HETATM   14  O3  UNL     1      22.398  40.591  68.820  1.00  0.00    -0.391 OA
ATOM     15  H3  UNL     1      21.690  40.245  68.291  1.00  0.00     0.210 HD
ENDBRANCH   8  14
BRANCH   6  16
HETATM   16  O2  UNL     1      24.095  41.933  66.815  1.00  0.00    -0.393 OA
ATOM     17  H2  UNL     1      23.470  42.609  66.579  1.00  0.00     0.210 HD
ENDBRANCH   6  16
TORSDOF 4
ENDMDL
