MODEL 2
REMARK VINA RESULT: -10.206985362      0.795      1.014
REMARK  9 active torsions:
REMARK  status: ('A' for Active; 'I' for Inactive)
REMARK    1  A    between atoms: C6_9  and  C7_10 
REMARK    2  A    between atoms: C7_10  and  N2_11 
REMARK    3  A    between atoms: N2_11  and  C9_13 
REMARK    4  A    between atoms: C12_16  and  C13_17 
REMARK       I    between atoms: C13_17  and  N3_19 
REMARK    5  A    between atoms: N3_19  and  C14_21 
REMARK    6  A    between atoms: C14_21  and  C15_22 
REMARK    7  A    between atoms: C14_21  and  C18_27 
REMARK    8  A    between atoms: C15_22  and  C16_23 
REMARK    9  A    between atoms: C16_23  and  C17_24 
ROOT
HETATM    1  C9  UNL     1      16.835  15.530  31.850  1.00  0.00     0.072 A 
HETATM    2  C10 UNL     1      15.993  15.591  30.771  1.00  0.00     0.038 A 
HETATM    3  C11 UNL     1      15.554  16.800  30.400  1.00  0.00     0.027 A 
HETATM    4  C12 UNL     1      15.981  17.876  31.127  1.00  0.00     0.074 A 
HETATM    5  S1  UNL     1      16.985  17.164  32.308  1.00  0.00    -0.067 SA
ENDROOT
BRANCH   1   6
HETATM    6  N2  UNL     1      17.440  14.357  32.442  1.00  0.00    -0.375 N 
HETATM    7  C8  UNL     1      18.759  14.520  33.030  1.00  0.00     0.150 C 
BRANCH   6   8
HETATM    8  C7  UNL     1      16.817  13.078  32.477  1.00  0.00     0.161 C 
BRANCH   8   9
HETATM    9  C6  UNL     1      15.797  13.036  33.585  1.00  0.00    -0.039 A 
HETATM   10  C5  UNL     1      14.445  13.155  33.302  1.00  0.00     0.028 A 
HETATM   11  C4  UNL     1      13.480  13.122  34.283  1.00  0.00     0.059 A 
HETATM   12  C3  UNL     1      12.134  13.237  34.036  1.00  0.00     0.259 A 
HETATM   13  C21 UNL     1      13.863  12.963  35.600  1.00  0.00     0.049 A 
HETATM   14  N1  UNL     1      11.204  13.203  35.006  1.00  0.00    -0.313 N 
HETATM   15  O1  UNL     1      11.753  13.382  32.847  1.00  0.00    -0.267 OA
HETATM   16  C2  UNL     1      11.600  13.046  36.294  1.00  0.00     0.080 A 
ATOM     17  H1  UNL     1      10.214  13.293  34.777  1.00  0.00     0.170 HD
HETATM   18  C1  UNL     1      10.598  13.001  37.403  1.00  0.00     0.089 C 
HETATM   19  N4  UNL     1      12.901  12.932  36.545  1.00  0.00    -0.345 N 
ATOM     20  H4  UNL     1      13.191  12.814  37.516  1.00  0.00     0.167 HD
HETATM   21  C20 UNL     1      15.206  12.843  35.890  1.00  0.00     0.031 A 
HETATM   22  C19 UNL     1      16.185  12.877  34.900  1.00  0.00     0.011 A 
ENDBRANCH   8   9
ENDBRANCH   6   8
ENDBRANCH   1   6
BRANCH   4  23
HETATM   23  C13 UNL     1      15.641  19.305  30.920  1.00  0.00     0.259 C 
HETATM   24  O2  UNL     1      16.261  20.214  31.481  1.00  0.00    -0.267 OA
HETATM   25  N3  UNL     1      14.582  19.607  30.058  1.00  0.00    -0.342 N 
ATOM     26  H3  UNL     1      14.093  18.832  29.610  1.00  0.00     0.163 HD
BRANCH  25  27
HETATM   27  C14 UNL     1      14.135  20.962  29.759  1.00  0.00     0.186 C 
BRANCH  27  28
HETATM   28  C15 UNL     1      14.462  21.366  28.365  1.00  0.00     0.046 C 
BRANCH  28  29
HETATM   29  C16 UNL     1      15.551  22.389  28.264  1.00  0.00     0.116 C 
BRANCH  29  30
HETATM   30  C17 UNL     1      15.423  23.296  27.123  1.00  0.00     0.172 C 
HETATM   31  O3  UNL     1      15.933  24.414  27.089  1.00  0.00    -0.648 OA
HETATM   32  O4  UNL     1      14.684  22.895  25.999  1.00  0.00    -0.648 OA
ENDBRANCH  29  30
ENDBRANCH  28  29
ENDBRANCH  27  28
BRANCH  27  33
HETATM   33  C18 UNL     1      12.718  21.070  30.125  1.00  0.00     0.196 C 
HETATM   34  O5  UNL     1      11.903  21.608  29.331  1.00  0.00    -0.646 OA
HETATM   35  O6  UNL     1      12.187  20.605  31.321  1.00  0.00    -0.646 OA
ENDBRANCH  27  33
ENDBRANCH  25  27
ENDBRANCH   4  23
TORSDOF 9
ENDMDL
