MODEL 1
REMARK VINA RESULT: -10.248848815      0.000      0.000
REMARK  9 active torsions:
REMARK  status: ('A' for Active; 'I' for Inactive)
REMARK    1  A    between atoms: C6_9  and  C7_10 
REMARK    2  A    between atoms: C7_10  and  N2_11 
REMARK    3  A    between atoms: N2_11  and  C9_13 
REMARK    4  A    between atoms: C12_16  and  C13_17 
REMARK       I    between atoms: C13_17  and  N3_19 
REMARK    5  A    between atoms: N3_19  and  C14_21 
REMARK    6  A    between atoms: C14_21  and  C15_22 
REMARK    7  A    between atoms: C14_21  and  C18_27 
REMARK    8  A    between atoms: C15_22  and  C16_23 
REMARK    9  A    between atoms: C16_23  and  C17_24 
ROOT
HETATM    1  C9  UNL     1      16.495  15.484  31.511  1.00  0.00     0.072 A 
HETATM    2  C10 UNL     1      15.593  15.547  30.483  1.00  0.00     0.038 A 
HETATM    3  C11 UNL     1      14.977  16.717  30.275  1.00  0.00     0.027 A 
HETATM    4  C12 UNL     1      15.299  17.755  31.105  1.00  0.00     0.074 A 
HETATM    5  S1  UNL     1      16.454  17.063  32.151  1.00  0.00    -0.067 SA
ENDROOT
BRANCH   1   6
HETATM    6  N2  UNL     1      17.284  14.347  31.937  1.00  0.00    -0.375 N 
HETATM    7  C8  UNL     1      18.694  14.584  32.199  1.00  0.00     0.150 C 
BRANCH   6   8
HETATM    8  C7  UNL     1      16.754  13.038  32.109  1.00  0.00     0.161 C 
BRANCH   8   9
HETATM    9  C6  UNL     1      15.825  13.013  33.294  1.00  0.00    -0.039 A 
HETATM   10  C5  UNL     1      14.453  13.090  33.114  1.00  0.00     0.028 A 
HETATM   11  C4  UNL     1      13.568  13.071  34.169  1.00  0.00     0.059 A 
HETATM   12  C3  UNL     1      12.204  13.145  34.025  1.00  0.00     0.259 A 
HETATM   13  C21 UNL     1      14.056  12.971  35.456  1.00  0.00     0.049 A 
HETATM   14  N1  UNL     1      11.354  13.125  35.065  1.00  0.00    -0.313 N 
HETATM   15  O1  UNL     1      11.729  13.237  32.865  1.00  0.00    -0.267 OA
HETATM   16  C2  UNL     1      11.853  13.026  36.323  1.00  0.00     0.080 A 
ATOM     17  H1  UNL     1      10.347  13.183  34.912  1.00  0.00     0.170 HD
HETATM   18  C1  UNL     1      10.941  12.999  37.508  1.00  0.00     0.089 C 
HETATM   19  N4  UNL     1      13.172  12.952  36.475  1.00  0.00    -0.345 N 
ATOM     20  H4  UNL     1      13.540  12.877  37.423  1.00  0.00     0.167 HD
HETATM   21  C20 UNL     1      15.421  12.893  35.644  1.00  0.00     0.031 A 
HETATM   22  C19 UNL     1      16.318  12.913  34.579  1.00  0.00     0.011 A 
ENDBRANCH   8   9
ENDBRANCH   6   8
ENDBRANCH   1   6
BRANCH   4  23
HETATM   23  C13 UNL     1      14.761  19.137  31.080  1.00  0.00     0.259 C 
HETATM   24  O2  UNL     1      14.144  19.616  32.037  1.00  0.00    -0.267 OA
HETATM   25  N3  UNL     1      14.972  19.902  29.929  1.00  0.00    -0.342 N 
ATOM     26  H3  UNL     1      15.487  19.475  29.159  1.00  0.00     0.163 HD
BRANCH  25  27
HETATM   27  C14 UNL     1      14.502  21.272  29.762  1.00  0.00     0.186 C 
BRANCH  27  28
HETATM   28  C15 UNL     1      15.493  22.121  29.048  1.00  0.00     0.046 C 
BRANCH  28  29
HETATM   29  C16 UNL     1      15.469  21.965  27.558  1.00  0.00     0.116 C 
BRANCH  29  30
HETATM   30  C17 UNL     1      15.258  23.214  26.825  1.00  0.00     0.172 C 
HETATM   31  O3  UNL     1      14.578  23.289  25.804  1.00  0.00    -0.648 OA
HETATM   32  O4  UNL     1      15.851  24.399  27.289  1.00  0.00    -0.648 OA
ENDBRANCH  29  30
ENDBRANCH  28  29
ENDBRANCH  27  28
BRANCH  27  33
HETATM   33  C18 UNL     1      13.165  21.228  29.157  1.00  0.00     0.196 C 
HETATM   34  O5  UNL     1      12.439  22.256  29.160  1.00  0.00    -0.646 OA
HETATM   35  O6  UNL     1      12.621  20.100  28.559  1.00  0.00    -0.646 OA
ENDBRANCH  27  33
ENDBRANCH  25  27
ENDBRANCH   4  23
TORSDOF 9
ENDMDL
