MODEL 3
REMARK VINA RESULT: -10.012604728      2.424      3.297
REMARK  9 active torsions:
REMARK  status: ('A' for Active; 'I' for Inactive)
REMARK    1  A    between atoms: C6_9  and  C7_10 
REMARK    2  A    between atoms: C7_10  and  N2_11 
REMARK    3  A    between atoms: N2_11  and  C9_13 
REMARK    4  A    between atoms: C12_16  and  C13_17 
REMARK       I    between atoms: C13_17  and  N3_19 
REMARK    5  A    between atoms: N3_19  and  C14_21 
REMARK    6  A    between atoms: C14_21  and  C15_22 
REMARK    7  A    between atoms: C14_21  and  C18_27 
REMARK    8  A    between atoms: C15_22  and  C16_23 
REMARK    9  A    between atoms: C16_23  and  C17_24 
ROOT
HETATM    1  C9  UNL     1      14.134  15.440  32.990  1.00  0.00     0.072 A 
HETATM    2  C10 UNL     1      14.336  16.558  33.755  1.00  0.00     0.038 A 
HETATM    3  C11 UNL     1      14.779  17.657  33.133  1.00  0.00     0.027 A 
HETATM    4  C12 UNL     1      14.994  17.576  31.785  1.00  0.00     0.074 A 
HETATM    5  S1  UNL     1      14.570  15.963  31.428  1.00  0.00    -0.067 SA
ENDROOT
BRANCH   1   6
HETATM    6  N2  UNL     1      13.665  14.140  33.419  1.00  0.00    -0.375 N 
HETATM    7  C8  UNL     1      12.263  13.834  33.186  1.00  0.00     0.150 C 
BRANCH   6   8
HETATM    8  C7  UNL     1      14.495  13.166  34.042  1.00  0.00     0.161 C 
BRANCH   8   9
HETATM    9  C6  UNL     1      14.417  13.310  35.539  1.00  0.00    -0.039 A 
HETATM   10  C5  UNL     1      13.329  12.813  36.238  1.00  0.00     0.028 A 
HETATM   11  C4  UNL     1      13.217  12.923  37.606  1.00  0.00     0.059 A 
HETATM   12  C3  UNL     1      12.153  12.441  38.329  1.00  0.00     0.259 A 
HETATM   13  C21 UNL     1      14.222  13.548  38.316  1.00  0.00     0.049 A 
HETATM   14  N1  UNL     1      12.060  12.556  39.664  1.00  0.00    -0.313 N 
HETATM   15  O1  UNL     1      11.222  11.866  37.711  1.00  0.00    -0.267 OA
HETATM   16  C2  UNL     1      13.058  13.175  40.345  1.00  0.00     0.080 A 
ATOM     17  H1  UNL     1      11.250  12.184  40.160  1.00  0.00     0.170 HD
HETATM   18  C1  UNL     1      12.994  13.323  41.831  1.00  0.00     0.089 C 
HETATM   19  N4  UNL     1      14.094  13.644  39.655  1.00  0.00    -0.345 N 
ATOM     20  H4  UNL     1      14.841  14.107  40.174  1.00  0.00     0.167 HD
HETATM   21  C20 UNL     1      15.309  14.046  37.628  1.00  0.00     0.031 A 
HETATM   22  C19 UNL     1      15.425  13.937  36.244  1.00  0.00     0.011 A 
ENDBRANCH   8   9
ENDBRANCH   6   8
ENDBRANCH   1   6
BRANCH   4  23
HETATM   23  C13 UNL     1      15.480  18.644  30.877  1.00  0.00     0.259 C 
HETATM   24  O2  UNL     1      16.331  18.427  30.009  1.00  0.00    -0.267 OA
HETATM   25  N3  UNL     1      14.941  19.925  31.027  1.00  0.00    -0.342 N 
ATOM     26  H3  UNL     1      14.239  20.067  31.753  1.00  0.00     0.163 HD
BRANCH  25  27
HETATM   27  C14 UNL     1      15.322  21.070  30.209  1.00  0.00     0.186 C 
BRANCH  27  28
HETATM   28  C15 UNL     1      14.436  21.232  29.024  1.00  0.00     0.046 C 
BRANCH  28  29
HETATM   29  C16 UNL     1      15.170  21.486  27.743  1.00  0.00     0.116 C 
BRANCH  29  30
HETATM   30  C17 UNL     1      15.079  22.864  27.260  1.00  0.00     0.172 C 
HETATM   31  O3  UNL     1      15.364  23.841  27.949  1.00  0.00    -0.648 OA
HETATM   32  O4  UNL     1      14.645  23.111  25.948  1.00  0.00    -0.648 OA
ENDBRANCH  29  30
ENDBRANCH  28  29
ENDBRANCH  27  28
BRANCH  27  33
HETATM   33  C18 UNL     1      15.418  22.247  31.081  1.00  0.00     0.196 C 
HETATM   34  O5  UNL     1      14.373  22.838  31.458  1.00  0.00    -0.646 OA
HETATM   35  O6  UNL     1      16.617  22.776  31.541  1.00  0.00    -0.646 OA
ENDBRANCH  27  33
ENDBRANCH  25  27
ENDBRANCH   4  23
TORSDOF 9
ENDMDL
