MODEL 14
REMARK VINA RESULT: -5.285024915      2.124      3.090
REMARK  5 active torsions:
REMARK  status: ('A' for Active; 'I' for Inactive)
REMARK    1  A    between atoms: C4_5  and  C5_6 
REMARK    2  A    between atoms: C6_10  and  C7_11 
REMARK    3  A    between atoms: C7_11  and  O1_12 
REMARK    4  A    between atoms: C8_14  and  O2_15 
REMARK    5  A    between atoms: C9_17  and  O3_18 
ROOT
HETATM    1  C5  UNL     1     106.253  36.003  81.897  1.00  0.00     0.250 C 
HETATM    2  N2  UNL     1     104.989  36.444  81.279  1.00  0.00    -0.056 N 
ATOM      3  H21 UNL     1     104.800  36.088  80.343  1.00  0.00     0.278 HD
ATOM      4  H22 UNL     1     104.944  37.424  80.999  1.00  0.00     0.278 HD
HETATM    5  C6  UNL     1     104.063  36.032  82.320  1.00  0.00     0.241 C 
HETATM    6  C8  UNL     1     104.679  36.673  83.536  1.00  0.00     0.182 C 
HETATM    7  C9  UNL     1     106.173  36.406  83.310  1.00  0.00     0.184 C 
ENDROOT
BRANCH   1   8
HETATM    8  C4  UNL     1     107.418  36.408  81.143  1.00  0.00    -0.025 A 
HETATM    9  C3  UNL     1     108.462  37.161  81.634  1.00  0.00     0.011 A 
HETATM   10  C2  UNL     1     109.529  37.495  80.825  1.00  0.00     0.027 A 
HETATM   11  C1  UNL     1     109.601  37.095  79.504  1.00  0.00     0.046 A 
HETATM   12  N1  UNL     1     110.679  37.422  78.656  1.00  0.00    -0.102 NA
HETATM   13  C11 UNL     1     108.564  36.347  79.010  1.00  0.00     0.027 A 
HETATM   14  C10 UNL     1     107.489  36.003  79.803  1.00  0.00     0.011 A 
ENDBRANCH   1   8
BRANCH   7  15
HETATM   15  O3  UNL     1     106.516  35.373  84.195  1.00  0.00    -0.390 OA
ATOM     16  H3  UNL     1     107.326  34.936  83.959  1.00  0.00     0.210 HD
ENDBRANCH   7  15
BRANCH   5  17
HETATM   17  C7  UNL     1     102.666  36.543  82.054  1.00  0.00     0.199 C 
BRANCH  17  18
HETATM   18  O1  UNL     1     102.595  37.345  80.940  1.00  0.00    -0.399 OA
ATOM     19  H1  UNL     1     103.375  37.873  80.814  1.00  0.00     0.209 HD
ENDBRANCH  17  18
ENDBRANCH   5  17
BRANCH   6  20
HETATM   20  O2  UNL     1     104.238  36.143  84.721  1.00  0.00    -0.391 OA
ATOM     21  H2  UNL     1     103.387  35.724  84.659  1.00  0.00     0.210 HD
ENDBRANCH   6  20
TORSDOF 5
ENDMDL
