MODEL 7
REMARK VINA RESULT: -6.342412104      3.158      5.823
REMARK  5 active torsions:
REMARK  status: ('A' for Active; 'I' for Inactive)
REMARK    1  A    between atoms: C4_5  and  C5_6 
REMARK    2  A    between atoms: C6_10  and  C7_11 
REMARK    3  A    between atoms: C7_11  and  O1_12 
REMARK    4  A    between atoms: C8_14  and  O2_15 
REMARK    5  A    between atoms: C9_17  and  O3_18 
ROOT
HETATM    1  C5  UNL     1     107.260  35.781  80.783  1.00  0.00     0.250 C 
HETATM    2  N2  UNL     1     107.481  36.998  79.979  1.00  0.00    -0.056 N 
ATOM      3  H21 UNL     1     107.629  37.860  80.502  1.00  0.00     0.278 HD
ATOM      4  H22 UNL     1     106.670  37.355  79.472  1.00  0.00     0.278 HD
HETATM    5  C6  UNL     1     108.595  36.543  79.165  1.00  0.00     0.241 C 
HETATM    6  C8  UNL     1     108.052  35.251  78.613  1.00  0.00     0.182 C 
HETATM    7  C9  UNL     1     107.350  34.654  79.841  1.00  0.00     0.184 C 
ENDROOT
BRANCH   1   8
HETATM    8  C4  UNL     1     106.087  35.869  81.623  1.00  0.00    -0.025 A 
HETATM    9  C3  UNL     1     104.922  36.528  81.298  1.00  0.00     0.011 A 
HETATM   10  C2  UNL     1     103.858  36.552  82.176  1.00  0.00     0.027 A 
HETATM   11  C1  UNL     1     103.910  35.924  83.407  1.00  0.00     0.046 A 
HETATM   12  N1  UNL     1     102.838  35.931  84.323  1.00  0.00    -0.102 NA
HETATM   13  C11 UNL     1     105.067  35.267  83.736  1.00  0.00     0.027 A 
HETATM   14  C10 UNL     1     106.141  35.232  82.871  1.00  0.00     0.011 A 
ENDBRANCH   1   8
BRANCH   7  15
HETATM   15  O3  UNL     1     108.184  33.624  80.297  1.00  0.00    -0.390 OA
ATOM     16  H3  UNL     1     109.103  33.864  80.297  1.00  0.00     0.210 HD
ENDBRANCH   7  15
BRANCH   5  17
HETATM   17  C7  UNL     1     108.926  37.533  78.073  1.00  0.00     0.199 C 
BRANCH  17  18
HETATM   18  O1  UNL     1     107.812  37.982  77.404  1.00  0.00    -0.399 OA
ATOM     19  H1  UNL     1     107.345  38.660  77.878  1.00  0.00     0.209 HD
ENDBRANCH  17  18
ENDBRANCH   5  17
BRANCH   6  20
HETATM   20  O2  UNL     1     109.018  34.414  78.118  1.00  0.00    -0.391 OA
ATOM     21  H2  UNL     1     108.670  33.636  77.697  1.00  0.00     0.210 HD
ENDBRANCH   6  20
TORSDOF 5
ENDMDL
