MODEL 8
REMARK VINA RESULT: -6.286751731      2.783      5.684
REMARK  5 active torsions:
REMARK  status: ('A' for Active; 'I' for Inactive)
REMARK    1  A    between atoms: C4_5  and  C5_6 
REMARK    2  A    between atoms: C6_10  and  C7_11 
REMARK    3  A    between atoms: C7_11  and  O1_12 
REMARK    4  A    between atoms: C8_14  and  O2_15 
REMARK    5  A    between atoms: C9_17  and  O3_18 
ROOT
HETATM    1  C5  UNL     1     106.445  35.616  80.032  1.00  0.00     0.250 C 
HETATM    2  N2  UNL     1     107.036  34.269  79.924  1.00  0.00    -0.056 N 
ATOM      3  H21 UNL     1     106.381  33.503  79.768  1.00  0.00     0.278 HD
ATOM      4  H22 UNL     1     107.412  33.873  80.786  1.00  0.00     0.278 HD
HETATM    5  C6  UNL     1     107.996  34.519  78.862  1.00  0.00     0.241 C 
HETATM    6  C8  UNL     1     108.726  35.722  79.399  1.00  0.00     0.182 C 
HETATM    7  C9  UNL     1     107.574  36.558  79.976  1.00  0.00     0.184 C 
ENDROOT
BRANCH   1   8
HETATM    8  C4  UNL     1     105.519  35.736  81.136  1.00  0.00    -0.025 A 
HETATM    9  C3  UNL     1     104.667  36.796  81.349  1.00  0.00     0.011 A 
HETATM   10  C2  UNL     1     103.821  36.811  82.439  1.00  0.00     0.027 A 
HETATM   11  C1  UNL     1     103.789  35.777  83.357  1.00  0.00     0.046 A 
HETATM   12  N1  UNL     1     102.936  35.766  84.479  1.00  0.00    -0.102 NA
HETATM   13  C11 UNL     1     104.636  34.720  83.150  1.00  0.00     0.027 A 
HETATM   14  C10 UNL     1     105.488  34.686  82.066  1.00  0.00     0.011 A 
ENDBRANCH   1   8
BRANCH   7  15
HETATM   15  O3  UNL     1     107.368  37.606  79.068  1.00  0.00    -0.390 OA
ATOM     16  H3  UNL     1     107.409  38.463  79.475  1.00  0.00     0.210 HD
ENDBRANCH   7  15
BRANCH   5  17
HETATM   17  C7  UNL     1     108.917  33.339  78.659  1.00  0.00     0.199 C 
BRANCH  17  18
HETATM   18  O1  UNL     1     108.427  32.427  77.754  1.00  0.00    -0.399 OA
ATOM     19  H1  UNL     1     109.099  32.079  77.180  1.00  0.00     0.209 HD
ENDBRANCH  17  18
ENDBRANCH   5  17
BRANCH   6  20
HETATM   20  O2  UNL     1     109.429  36.411  78.444  1.00  0.00    -0.391 OA
ATOM     21  H2  UNL     1     109.022  36.395  77.585  1.00  0.00     0.210 HD
ENDBRANCH   6  20
TORSDOF 5
ENDMDL
