MODEL 5
REMARK VINA RESULT: -6.451486034      3.106      5.837
REMARK  5 active torsions:
REMARK  status: ('A' for Active; 'I' for Inactive)
REMARK    1  A    between atoms: C4_5  and  C5_6 
REMARK    2  A    between atoms: C6_10  and  C7_11 
REMARK    3  A    between atoms: C7_11  and  O1_12 
REMARK    4  A    between atoms: C8_14  and  O2_15 
REMARK    5  A    between atoms: C9_17  and  O3_18 
ROOT
HETATM    1  C5  UNL     1     107.316  35.327  81.046  1.00  0.00     0.250 C 
HETATM    2  N2  UNL     1     107.704  36.601  80.413  1.00  0.00    -0.056 N 
ATOM      3  H21 UNL     1     108.024  37.336  81.044  1.00  0.00     0.278 HD
ATOM      4  H22 UNL     1     106.944  37.160  80.024  1.00  0.00     0.278 HD
HETATM    5  C6  UNL     1     108.684  36.103  79.463  1.00  0.00     0.241 C 
HETATM    6  C8  UNL     1     107.900  35.018  78.771  1.00  0.00     0.182 C 
HETATM    7  C9  UNL     1     107.165  34.360  79.946  1.00  0.00     0.184 C 
ENDROOT
BRANCH   1   8
HETATM    8  C4  UNL     1     106.217  35.474  81.973  1.00  0.00    -0.025 A 
HETATM    9  C3  UNL     1     106.339  35.602  83.339  1.00  0.00     0.011 A 
HETATM   10  C2  UNL     1     105.220  35.735  84.136  1.00  0.00     0.027 A 
HETATM   11  C1  UNL     1     103.942  35.747  83.610  1.00  0.00     0.046 A 
HETATM   12  N1  UNL     1     102.782  35.881  84.400  1.00  0.00    -0.102 NA
HETATM   13  C11 UNL     1     103.815  35.618  82.251  1.00  0.00     0.027 A 
HETATM   14  C10 UNL     1     104.921  35.485  81.438  1.00  0.00     0.011 A 
ENDBRANCH   1   8
BRANCH   7  15
HETATM   15  O3  UNL     1     107.831  33.150  80.186  1.00  0.00    -0.390 OA
ATOM     16  H3  UNL     1     107.912  32.611  79.409  1.00  0.00     0.210 HD
ENDBRANCH   7  15
BRANCH   5  17
HETATM   17  C7  UNL     1     109.128  37.183  78.505  1.00  0.00     0.199 C 
BRANCH  17  18
HETATM   18  O1  UNL     1     108.084  37.739  77.805  1.00  0.00    -0.399 OA
ATOM     19  H1  UNL     1     108.001  38.675  77.946  1.00  0.00     0.209 HD
ENDBRANCH  17  18
ENDBRANCH   5  17
BRANCH   6  20
HETATM   20  O2  UNL     1     108.683  34.122  78.090  1.00  0.00    -0.391 OA
ATOM     21  H2  UNL     1     108.194  33.408  77.699  1.00  0.00     0.210 HD
ENDBRANCH   6  20
TORSDOF 5
ENDMDL
