MODEL 16
REMARK VINA RESULT: -5.166220266      1.910      2.523
REMARK  5 active torsions:
REMARK  status: ('A' for Active; 'I' for Inactive)
REMARK    1  A    between atoms: C4_5  and  C5_6 
REMARK    2  A    between atoms: C6_10  and  C7_11 
REMARK    3  A    between atoms: C7_11  and  O1_12 
REMARK    4  A    between atoms: C8_14  and  O2_15 
REMARK    5  A    between atoms: C9_17  and  O3_18 
ROOT
HETATM    1  C5  UNL     1     105.840  35.152  82.084  1.00  0.00     0.250 C 
HETATM    2  N2  UNL     1     104.475  35.590  81.741  1.00  0.00    -0.056 N 
ATOM      3  H21 UNL     1     103.990  35.038  81.035  1.00  0.00     0.278 HD
ATOM      4  H22 UNL     1     104.400  36.464  81.220  1.00  0.00     0.278 HD
HETATM    5  C6  UNL     1     103.887  35.587  83.071  1.00  0.00     0.241 C 
HETATM    6  C8  UNL     1     104.878  36.425  83.835  1.00  0.00     0.182 C 
HETATM    7  C9  UNL     1     106.216  35.908  83.290  1.00  0.00     0.184 C 
ENDROOT
BRANCH   1   8
HETATM    8  C4  UNL     1     106.741  35.190  80.954  1.00  0.00    -0.025 A 
HETATM    9  C3  UNL     1     107.207  34.089  80.270  1.00  0.00     0.011 A 
HETATM   10  C2  UNL     1     108.068  34.237  79.201  1.00  0.00     0.027 A 
HETATM   11  C1  UNL     1     108.498  35.479  78.773  1.00  0.00     0.046 A 
HETATM   12  N1  UNL     1     109.377  35.659  77.686  1.00  0.00    -0.102 NA
HETATM   13  C11 UNL     1     108.039  36.578  79.451  1.00  0.00     0.027 A 
HETATM   14  C10 UNL     1     107.177  36.450  80.521  1.00  0.00     0.011 A 
ENDBRANCH   1   8
BRANCH   7  15
HETATM   15  O3  UNL     1     106.754  35.097  84.299  1.00  0.00    -0.390 OA
ATOM     16  H3  UNL     1     106.675  35.480  85.164  1.00  0.00     0.210 HD
ENDBRANCH   7  15
BRANCH   5  17
HETATM   17  C7  UNL     1     102.506  36.200  83.068  1.00  0.00     0.199 C 
BRANCH  17  18
HETATM   18  O1  UNL     1     101.937  36.239  84.319  1.00  0.00    -0.399 OA
ATOM     19  H1  UNL     1     101.044  35.914  84.328  1.00  0.00     0.209 HD
ENDBRANCH  17  18
ENDBRANCH   5  17
BRANCH   6  20
HETATM   20  O2  UNL     1     104.789  36.279  85.195  1.00  0.00    -0.391 OA
ATOM     21  H2  UNL     1     105.632  36.190  85.626  1.00  0.00     0.210 HD
ENDBRANCH   6  20
TORSDOF 5
ENDMDL
