MODEL 1
REMARK VINA RESULT: -11.506748949      0.000      0.000
REMARK  15 active torsions:
REMARK  status: ('A' for Active; 'I' for Inactive)
REMARK    1  A    between atoms: C1_2  and  C2_4 
REMARK    2  A    between atoms: N2_8  and  C6_9 
REMARK    3  A    between atoms: C7_11  and  C8_12 
REMARK    4  A    between atoms: C8_12  and  O3_13 
REMARK    5  A    between atoms: O3_13  and  P1_14 
REMARK    6  A    between atoms: P1_14  and  O6_17 
REMARK    7  A    between atoms: O6_17  and  P2_18 
REMARK    8  A    between atoms: P2_18  and  O9_21 
REMARK    9  A    between atoms: O9_21  and  C9_22 
REMARK   10  A    between atoms: C9_22  and  C10_23 
REMARK   11  A    between atoms: C11_25  and  N3_26 
REMARK   12  A    between atoms: C17_39  and  O11_40 
REMARK   13  A    between atoms: C18_42  and  O12_43 
REMARK   14  A    between atoms: C19_45  and  O13_46 
REMARK   15  A    between atoms: C20_48  and  O14_49 
ROOT
HETATM    1  P2  UNL     1      50.985  36.000  -8.094  1.00  0.00     0.417 P 
HETATM    2  O7  UNL     1      50.223  37.095  -8.778  1.00  0.00    -0.624 OA
HETATM    3  O8  UNL     1      52.134  35.425  -9.281  1.00  0.00    -0.624 OA
ENDROOT
BRANCH   1   4
HETATM    4  O6  UNL     1      51.765  36.465  -6.761  1.00  0.00    -0.180 OA
BRANCH   4   5
HETATM    5  P1  UNL     1      50.882  36.699  -5.382  1.00  0.00     0.417 P 
HETATM    6  O4  UNL     1      51.675  37.022  -4.189  1.00  0.00    -0.624 OA
HETATM    7  O5  UNL     1      50.149  35.112  -4.977  1.00  0.00    -0.624 OA
BRANCH   5   8
HETATM    8  O3  UNL     1      49.591  37.665  -5.665  1.00  0.00    -0.287 OA
BRANCH   8   9
HETATM    9  C8  UNL     1      49.934  38.994  -5.998  1.00  0.00     0.216 C 
BRANCH   9  10
HETATM   10  C7  UNL     1      48.586  39.714  -5.689  1.00  0.00     0.180 C 
HETATM   11  O2  UNL     1      48.044  39.172  -4.550  1.00  0.00    -0.353 OA
HETATM   12  C6  UNL     1      47.627  40.155  -3.683  1.00  0.00     0.259 C 
HETATM   13  C20 UNL     1      47.479  41.392  -4.575  1.00  0.00     0.198 C 
HETATM   14  C19 UNL     1      48.706  41.167  -5.509  1.00  0.00     0.182 C 
BRANCH  12  15
HETATM   15  N2  UNL     1      48.795  40.414  -2.814  1.00  0.00    -0.336 N 
HETATM   16  C5  UNL     1      49.826  39.569  -2.754  1.00  0.00     0.093 A 
HETATM   17  C4  UNL     1      50.851  39.790  -1.835  1.00  0.00     0.018 A 
HETATM   18  C3  UNL     1      50.793  40.869  -1.000  1.00  0.00     0.019 A 
HETATM   19  C2  UNL     1      49.718  41.713  -1.088  1.00  0.00     0.044 A 
HETATM   20  C21 UNL     1      48.716  41.477  -2.004  1.00  0.00     0.110 A 
BRANCH  19  21
HETATM   21  C1  UNL     1      49.587  42.846  -0.190  1.00  0.00     0.266 C 
HETATM   22  N1  UNL     1      49.089  42.659   1.119  1.00  0.00    -0.057 NA
HETATM   23  O1  UNL     1      49.902  44.038  -0.526  1.00  0.00    -0.271 OA
ENDBRANCH  19  21
ENDBRANCH  12  15
BRANCH  13  24
HETATM   24  O14 UNL     1      46.362  41.249  -5.396  1.00  0.00    -0.388 OA
ATOM     25  H14 UNL     1      46.640  41.068  -6.287  1.00  0.00     0.210 HD
ENDBRANCH  13  24
BRANCH  14  26
HETATM   26  O13 UNL     1      48.568  41.925  -6.677  1.00  0.00    -0.390 OA
ATOM     27  H13 UNL     1      47.754  42.409  -6.751  1.00  0.00     0.210 HD
ENDBRANCH  14  26
ENDBRANCH   9  10
ENDBRANCH   8   9
ENDBRANCH   5   8
ENDBRANCH   4   5
ENDBRANCH   1   4
BRANCH   1  28
HETATM   28  O9  UNL     1      49.889  34.666  -7.982  1.00  0.00    -0.287 OA
BRANCH  28  29
HETATM   29  C9  UNL     1      48.631  35.276  -8.302  1.00  0.00     0.216 C 
BRANCH  29  30
HETATM   30  C10 UNL     1      47.937  34.443  -9.293  1.00  0.00     0.180 C 
HETATM   31  O10 UNL     1      46.994  35.248  -9.992  1.00  0.00    -0.353 OA
HETATM   32  C11 UNL     1      46.517  34.289 -10.910  1.00  0.00     0.262 C 
HETATM   33  C17 UNL     1      47.884  34.021 -11.597  1.00  0.00     0.198 C 
HETATM   34  C18 UNL     1      48.757  33.802 -10.329  1.00  0.00     0.182 C 
BRANCH  32  35
HETATM   35  N3  UNL     1      45.569  34.889 -11.766  1.00  0.00    -0.297 N 
HETATM   36  C12 UNL     1      45.775  35.822 -12.757  1.00  0.00     0.188 A 
HETATM   37  N4  UNL     1      44.623  36.136 -13.352  1.00  0.00    -0.346 N 
HETATM   38  C13 UNL     1      43.656  35.386 -12.746  1.00  0.00     0.119 A 
ATOM     39  H4  UNL     1      44.492  36.804 -14.111  1.00  0.00     0.167 HD
HETATM   40  C14 UNL     1      42.309  35.321 -12.954  1.00  0.00     0.148 A 
HETATM   41  C16 UNL     1      44.266  34.623 -11.762  1.00  0.00     0.142 A 
HETATM   42  N5  UNL     1      41.687  36.077 -13.988  1.00  0.00    -0.080 NA
HETATM   43  N6  UNL     1      41.553  34.516 -12.189  1.00  0.00    -0.339 N 
HETATM   44  C15 UNL     1      42.114  33.778 -11.227  1.00  0.00     0.183 A 
ATOM     45  H6  UNL     1      40.546  34.467 -12.344  1.00  0.00     0.167 HD
HETATM   46  N7  UNL     1      43.466  33.840 -11.027  1.00  0.00    -0.336 N 
ATOM     47  H7  UNL     1      43.880  33.269 -10.291  1.00  0.00     0.168 HD
ENDBRANCH  32  35
BRANCH  33  48
HETATM   48  O11 UNL     1      47.876  32.983 -12.463  1.00  0.00    -0.388 OA
ATOM     49  H11 UNL     1      48.682  32.878 -12.955  1.00  0.00     0.210 HD
ENDBRANCH  33  48
BRANCH  34  50
HETATM   50  O12 UNL     1      48.758  32.387 -10.126  1.00  0.00    -0.390 OA
ATOM     51  H12 UNL     1      49.371  31.983 -10.729  1.00  0.00     0.210 HD
ENDBRANCH  34  50
ENDBRANCH  29  30
ENDBRANCH  28  29
ENDBRANCH   1  28
TORSDOF 15
ENDMDL
