MODEL 2
REMARK VINA RESULT: -11.504497495      1.114      1.688
REMARK  15 active torsions:
REMARK  status: ('A' for Active; 'I' for Inactive)
REMARK    1  A    between atoms: C1_2  and  C2_4 
REMARK    2  A    between atoms: N2_8  and  C6_9 
REMARK    3  A    between atoms: C7_11  and  C8_12 
REMARK    4  A    between atoms: C8_12  and  O3_13 
REMARK    5  A    between atoms: O3_13  and  P1_14 
REMARK    6  A    between atoms: P1_14  and  O6_17 
REMARK    7  A    between atoms: O6_17  and  P2_18 
REMARK    8  A    between atoms: P2_18  and  O9_21 
REMARK    9  A    between atoms: O9_21  and  C9_22 
REMARK   10  A    between atoms: C9_22  and  C10_23 
REMARK   11  A    between atoms: C11_25  and  N3_26 
REMARK   12  A    between atoms: C17_39  and  O11_40 
REMARK   13  A    between atoms: C18_42  and  O12_43 
REMARK   14  A    between atoms: C19_45  and  O13_46 
REMARK   15  A    between atoms: C20_48  and  O14_49 
ROOT
HETATM    1  P2  UNL     1      50.025  35.538  -6.845  1.00  0.00     0.417 P 
HETATM    2  O7  UNL     1      51.471  35.162  -6.721  1.00  0.00    -0.624 OA
HETATM    3  O8  UNL     1      49.211  34.673  -5.560  1.00  0.00    -0.624 OA
ENDROOT
BRANCH   1   4
HETATM    4  O6  UNL     1      49.736  37.119  -6.707  1.00  0.00    -0.180 OA
BRANCH   4   5
HETATM    5  P1  UNL     1      50.537  38.150  -7.721  1.00  0.00     0.417 P 
HETATM    6  O4  UNL     1      50.855  37.594  -9.043  1.00  0.00    -0.624 OA
HETATM    7  O5  UNL     1      52.151  38.427  -6.988  1.00  0.00    -0.624 OA
BRANCH   5   8
HETATM    8  O3  UNL     1      49.847  39.635  -7.718  1.00  0.00    -0.287 OA
BRANCH   8   9
HETATM    9  C8  UNL     1      50.028  40.347  -6.512  1.00  0.00     0.216 C 
BRANCH   9  10
HETATM   10  C7  UNL     1      48.541  40.592  -6.109  1.00  0.00     0.180 C 
HETATM   11  O2  UNL     1      48.154  39.613  -5.227  1.00  0.00    -0.353 OA
HETATM   12  C6  UNL     1      47.502  40.151  -4.143  1.00  0.00     0.259 C 
HETATM   13  C20 UNL     1      47.047  41.529  -4.637  1.00  0.00     0.198 C 
HETATM   14  C19 UNL     1      48.290  41.903  -5.497  1.00  0.00     0.182 C 
BRANCH  12  15
HETATM   15  N2  UNL     1      48.566  40.405  -3.148  1.00  0.00    -0.336 N 
HETATM   16  C5  UNL     1      49.718  39.732  -3.167  1.00  0.00     0.093 A 
HETATM   17  C4  UNL     1      50.646  39.917  -2.143  1.00  0.00     0.018 A 
HETATM   18  C3  UNL     1      50.368  40.782  -1.124  1.00  0.00     0.019 A 
HETATM   19  C2  UNL     1      49.174  41.454  -1.136  1.00  0.00     0.044 A 
HETATM   20  C21 UNL     1      48.272  41.257  -2.159  1.00  0.00     0.110 A 
BRANCH  19  21
HETATM   21  C1  UNL     1      48.813  42.347  -0.052  1.00  0.00     0.266 C 
HETATM   22  N1  UNL     1      49.725  42.592   0.999  1.00  0.00    -0.057 NA
HETATM   23  O1  UNL     1      47.682  42.941   0.012  1.00  0.00    -0.271 OA
ENDBRANCH  19  21
ENDBRANCH  12  15
BRANCH  13  24
HETATM   24  O14 UNL     1      46.002  41.381  -5.548  1.00  0.00    -0.388 OA
ATOM     25  H14 UNL     1      46.352  41.167  -6.406  1.00  0.00     0.210 HD
ENDBRANCH  13  24
BRANCH  14  26
HETATM   26  O13 UNL     1      47.966  42.927  -6.395  1.00  0.00    -0.390 OA
ATOM     27  H13 UNL     1      47.542  42.641  -7.197  1.00  0.00     0.210 HD
ENDBRANCH  14  26
ENDBRANCH   9  10
ENDBRANCH   8   9
ENDBRANCH   5   8
ENDBRANCH   4   5
ENDBRANCH   1   4
BRANCH   1  28
HETATM   28  O9  UNL     1      49.446  34.716  -8.252  1.00  0.00    -0.287 OA
BRANCH  28  29
HETATM   29  C9  UNL     1      48.083  35.156  -8.324  1.00  0.00     0.216 C 
BRANCH  29  30
HETATM   30  C10 UNL     1      47.413  34.449  -9.423  1.00  0.00     0.180 C 
HETATM   31  O10 UNL     1      46.361  35.267  -9.924  1.00  0.00    -0.353 OA
HETATM   32  C11 UNL     1      45.922  34.446 -10.984  1.00  0.00     0.262 C 
HETATM   33  C17 UNL     1      47.266  34.444 -11.762  1.00  0.00     0.198 C 
HETATM   34  C18 UNL     1      48.227  34.090 -10.591  1.00  0.00     0.182 C 
BRANCH  32  35
HETATM   35  N3  UNL     1      44.875  35.091 -11.676  1.00  0.00    -0.297 N 
HETATM   36  C12 UNL     1      44.933  36.221 -12.460  1.00  0.00     0.188 A 
HETATM   37  N4  UNL     1      43.727  36.512 -12.951  1.00  0.00    -0.346 N 
HETATM   38  C13 UNL     1      42.876  35.551 -12.487  1.00  0.00     0.119 A 
ATOM     39  H4  UNL     1      43.489  37.299 -13.555  1.00  0.00     0.167 HD
HETATM   40  C14 UNL     1      41.535  35.373 -12.671  1.00  0.00     0.148 A 
HETATM   41  C16 UNL     1      43.610  34.682 -11.695  1.00  0.00     0.142 A 
HETATM   42  N5  UNL     1      40.788  36.244 -13.514  1.00  0.00    -0.080 NA
HETATM   43  N6  UNL     1      40.908  34.350 -12.069  1.00  0.00    -0.339 N 
HETATM   44  C15 UNL     1      41.590  33.504 -11.290  1.00  0.00     0.183 A 
ATOM     45  H6  UNL     1      39.906  34.218 -12.205  1.00  0.00     0.167 HD
HETATM   46  N7  UNL     1      42.935  33.681 -11.115  1.00  0.00    -0.336 N 
ATOM     47  H7  UNL     1      43.442  33.026 -10.521  1.00  0.00     0.168 HD
ENDBRANCH  32  35
BRANCH  33  48
HETATM   48  O11 UNL     1      47.303  33.584 -12.803  1.00  0.00    -0.388 OA
ATOM     49  H11 UNL     1      47.012  32.704 -12.594  1.00  0.00     0.210 HD
ENDBRANCH  33  48
BRANCH  34  50
HETATM   50  O12 UNL     1      48.369  32.669 -10.653  1.00  0.00    -0.390 OA
ATOM     51  H12 UNL     1      48.875  32.436 -11.422  1.00  0.00     0.210 HD
ENDBRANCH  34  50
ENDBRANCH  29  30
ENDBRANCH  28  29
ENDBRANCH   1  28
TORSDOF 15
ENDMDL
