MODEL 6
REMARK VINA RESULT: -11.068696344      3.471      6.119
REMARK  15 active torsions:
REMARK  status: ('A' for Active; 'I' for Inactive)
REMARK    1  A    between atoms: C1_2  and  C2_4 
REMARK    2  A    between atoms: N2_8  and  C6_9 
REMARK    3  A    between atoms: C7_11  and  C8_12 
REMARK    4  A    between atoms: C8_12  and  O3_13 
REMARK    5  A    between atoms: O3_13  and  P1_14 
REMARK    6  A    between atoms: P1_14  and  O6_17 
REMARK    7  A    between atoms: O6_17  and  P2_18 
REMARK    8  A    between atoms: P2_18  and  O9_21 
REMARK    9  A    between atoms: O9_21  and  C9_22 
REMARK   10  A    between atoms: C9_22  and  C10_23 
REMARK   11  A    between atoms: C11_25  and  N3_26 
REMARK   12  A    between atoms: C17_39  and  O11_40 
REMARK   13  A    between atoms: C18_42  and  O12_43 
REMARK   14  A    between atoms: C19_45  and  O13_46 
REMARK   15  A    between atoms: C20_48  and  O14_49 
ROOT
HETATM    1  P2  UNL     1      47.144  34.688 -12.038  1.00  0.00     0.417 P 
HETATM    2  O7  UNL     1      46.927  35.840 -11.104  1.00  0.00    -0.624 OA
HETATM    3  O8  UNL     1      46.998  35.361 -13.646  1.00  0.00    -0.624 OA
ENDROOT
BRANCH   1   4
HETATM    4  O6  UNL     1      48.577  33.964 -11.878  1.00  0.00    -0.180 OA
BRANCH   4   5
HETATM    5  P1  UNL     1      49.071  33.539 -10.358  1.00  0.00     0.417 P 
HETATM    6  O4  UNL     1      49.945  32.360 -10.300  1.00  0.00    -0.624 OA
HETATM    7  O5  UNL     1      47.600  33.010  -9.478  1.00  0.00    -0.624 OA
BRANCH   5   8
HETATM    8  O3  UNL     1      49.581  34.848  -9.516  1.00  0.00    -0.287 OA
BRANCH   8   9
HETATM    9  C8  UNL     1      50.827  34.666  -8.876  1.00  0.00     0.216 C 
BRANCH   9  10
HETATM   10  C7  UNL     1      50.380  34.707  -7.383  1.00  0.00     0.180 C 
HETATM   11  O2  UNL     1      51.368  35.307  -6.641  1.00  0.00    -0.353 OA
HETATM   12  C6  UNL     1      50.845  36.256  -5.793  1.00  0.00     0.259 C 
HETATM   13  C20 UNL     1      49.366  35.870  -5.680  1.00  0.00     0.198 C 
HETATM   14  C19 UNL     1      49.117  35.421  -7.151  1.00  0.00     0.182 C 
BRANCH  12  15
HETATM   15  N2  UNL     1      50.881  37.515  -6.567  1.00  0.00    -0.336 N 
HETATM   16  C5  UNL     1      51.872  37.788  -7.418  1.00  0.00     0.093 A 
HETATM   17  C4  UNL     1      51.930  39.035  -8.038  1.00  0.00     0.018 A 
HETATM   18  C3  UNL     1      50.975  39.972  -7.768  1.00  0.00     0.019 A 
HETATM   19  C2  UNL     1      49.974  39.659  -6.887  1.00  0.00     0.044 A 
HETATM   20  C21 UNL     1      49.935  38.420  -6.286  1.00  0.00     0.110 A 
BRANCH  19  21
HETATM   21  C1  UNL     1      48.963  40.637  -6.531  1.00  0.00     0.266 C 
HETATM   22  N1  UNL     1      47.935  40.296  -5.623  1.00  0.00    -0.057 NA
HETATM   23  O1  UNL     1      48.947  41.823  -7.007  1.00  0.00    -0.271 OA
ENDBRANCH  19  21
ENDBRANCH  12  15
BRANCH  13  24
HETATM   24  O14 UNL     1      49.239  34.711  -4.916  1.00  0.00    -0.388 OA
ATOM     25  H14 UNL     1      49.592  34.859  -4.046  1.00  0.00     0.210 HD
ENDBRANCH  13  24
BRANCH  14  26
HETATM   26  O13 UNL     1      47.964  34.630  -7.225  1.00  0.00    -0.390 OA
ATOM     27  H13 UNL     1      47.429  34.769  -7.998  1.00  0.00     0.210 HD
ENDBRANCH  14  26
ENDBRANCH   9  10
ENDBRANCH   8   9
ENDBRANCH   5   8
ENDBRANCH   4   5
ENDBRANCH   1   4
BRANCH   1  28
HETATM   28  O9  UNL     1      45.717  33.718 -11.926  1.00  0.00    -0.287 OA
BRANCH  28  29
HETATM   29  C9  UNL     1      44.715  34.686 -11.585  1.00  0.00     0.216 C 
BRANCH  29  30
HETATM   30  C10 UNL     1      43.815  34.863 -12.732  1.00  0.00     0.180 C 
HETATM   31  O10 UNL     1      42.578  34.218 -12.451  1.00  0.00    -0.353 OA
HETATM   32  C11 UNL     1      41.869  34.570 -13.619  1.00  0.00     0.262 C 
HETATM   33  C17 UNL     1      41.946  36.106 -13.404  1.00  0.00     0.198 C 
HETATM   34  C18 UNL     1      43.468  36.238 -13.113  1.00  0.00     0.182 C 
BRANCH  32  35
HETATM   35  N3  UNL     1      40.556  34.059 -13.545  1.00  0.00    -0.297 N 
HETATM   36  C12 UNL     1      39.985  33.300 -12.549  1.00  0.00     0.188 A 
HETATM   37  N4  UNL     1      38.714  33.022 -12.843  1.00  0.00    -0.346 N 
HETATM   38  C13 UNL     1      38.452  33.619 -14.043  1.00  0.00     0.119 A 
ATOM     39  H4  UNL     1      38.065  32.471 -12.281  1.00  0.00     0.167 HD
HETATM   40  C14 UNL     1      37.321  33.645 -14.806  1.00  0.00     0.148 A 
HETATM   41  C16 UNL     1      39.612  34.253 -14.461  1.00  0.00     0.142 A 
HETATM   42  N5  UNL     1      36.120  33.025 -14.360  1.00  0.00    -0.080 NA
HETATM   43  N6  UNL     1      37.327  34.284 -15.987  1.00  0.00    -0.339 N 
HETATM   44  C15 UNL     1      38.434  34.895 -16.419  1.00  0.00     0.183 A 
ATOM     45  H6  UNL     1      36.481  34.303 -16.557  1.00  0.00     0.167 HD
HETATM   46  N7  UNL     1      39.563  34.872 -15.648  1.00  0.00    -0.336 N 
ATOM     47  H7  UNL     1      40.400  35.345 -15.990  1.00  0.00     0.168 HD
ENDBRANCH  32  35
BRANCH  33  48
HETATM   48  O11 UNL     1      41.506  36.836 -14.453  1.00  0.00    -0.388 OA
ATOM     49  H11 UNL     1      40.565  36.967 -14.471  1.00  0.00     0.210 HD
ENDBRANCH  33  48
BRANCH  34  50
HETATM   50  O12 UNL     1      44.056  36.543 -14.379  1.00  0.00    -0.390 OA
ATOM     51  H12 UNL     1      43.831  37.432 -14.626  1.00  0.00     0.210 HD
ENDBRANCH  34  50
ENDBRANCH  29  30
ENDBRANCH  28  29
ENDBRANCH   1  28
TORSDOF 15
ENDMDL
