MODEL 4
REMARK VINA RESULT: -11.133803348      2.748      4.845
REMARK  15 active torsions:
REMARK  status: ('A' for Active; 'I' for Inactive)
REMARK    1  A    between atoms: C1_2  and  C2_4 
REMARK    2  A    between atoms: N2_8  and  C6_9 
REMARK    3  A    between atoms: C7_11  and  C8_12 
REMARK    4  A    between atoms: C8_12  and  O3_13 
REMARK    5  A    between atoms: O3_13  and  P1_14 
REMARK    6  A    between atoms: P1_14  and  O6_17 
REMARK    7  A    between atoms: O6_17  and  P2_18 
REMARK    8  A    between atoms: P2_18  and  O9_21 
REMARK    9  A    between atoms: O9_21  and  C9_22 
REMARK   10  A    between atoms: C9_22  and  C10_23 
REMARK   11  A    between atoms: C11_25  and  N3_26 
REMARK   12  A    between atoms: C17_39  and  O11_40 
REMARK   13  A    between atoms: C18_42  and  O12_43 
REMARK   14  A    between atoms: C19_45  and  O13_46 
REMARK   15  A    between atoms: C20_48  and  O14_49 
ROOT
HETATM    1  P2  UNL     1      48.564  34.220  -9.897  1.00  0.00     0.417 P 
HETATM    2  O7  UNL     1      47.754  33.553  -8.826  1.00  0.00    -0.624 OA
HETATM    3  O8  UNL     1      48.570  35.919  -9.482  1.00  0.00    -0.624 OA
ENDROOT
BRANCH   1   4
HETATM    4  O6  UNL     1      50.079  33.682 -10.017  1.00  0.00    -0.180 OA
BRANCH   4   5
HETATM    5  P1  UNL     1      51.133  34.038  -8.793  1.00  0.00     0.417 P 
HETATM    6  O4  UNL     1      52.028  32.939  -8.409  1.00  0.00    -0.624 OA
HETATM    7  O5  UNL     1      50.135  34.294  -7.325  1.00  0.00    -0.624 OA
BRANCH   5   8
HETATM    8  O3  UNL     1      51.850  35.491  -9.036  1.00  0.00    -0.287 OA
BRANCH   8   9
HETATM    9  C8  UNL     1      51.963  36.274  -7.867  1.00  0.00     0.216 C 
BRANCH   9  10
HETATM   10  C7  UNL     1      52.144  37.689  -8.497  1.00  0.00     0.180 C 
HETATM   11  O2  UNL     1      50.953  38.079  -9.060  1.00  0.00    -0.353 OA
HETATM   12  C6  UNL     1      50.632  39.367  -8.702  1.00  0.00     0.259 C 
HETATM   13  C20 UNL     1      51.971  39.968  -8.261  1.00  0.00     0.198 C 
HETATM   14  C19 UNL     1      52.575  38.723  -7.546  1.00  0.00     0.182 C 
BRANCH  12  15
HETATM   15  N2  UNL     1      49.822  39.227  -7.473  1.00  0.00    -0.336 N 
HETATM   16  C5  UNL     1      49.282  38.060  -7.118  1.00  0.00     0.093 A 
HETATM   17  C4  UNL     1      48.429  37.997  -6.017  1.00  0.00     0.018 A 
HETATM   18  C3  UNL     1      48.148  39.131  -5.310  1.00  0.00     0.019 A 
HETATM   19  C2  UNL     1      48.718  40.312  -5.705  1.00  0.00     0.044 A 
HETATM   20  C21 UNL     1      49.560  40.351  -6.795  1.00  0.00     0.110 A 
BRANCH  19  21
HETATM   21  C1  UNL     1      48.413  41.552  -5.016  1.00  0.00     0.266 C 
HETATM   22  N1  UNL     1      48.708  41.689  -3.641  1.00  0.00    -0.057 NA
HETATM   23  O1  UNL     1      47.874  42.554  -5.597  1.00  0.00    -0.271 OA
ENDBRANCH  19  21
ENDBRANCH  12  15
BRANCH  13  24
HETATM   24  O14 UNL     1      52.782  40.181  -9.375  1.00  0.00    -0.388 OA
ATOM     25  H14 UNL     1      52.456  39.675 -10.110  1.00  0.00     0.210 HD
ENDBRANCH  13  24
BRANCH  14  26
HETATM   26  O13 UNL     1      53.961  38.867  -7.414  1.00  0.00    -0.390 OA
ATOM     27  H13 UNL     1      54.430  39.031  -8.224  1.00  0.00     0.210 HD
ENDBRANCH  14  26
ENDBRANCH   9  10
ENDBRANCH   8   9
ENDBRANCH   5   8
ENDBRANCH   4   5
ENDBRANCH   1   4
BRANCH   1  28
HETATM   28  O9  UNL     1      47.571  34.202 -11.313  1.00  0.00    -0.287 OA
BRANCH  28  29
HETATM   29  C9  UNL     1      46.466  35.027 -10.923  1.00  0.00     0.216 C 
BRANCH  29  30
HETATM   30  C10 UNL     1      45.498  35.080 -12.027  1.00  0.00     0.180 C 
HETATM   31  O10 UNL     1      44.310  34.403 -11.632  1.00  0.00    -0.353 OA
HETATM   32  C11 UNL     1      43.524  34.637 -12.780  1.00  0.00     0.262 C 
HETATM   33  C17 UNL     1      43.538  36.187 -12.677  1.00  0.00     0.198 C 
HETATM   34  C18 UNL     1      45.065  36.407 -12.483  1.00  0.00     0.182 C 
BRANCH  32  35
HETATM   35  N3  UNL     1      42.243  34.076 -12.595  1.00  0.00    -0.297 N 
HETATM   36  C12 UNL     1      41.672  33.601 -11.437  1.00  0.00     0.188 A 
HETATM   37  N4  UNL     1      40.437  33.156 -11.671  1.00  0.00    -0.346 N 
HETATM   38  C13 UNL     1      40.198  33.355 -13.001  1.00  0.00     0.119 A 
ATOM     39  H4  UNL     1      39.796  32.748 -10.991  1.00  0.00     0.167 HD
HETATM   40  C14 UNL     1      39.106  33.074 -13.770  1.00  0.00     0.148 A 
HETATM   41  C16 UNL     1      41.335  33.923 -13.555  1.00  0.00     0.142 A 
HETATM   42  N5  UNL     1      37.925  32.524 -13.195  1.00  0.00    -0.080 NA
HETATM   43  N6  UNL     1      39.130  33.338 -15.086  1.00  0.00    -0.339 N 
HETATM   44  C15 UNL     1      40.217  33.875 -15.648  1.00  0.00     0.183 A 
ATOM     45  H6  UNL     1      38.314  33.127 -15.661  1.00  0.00     0.167 HD
HETATM   46  N7  UNL     1      41.306  34.162 -14.872  1.00  0.00    -0.336 N 
ATOM     47  H7  UNL     1      42.128  34.575 -15.314  1.00  0.00     0.168 HD
ENDBRANCH  32  35
BRANCH  33  48
HETATM   48  O11 UNL     1      43.008  36.819 -13.748  1.00  0.00    -0.388 OA
ATOM     49  H11 UNL     1      42.375  36.302 -14.233  1.00  0.00     0.210 HD
ENDBRANCH  33  48
BRANCH  34  50
HETATM   50  O12 UNL     1      45.570  36.645 -13.798  1.00  0.00    -0.390 OA
ATOM     51  H12 UNL     1      46.457  36.312 -13.861  1.00  0.00     0.210 HD
ENDBRANCH  34  50
ENDBRANCH  29  30
ENDBRANCH  28  29
ENDBRANCH   1  28
TORSDOF 15
ENDMDL
