MODEL 14
REMARK VINA RESULT: -5.953151373      2.884      6.606
REMARK  5 active torsions:
REMARK  status: ('A' for Active; 'I' for Inactive)
REMARK       I    between atoms: C2_2  and  N1_4 
REMARK    1  A    between atoms: N1_4  and  C3_6 
REMARK    2  A    between atoms: C3_6  and  C4_7 
REMARK    3  A    between atoms: C4_7  and  C5_8 
REMARK    4  A    between atoms: C8_11  and  S1_12 
REMARK    5  A    between atoms: S1_12  and  N2_13 
ROOT
HETATM    1  C5  UNL     1     -18.794   1.429 -17.453  1.00  0.00    -0.057 A 
HETATM    2  C6  UNL     1     -18.589   0.578 -16.386  1.00  0.00     0.009 A 
HETATM    3  C7  UNL     1     -19.618   0.256 -15.505  1.00  0.00     0.026 A 
HETATM    4  C8  UNL     1     -20.876   0.791 -15.688  1.00  0.00     0.079 A 
HETATM    5  C9  UNL     1     -21.098   1.634 -16.738  1.00  0.00     0.026 A 
HETATM    6  C10 UNL     1     -20.065   1.939 -17.598  1.00  0.00     0.009 A 
ENDROOT
BRANCH   1   7
HETATM    7  C4  UNL     1     -17.664   1.757 -18.386  1.00  0.00     0.058 C 
BRANCH   7   8
HETATM    8  C3  UNL     1     -18.005   1.471 -19.808  1.00  0.00     0.127 C 
BRANCH   8   9
HETATM    9  N1  UNL     1     -17.592   0.127 -20.136  1.00  0.00    -0.361 N 
HETATM   10  C2  UNL     1     -16.467  -0.203 -20.918  1.00  0.00     0.213 C 
HETATM   11  C1  UNL     1     -16.098  -1.614 -21.222  1.00  0.00     0.117 C 
HETATM   12  O1  UNL     1     -15.753   0.725 -21.370  1.00  0.00    -0.274 OA
ATOM     13  H1  UNL     1     -18.157  -0.641 -19.775  1.00  0.00     0.162 HD
ENDBRANCH   8   9
ENDBRANCH   7   8
ENDBRANCH   1   7
BRANCH   4  14
HETATM   14  S1  UNL     1     -22.113   0.337 -14.539  1.00  0.00     0.256 S 
HETATM   15  O2  UNL     1     -23.066  -0.665 -15.151  1.00  0.00    -0.201 OA
HETATM   16  O3  UNL     1     -22.916   1.560 -14.227  1.00  0.00    -0.201 OA
BRANCH  14  17
HETATM   17  N2  UNL     1     -21.444  -0.376 -13.129  1.00  0.00    -0.324 N 
ATOM     18  H22 UNL     1     -20.506  -0.165 -12.787  1.00  0.00     0.169 HD
ATOM     19  H21 UNL     1     -22.094  -1.025 -12.686  1.00  0.00     0.169 HD
ENDBRANCH  14  17
ENDBRANCH   4  14
TORSDOF 5
ENDMDL
