MODEL 12
REMARK VINA RESULT: -6.480031272      2.762      3.182
REMARK  5 active torsions:
REMARK  status: ('A' for Active; 'I' for Inactive)
REMARK       I    between atoms: C2_2  and  N1_4 
REMARK    1  A    between atoms: N1_4  and  C3_6 
REMARK    2  A    between atoms: C3_6  and  C4_7 
REMARK    3  A    between atoms: C4_7  and  C5_8 
REMARK    4  A    between atoms: C8_11  and  S1_12 
REMARK    5  A    between atoms: S1_12  and  N2_13 
ROOT
HETATM    1  C5  UNL     1     -18.807   1.502 -17.301  1.00  0.00    -0.057 A 
HETATM    2  C6  UNL     1     -18.181   0.316 -16.975  1.00  0.00     0.009 A 
HETATM    3  C7  UNL     1     -17.433  -0.393 -17.912  1.00  0.00     0.026 A 
HETATM    4  C8  UNL     1     -17.306   0.086 -19.198  1.00  0.00     0.079 A 
HETATM    5  C9  UNL     1     -17.918   1.256 -19.541  1.00  0.00     0.026 A 
HETATM    6  C10 UNL     1     -18.653   1.942 -18.597  1.00  0.00     0.009 A 
ENDROOT
BRANCH   1   7
HETATM    7  C4  UNL     1     -19.606   2.243 -16.269  1.00  0.00     0.058 C 
BRANCH   7   8
HETATM    8  C3  UNL     1     -18.742   3.011 -15.330  1.00  0.00     0.127 C 
BRANCH   8   9
HETATM    9  N1  UNL     1     -18.757   2.370 -14.036  1.00  0.00    -0.361 N 
HETATM   10  C2  UNL     1     -18.052   2.825 -12.903  1.00  0.00     0.213 C 
HETATM   11  C1  UNL     1     -18.108   2.113 -11.595  1.00  0.00     0.117 C 
HETATM   12  O1  UNL     1     -17.358   3.865 -13.002  1.00  0.00    -0.274 OA
ATOM     13  H1  UNL     1     -19.319   1.525 -13.935  1.00  0.00     0.162 HD
ENDBRANCH   8   9
ENDBRANCH   7   8
ENDBRANCH   1   7
BRANCH   4  14
HETATM   14  S1  UNL     1     -16.351  -0.864 -20.314  1.00  0.00     0.256 S 
HETATM   15  O2  UNL     1     -15.597   0.037 -21.268  1.00  0.00    -0.201 OA
HETATM   16  O3  UNL     1     -17.293  -1.677 -21.144  1.00  0.00    -0.201 OA
BRANCH  14  17
HETATM   17  N2  UNL     1     -15.199  -1.838 -19.499  1.00  0.00    -0.324 N 
ATOM     18  H22 UNL     1     -14.203  -1.834 -19.723  1.00  0.00     0.169 HD
ATOM     19  H21 UNL     1     -15.630  -2.411 -18.774  1.00  0.00     0.169 HD
ENDBRANCH  14  17
ENDBRANCH   4  14
TORSDOF 5
ENDMDL
