MODEL 10
REMARK VINA RESULT: -6.578908186      3.046      3.543
REMARK  5 active torsions:
REMARK  status: ('A' for Active; 'I' for Inactive)
REMARK       I    between atoms: C2_2  and  N1_4 
REMARK    1  A    between atoms: N1_4  and  C3_6 
REMARK    2  A    between atoms: C3_6  and  C4_7 
REMARK    3  A    between atoms: C4_7  and  C5_8 
REMARK    4  A    between atoms: C8_11  and  S1_12 
REMARK    5  A    between atoms: S1_12  and  N2_13 
ROOT
HETATM    1  C5  UNL     1     -18.023   1.797 -17.122  1.00  0.00    -0.057 A 
HETATM    2  C6  UNL     1     -18.044   2.291 -18.410  1.00  0.00     0.009 A 
HETATM    3  C7  UNL     1     -17.663   1.507 -19.497  1.00  0.00     0.026 A 
HETATM    4  C8  UNL     1     -17.252   0.207 -19.298  1.00  0.00     0.079 A 
HETATM    5  C9  UNL     1     -17.224  -0.301 -18.032  1.00  0.00     0.026 A 
HETATM    6  C10 UNL     1     -17.606   0.493 -16.971  1.00  0.00     0.009 A 
ENDROOT
BRANCH   1   7
HETATM    7  C4  UNL     1     -18.439   2.667 -15.972  1.00  0.00     0.058 C 
BRANCH   7   8
HETATM    8  C3  UNL     1     -17.792   2.258 -14.693  1.00  0.00     0.127 C 
BRANCH   8   9
HETATM    9  N1  UNL     1     -18.611   2.692 -13.586  1.00  0.00    -0.361 N 
HETATM   10  C2  UNL     1     -18.241   3.676 -12.647  1.00  0.00     0.213 C 
HETATM   11  C1  UNL     1     -19.134   4.076 -11.523  1.00  0.00     0.117 C 
HETATM   12  O1  UNL     1     -17.123   4.233 -12.765  1.00  0.00    -0.274 OA
ATOM     13  H1  UNL     1     -19.525   2.254 -13.475  1.00  0.00     0.162 HD
ENDBRANCH   8   9
ENDBRANCH   7   8
ENDBRANCH   1   7
BRANCH   4  14
HETATM   14  S1  UNL     1     -16.791  -0.711 -20.714  1.00  0.00     0.256 S 
HETATM   15  O2  UNL     1     -16.300  -2.087 -20.319  1.00  0.00    -0.201 OA
HETATM   16  O3  UNL     1     -15.634  -0.010 -21.354  1.00  0.00    -0.201 OA
BRANCH  14  17
HETATM   17  N2  UNL     1     -18.104  -0.917 -21.797  1.00  0.00    -0.324 N 
ATOM     18  H22 UNL     1     -19.076  -0.751 -21.536  1.00  0.00     0.169 HD
ATOM     19  H21 UNL     1     -17.792  -1.222 -22.719  1.00  0.00     0.169 HD
ENDBRANCH  14  17
ENDBRANCH   4  14
TORSDOF 5
ENDMDL
