MODEL 15
REMARK VINA RESULT: -5.896825798      2.977      6.705
REMARK  5 active torsions:
REMARK  status: ('A' for Active; 'I' for Inactive)
REMARK       I    between atoms: C2_2  and  N1_4 
REMARK    1  A    between atoms: N1_4  and  C3_6 
REMARK    2  A    between atoms: C3_6  and  C4_7 
REMARK    3  A    between atoms: C4_7  and  C5_8 
REMARK    4  A    between atoms: C8_11  and  S1_12 
REMARK    5  A    between atoms: S1_12  and  N2_13 
ROOT
HETATM    1  C5  UNL     1     -18.842   1.542 -17.479  1.00  0.00    -0.057 A 
HETATM    2  C6  UNL     1     -20.147   1.940 -17.684  1.00  0.00     0.009 A 
HETATM    3  C7  UNL     1     -21.155   1.623 -16.777  1.00  0.00     0.026 A 
HETATM    4  C8  UNL     1     -20.860   0.896 -15.644  1.00  0.00     0.079 A 
HETATM    5  C9  UNL     1     -19.575   0.493 -15.423  1.00  0.00     0.026 A 
HETATM    6  C10 UNL     1     -18.592   0.818 -16.334  1.00  0.00     0.009 A 
ENDROOT
BRANCH   1   7
HETATM    7  C4  UNL     1     -17.778   1.898 -18.476  1.00  0.00     0.058 C 
BRANCH   7   8
HETATM    8  C3  UNL     1     -18.155   1.516 -19.865  1.00  0.00     0.127 C 
BRANCH   8   9
HETATM    9  N1  UNL     1     -17.661   0.188 -20.145  1.00  0.00    -0.361 N 
HETATM   10  C2  UNL     1     -16.534  -0.102 -20.940  1.00  0.00     0.213 C 
HETATM   11  C1  UNL     1     -16.079  -1.498 -21.192  1.00  0.00     0.117 C 
HETATM   12  O1  UNL     1     -15.894   0.850 -21.450  1.00  0.00    -0.274 OA
ATOM     13  H1  UNL     1     -18.166  -0.598 -19.737  1.00  0.00     0.162 HD
ENDBRANCH   8   9
ENDBRANCH   7   8
ENDBRANCH   1   7
BRANCH   4  14
HETATM   14  S1  UNL     1     -22.181   0.541 -14.555  1.00  0.00     0.256 S 
HETATM   15  O2  UNL     1     -21.665  -0.088 -13.279  1.00  0.00    -0.201 OA
HETATM   16  O3  UNL     1     -23.053  -0.480 -15.215  1.00  0.00    -0.201 OA
BRANCH  14  17
HETATM   17  N2  UNL     1     -23.051   1.954 -14.123  1.00  0.00    -0.324 N 
ATOM     18  H22 UNL     1     -22.830   2.518 -13.302  1.00  0.00     0.169 HD
ATOM     19  H21 UNL     1     -23.803   2.154 -14.782  1.00  0.00     0.169 HD
ENDBRANCH  14  17
ENDBRANCH   4  14
TORSDOF 5
ENDMDL
