MODEL 16
REMARK VINA RESULT: -5.886936971      2.733      6.226
REMARK  5 active torsions:
REMARK  status: ('A' for Active; 'I' for Inactive)
REMARK       I    between atoms: C2_2  and  N1_4 
REMARK    1  A    between atoms: N1_4  and  C3_6 
REMARK    2  A    between atoms: C3_6  and  C4_7 
REMARK    3  A    between atoms: C4_7  and  C5_8 
REMARK    4  A    between atoms: C8_11  and  S1_12 
REMARK    5  A    between atoms: S1_12  and  N2_13 
ROOT
HETATM    1  C5  UNL     1     -17.887   1.796 -19.610  1.00  0.00    -0.057 A 
HETATM    2  C6  UNL     1     -19.249   1.817 -19.835  1.00  0.00     0.009 A 
HETATM    3  C7  UNL     1     -20.160   1.819 -18.782  1.00  0.00     0.026 A 
HETATM    4  C8  UNL     1     -19.709   1.798 -17.479  1.00  0.00     0.079 A 
HETATM    5  C9  UNL     1     -18.367   1.776 -17.236  1.00  0.00     0.026 A 
HETATM    6  C10 UNL     1     -17.482   1.775 -18.293  1.00  0.00     0.009 A 
ENDROOT
BRANCH   1   7
HETATM    7  C4  UNL     1     -16.930   1.794 -20.766  1.00  0.00     0.058 C 
BRANCH   7   8
HETATM    8  C3  UNL     1     -16.593   0.415 -21.217  1.00  0.00     0.127 C 
BRANCH   8   9
HETATM    9  N1  UNL     1     -17.072  -0.536 -20.242  1.00  0.00    -0.361 N 
HETATM   10  C2  UNL     1     -16.256  -1.432 -19.522  1.00  0.00     0.213 C 
HETATM   11  C1  UNL     1     -16.816  -2.393 -18.530  1.00  0.00     0.117 C 
HETATM   12  O1  UNL     1     -15.018  -1.417 -19.725  1.00  0.00    -0.274 OA
ATOM     13  H1  UNL     1     -18.075  -0.561 -20.061  1.00  0.00     0.162 HD
ENDBRANCH   8   9
ENDBRANCH   7   8
ENDBRANCH   1   7
BRANCH   4  14
HETATM   14  S1  UNL     1     -20.917   1.801 -16.215  1.00  0.00     0.256 S 
HETATM   15  O2  UNL     1     -22.306   1.905 -16.807  1.00  0.00    -0.201 OA
HETATM   16  O3  UNL     1     -20.710   3.031 -15.389  1.00  0.00    -0.201 OA
BRANCH  14  17
HETATM   17  N2  UNL     1     -20.859   0.370 -15.272  1.00  0.00    -0.324 N 
ATOM     18  H22 UNL     1     -21.667  -0.006 -14.775  1.00  0.00     0.169 HD
ATOM     19  H21 UNL     1     -19.929  -0.048 -15.273  1.00  0.00     0.169 HD
ENDBRANCH  14  17
ENDBRANCH   4  14
TORSDOF 5
ENDMDL
