MODEL 6
REMARK VINA RESULT: -6.750814660      2.071      2.623
REMARK  5 active torsions:
REMARK  status: ('A' for Active; 'I' for Inactive)
REMARK       I    between atoms: C2_2  and  N1_4 
REMARK    1  A    between atoms: N1_4  and  C3_6 
REMARK    2  A    between atoms: C3_6  and  C4_7 
REMARK    3  A    between atoms: C4_7  and  C5_8 
REMARK    4  A    between atoms: C8_11  and  S1_12 
REMARK    5  A    between atoms: S1_12  and  N2_13 
ROOT
HETATM    1  C5  UNL     1     -19.021   1.301 -17.307  1.00  0.00    -0.057 A 
HETATM    2  C6  UNL     1     -18.602   0.130 -16.710  1.00  0.00     0.009 A 
HETATM    3  C7  UNL     1     -17.671  -0.707 -17.321  1.00  0.00     0.026 A 
HETATM    4  C8  UNL     1     -17.147  -0.372 -18.551  1.00  0.00     0.079 A 
HETATM    5  C9  UNL     1     -17.548   0.782 -19.159  1.00  0.00     0.026 A 
HETATM    6  C10 UNL     1     -18.470   1.596 -18.535  1.00  0.00     0.009 A 
ENDROOT
BRANCH   1   7
HETATM    7  C4  UNL     1     -20.025   2.181 -16.623  1.00  0.00     0.058 C 
BRANCH   7   8
HETATM    8  C3  UNL     1     -20.080   1.940 -15.154  1.00  0.00     0.127 C 
BRANCH   8   9
HETATM    9  N1  UNL     1     -20.178   3.205 -14.466  1.00  0.00    -0.361 N 
HETATM   10  C2  UNL     1     -19.084   3.934 -13.958  1.00  0.00     0.213 C 
HETATM   11  C1  UNL     1     -19.255   5.236 -13.254  1.00  0.00     0.117 C 
HETATM   12  O1  UNL     1     -17.928   3.469 -14.108  1.00  0.00    -0.274 OA
ATOM     13  H1  UNL     1     -21.109   3.602 -14.338  1.00  0.00     0.162 HD
ENDBRANCH   8   9
ENDBRANCH   7   8
ENDBRANCH   1   7
BRANCH   4  14
HETATM   14  S1  UNL     1     -15.984  -1.475 -19.251  1.00  0.00     0.256 S 
HETATM   15  O2  UNL     1     -16.227  -2.885 -18.761  1.00  0.00    -0.201 OA
HETATM   16  O3  UNL     1     -14.627  -1.078 -18.762  1.00  0.00    -0.201 OA
BRANCH  14  17
HETATM   17  N2  UNL     1     -16.075  -1.496 -20.964  1.00  0.00    -0.324 N 
ATOM     18  H22 UNL     1     -16.781  -2.023 -21.480  1.00  0.00     0.169 HD
ATOM     19  H21 UNL     1     -15.346  -0.925 -21.390  1.00  0.00     0.169 HD
ENDBRANCH  14  17
ENDBRANCH   4  14
TORSDOF 5
ENDMDL
