MODEL 2
REMARK VINA RESULT: -11.130578261      0.954      3.703
REMARK  14 active torsions:
REMARK  status: ('A' for Active; 'I' for Inactive)
REMARK    1  A    between atoms: C2_2  and  N1_5 
REMARK       I    between atoms: N1_5  and  C5_7 
REMARK    2  A    between atoms: C5_7  and  C6_9 
REMARK    3  A    between atoms: N2_18  and  C15_19 
REMARK    4  A    between atoms: C15_19  and  C16_20 
REMARK    5  A    between atoms: C16_20  and  O2_21 
REMARK    6  A    between atoms: C16_20  and  C17_23 
REMARK    7  A    between atoms: C17_23  and  C18_24 
REMARK    8  A    between atoms: C17_23  and  N3_31 
REMARK    9  A    between atoms: C18_24  and  C19_25 
REMARK       I    between atoms: N3_31  and  C25_33 
REMARK   10  A    between atoms: C25_33  and  C26_35 
REMARK   11  A    between atoms: C26_35  and  C27_36 
REMARK   12  A    between atoms: C26_35  and  N5_40 
REMARK   13  A    between atoms: C27_36  and  C28_37 
REMARK       I    between atoms: N5_40  and  C29_42 
REMARK   14  A    between atoms: C29_42  and  C30_44 
ROOT
HETATM    1  C17 UNL     1      18.224  30.689  14.445  1.00  0.00     0.119 C 
ENDROOT
BRANCH   1   2
HETATM    2  C16 UNL     1      19.613  30.892  13.874  1.00  0.00     0.169 C 
BRANCH   2   3
HETATM    3  C15 UNL     1      20.681  29.990  14.367  1.00  0.00     0.307 C 
BRANCH   3   4
HETATM    4  N2  UNL     1      21.990  30.494  14.566  1.00  0.00     0.105 N 
HETATM    5  C6  UNL     1      22.647  30.887  13.331  1.00  0.00     0.314 C 
HETATM    6  C7  UNL     1      23.997  31.467  13.689  1.00  0.00     0.050 C 
HETATM    7  C8  UNL     1      23.737  32.902  14.112  1.00  0.00    -0.006 C 
HETATM    8  C9  UNL     1      24.802  33.300  15.100  1.00  0.00     0.005 C 
HETATM    9  C13 UNL     1      22.346  32.943  14.708  1.00  0.00     0.018 C 
HETATM   10  C10 UNL     1      24.709  34.794  15.327  1.00  0.00     0.000 C 
HETATM   11  C11 UNL     1      23.238  35.154  15.264  1.00  0.00     0.000 C 
HETATM   12  C12 UNL     1      22.376  34.034  15.786  1.00  0.00     0.007 C 
HETATM   13  C14 UNL     1      22.001  31.671  15.423  1.00  0.00     0.278 C 
BRANCH   5  14
HETATM   14  C5  UNL     1      22.890  29.763  12.405  1.00  0.00     0.252 C 
HETATM   15  N1  UNL     1      23.962  28.859  12.542  1.00  0.00    -0.351 N 
ATOM     16  H1  UNL     1      24.597  28.997  13.329  1.00  0.00     0.163 HD
HETATM   17  O1  UNL     1      22.119  29.585  11.440  1.00  0.00    -0.271 OA
BRANCH  15  18
HETATM   18  C2  UNL     1      24.228  27.760  11.662  1.00  0.00     0.022 C 
HETATM   19  C1  UNL     1      24.558  28.239  10.263  1.00  0.00     0.037 C 
HETATM   20  C3  UNL     1      23.067  26.804  11.550  1.00  0.00     0.037 C 
HETATM   21  C4  UNL     1      25.428  26.981  12.147  1.00  0.00     0.037 C 
ENDBRANCH  15  18
ENDBRANCH   5  14
ENDBRANCH   3   4
ENDBRANCH   2   3
BRANCH   2  22
HETATM   22  O2  UNL     1      19.615  31.100  12.508  1.00  0.00    -0.392 OA
ATOM     23  H2  UNL     1      20.066  31.888  12.226  1.00  0.00     0.210 HD
ENDBRANCH   2  22
ENDBRANCH   1   2
BRANCH   1  24
HETATM   24  C18 UNL     1      17.257  30.553  13.276  1.00  0.00     0.066 C 
BRANCH  24  25
HETATM   25  C19 UNL     1      17.281  29.176  12.718  1.00  0.00    -0.056 A 
HETATM   26  C20 UNL     1      17.059  28.957  11.394  1.00  0.00     0.007 A 
HETATM   27  C21 UNL     1      17.077  27.691  10.845  1.00  0.00     0.001 A 
HETATM   28  C22 UNL     1      17.330  26.602  11.666  1.00  0.00     0.000 A 
HETATM   29  C23 UNL     1      17.556  26.832  13.013  1.00  0.00     0.001 A 
HETATM   30  C24 UNL     1      17.537  28.088  13.558  1.00  0.00     0.007 A 
ENDBRANCH  24  25
ENDBRANCH   1  24
BRANCH   1  31
HETATM   31  N3  UNL     1      17.794  31.972  15.064  1.00  0.00    -0.352 N 
HETATM   32  C25 UNL     1      18.270  32.389  16.321  1.00  0.00     0.241 C 
HETATM   33  O3  UNL     1      19.087  31.637  16.923  1.00  0.00    -0.271 OA
ATOM     34  H3  UNL     1      17.134  32.566  14.563  1.00  0.00     0.163 HD
BRANCH  32  35
HETATM   35  C26 UNL     1      17.823  33.692  16.934  1.00  0.00     0.185 C 
BRANCH  35  36
HETATM   36  C27 UNL     1      16.591  34.211  16.221  1.00  0.00     0.134 C 
BRANCH  36  37
HETATM   37  C28 UNL     1      15.671  34.931  17.145  1.00  0.00     0.233 C 
HETATM   38  N4  UNL     1      15.898  34.815  18.539  1.00  0.00    -0.062 NA
HETATM   39  O4  UNL     1      14.722  35.617  16.680  1.00  0.00    -0.277 OA
ENDBRANCH  36  37
ENDBRANCH  35  36
BRANCH  35  40
HETATM   40  N5  UNL     1      18.868  34.665  16.791  1.00  0.00    -0.342 N 
HETATM   41  C29 UNL     1      19.482  35.333  17.881  1.00  0.00     0.268 C 
HETATM   42  O5  UNL     1      19.094  35.061  19.030  1.00  0.00    -0.266 OA
ATOM     43  H5  UNL     1      19.190  34.888  15.849  1.00  0.00     0.163 HD
BRANCH  41  44
HETATM   44  C30 UNL     1      20.549  36.325  17.682  1.00  0.00     0.101 A 
HETATM   45  C31 UNL     1      21.632  36.336  18.534  1.00  0.00     0.036 A 
HETATM   46  C32 UNL     1      22.681  37.224  18.436  1.00  0.00     0.016 A 
HETATM   47  C33 UNL     1      22.609  38.152  17.400  1.00  0.00    -0.009 A 
HETATM   48  C34 UNL     1      23.632  39.077  17.244  1.00  0.00     0.013 A 
HETATM   49  C38 UNL     1      21.509  38.125  16.553  1.00  0.00     0.043 A 
HETATM   50  C35 UNL     1      23.527  39.982  16.212  1.00  0.00     0.001 A 
HETATM   51  C36 UNL     1      22.439  39.970  15.355  1.00  0.00     0.002 A 
HETATM   52  C37 UNL     1      21.430  39.048  15.519  1.00  0.00     0.030 A 
HETATM   53  N6  UNL     1      20.506  37.222  16.703  1.00  0.00    -0.351 N 
ATOM     54  H6  UNL     1      19.714  37.233  16.059  1.00  0.00     0.166 HD
ENDBRANCH  41  44
ENDBRANCH  35  40
ENDBRANCH  32  35
ENDBRANCH   1  31
TORSDOF 14
ENDMDL
