MODEL 3
REMARK VINA RESULT: -10.838270395      0.700      1.604
REMARK  14 active torsions:
REMARK  status: ('A' for Active; 'I' for Inactive)
REMARK    1  A    between atoms: C2_2  and  N1_5 
REMARK       I    between atoms: N1_5  and  C5_7 
REMARK    2  A    between atoms: C5_7  and  C6_9 
REMARK    3  A    between atoms: N2_18  and  C15_19 
REMARK    4  A    between atoms: C15_19  and  C16_20 
REMARK    5  A    between atoms: C16_20  and  O2_21 
REMARK    6  A    between atoms: C16_20  and  C17_23 
REMARK    7  A    between atoms: C17_23  and  C18_24 
REMARK    8  A    between atoms: C17_23  and  N3_31 
REMARK    9  A    between atoms: C18_24  and  C19_25 
REMARK       I    between atoms: N3_31  and  C25_33 
REMARK   10  A    between atoms: C25_33  and  C26_35 
REMARK   11  A    between atoms: C26_35  and  C27_36 
REMARK   12  A    between atoms: C26_35  and  N5_40 
REMARK   13  A    between atoms: C27_36  and  C28_37 
REMARK       I    between atoms: N5_40  and  C29_42 
REMARK   14  A    between atoms: C29_42  and  C30_44 
ROOT
HETATM    1  C17 UNL     1      18.189  30.599  14.429  1.00  0.00     0.119 C 
ENDROOT
BRANCH   1   2
HETATM    2  C16 UNL     1      19.559  30.812  13.819  1.00  0.00     0.169 C 
BRANCH   2   3
HETATM    3  C15 UNL     1      20.385  29.605  13.582  1.00  0.00     0.307 C 
BRANCH   3   4
HETATM    4  N2  UNL     1      21.465  29.661  12.666  1.00  0.00     0.105 N 
HETATM    5  C6  UNL     1      22.738  29.964  13.298  1.00  0.00     0.314 C 
HETATM    6  C7  UNL     1      23.807  29.925  12.229  1.00  0.00     0.050 C 
HETATM    7  C8  UNL     1      24.151  28.459  12.035  1.00  0.00    -0.006 C 
HETATM    8  C9  UNL     1      24.615  28.271  10.614  1.00  0.00     0.005 C 
HETATM    9  C13 UNL     1      22.900  27.665  12.347  1.00  0.00     0.018 C 
HETATM   10  C10 UNL     1      25.203  26.882  10.483  1.00  0.00     0.000 C 
HETATM   11  C11 UNL     1      24.385  25.976  11.382  1.00  0.00     0.000 C 
HETATM   12  C12 UNL     1      22.948  26.422  11.449  1.00  0.00     0.007 C 
HETATM   13  C14 UNL     1      21.652  28.402  11.960  1.00  0.00     0.278 C 
BRANCH   5  14
HETATM   14  C5  UNL     1      22.790  31.304  13.915  1.00  0.00     0.252 C 
HETATM   15  N1  UNL     1      23.007  31.521  15.290  1.00  0.00    -0.351 N 
ATOM     16  H1  UNL     1      23.136  30.700  15.881  1.00  0.00     0.163 HD
HETATM   17  O1  UNL     1      22.634  32.315  13.200  1.00  0.00    -0.271 OA
BRANCH  15  18
HETATM   18  C2  UNL     1      23.062  32.806  15.920  1.00  0.00     0.022 C 
HETATM   19  C1  UNL     1      22.925  32.692  17.425  1.00  0.00     0.037 C 
HETATM   20  C3  UNL     1      21.980  33.742  15.439  1.00  0.00     0.037 C 
HETATM   21  C4  UNL     1      24.397  33.462  15.656  1.00  0.00     0.037 C 
ENDBRANCH  15  18
ENDBRANCH   5  14
ENDBRANCH   3   4
ENDBRANCH   2   3
BRANCH   2  22
HETATM   22  O2  UNL     1      19.557  31.725  12.782  1.00  0.00    -0.392 OA
ATOM     23  H2  UNL     1      20.325  32.283  12.740  1.00  0.00     0.210 HD
ENDBRANCH   2  22
ENDBRANCH   1   2
BRANCH   1  24
HETATM   24  C18 UNL     1      17.184  30.494  13.289  1.00  0.00     0.066 C 
BRANCH  24  25
HETATM   25  C19 UNL     1      17.254  29.161  12.636  1.00  0.00    -0.056 A 
HETATM   26  C20 UNL     1      17.284  28.021  13.379  1.00  0.00     0.007 A 
HETATM   27  C21 UNL     1      17.347  26.770  12.802  1.00  0.00     0.001 A 
HETATM   28  C22 UNL     1      17.380  26.663  11.419  1.00  0.00     0.000 A 
HETATM   29  C23 UNL     1      17.349  27.827  10.669  1.00  0.00     0.001 A 
HETATM   30  C24 UNL     1      17.287  29.069  11.241  1.00  0.00     0.007 A 
ENDBRANCH  24  25
ENDBRANCH   1  24
BRANCH   1  31
HETATM   31  N3  UNL     1      17.783  31.867  15.093  1.00  0.00    -0.352 N 
HETATM   32  C25 UNL     1      18.410  32.328  16.265  1.00  0.00     0.241 C 
HETATM   33  O3  UNL     1      19.343  31.628  16.751  1.00  0.00    -0.271 OA
ATOM     34  H3  UNL     1      17.028  32.419  14.685  1.00  0.00     0.163 HD
BRANCH  32  35
HETATM   35  C26 UNL     1      17.984  33.616  16.925  1.00  0.00     0.185 C 
BRANCH  35  36
HETATM   36  C27 UNL     1      16.791  34.206  16.204  1.00  0.00     0.134 C 
BRANCH  36  37
HETATM   37  C28 UNL     1      15.863  34.907  17.135  1.00  0.00     0.233 C 
HETATM   38  N4  UNL     1      16.007  34.671  18.525  1.00  0.00    -0.062 NA
HETATM   39  O4  UNL     1      14.982  35.683  16.679  1.00  0.00    -0.277 OA
ENDBRANCH  36  37
ENDBRANCH  35  36
BRANCH  35  40
HETATM   40  N5  UNL     1      19.063  34.560  16.856  1.00  0.00    -0.342 N 
HETATM   41  C29 UNL     1      19.616  35.215  17.986  1.00  0.00     0.268 C 
HETATM   42  O5  UNL     1      19.141  34.955  19.106  1.00  0.00    -0.266 OA
ATOM     43  H5  UNL     1      19.456  34.773  15.939  1.00  0.00     0.163 HD
BRANCH  41  44
HETATM   44  C30 UNL     1      20.721  36.177  17.863  1.00  0.00     0.101 A 
HETATM   45  C31 UNL     1      20.806  36.972  16.741  1.00  0.00     0.036 A 
HETATM   46  C32 UNL     1      21.801  37.901  16.529  1.00  0.00     0.016 A 
HETATM   47  C33 UNL     1      22.761  38.017  17.530  1.00  0.00    -0.009 A 
HETATM   48  C34 UNL     1      23.793  38.933  17.381  1.00  0.00     0.013 A 
HETATM   49  C38 UNL     1      22.658  37.207  18.654  1.00  0.00     0.043 A 
HETATM   50  C35 UNL     1      24.726  39.020  18.389  1.00  0.00     0.001 A 
HETATM   51  C36 UNL     1      24.639  38.223  19.517  1.00  0.00     0.002 A 
HETATM   52  C37 UNL     1      23.612  37.316  19.656  1.00  0.00     0.030 A 
HETATM   53  N6  UNL     1      21.650  36.309  18.804  1.00  0.00    -0.351 N 
ATOM     54  H6  UNL     1      21.607  35.732  19.644  1.00  0.00     0.166 HD
ENDBRANCH  41  44
ENDBRANCH  35  40
ENDBRANCH  32  35
ENDBRANCH   1  31
TORSDOF 14
ENDMDL
