MODEL 11
REMARK VINA RESULT: -10.646876241      1.628      5.174
REMARK  14 active torsions:
REMARK  status: ('A' for Active; 'I' for Inactive)
REMARK    1  A    between atoms: C2_2  and  N1_5 
REMARK       I    between atoms: N1_5  and  C5_7 
REMARK    2  A    between atoms: C5_7  and  C6_9 
REMARK    3  A    between atoms: N2_18  and  C15_19 
REMARK    4  A    between atoms: C15_19  and  C16_20 
REMARK    5  A    between atoms: C16_20  and  O2_21 
REMARK    6  A    between atoms: C16_20  and  C17_23 
REMARK    7  A    between atoms: C17_23  and  C18_24 
REMARK    8  A    between atoms: C17_23  and  N3_31 
REMARK    9  A    between atoms: C18_24  and  C19_25 
REMARK       I    between atoms: N3_31  and  C25_33 
REMARK   10  A    between atoms: C25_33  and  C26_35 
REMARK   11  A    between atoms: C26_35  and  C27_36 
REMARK   12  A    between atoms: C26_35  and  N5_40 
REMARK   13  A    between atoms: C27_36  and  C28_37 
REMARK       I    between atoms: N5_40  and  C29_42 
REMARK   14  A    between atoms: C29_42  and  C30_44 
ROOT
HETATM    1  C17 UNL     1      20.998  31.483  15.535  1.00  0.00     0.119 C 
ENDROOT
BRANCH   1   2
HETATM    2  C16 UNL     1      20.507  30.072  15.789  1.00  0.00     0.169 C 
BRANCH   2   3
HETATM    3  C15 UNL     1      20.977  29.019  14.859  1.00  0.00     0.307 C 
BRANCH   3   4
HETATM    4  N2  UNL     1      20.445  28.951  13.547  1.00  0.00     0.105 N 
HETATM    5  C6  UNL     1      21.019  27.879  12.751  1.00  0.00     0.314 C 
HETATM    6  C7  UNL     1      20.320  27.874  11.410  1.00  0.00     0.050 C 
HETATM    7  C8  UNL     1      19.011  27.136  11.623  1.00  0.00    -0.006 C 
HETATM    8  C9  UNL     1      18.006  27.670  10.636  1.00  0.00     0.005 C 
HETATM    9  C13 UNL     1      18.597  27.372  13.060  1.00  0.00     0.018 C 
HETATM   10  C10 UNL     1      16.787  26.772  10.661  1.00  0.00     0.000 C 
HETATM   11  C11 UNL     1      16.614  26.311  12.095  1.00  0.00     0.000 C 
HETATM   12  C12 UNL     1      17.063  27.369  13.069  1.00  0.00     0.007 C 
HETATM   13  C14 UNL     1      19.006  28.730  13.549  1.00  0.00     0.278 C 
BRANCH   5  14
HETATM   14  C5  UNL     1      22.462  28.043  12.488  1.00  0.00     0.252 C 
HETATM   15  N1  UNL     1      23.098  27.579  11.319  1.00  0.00    -0.351 N 
ATOM     16  H1  UNL     1      22.519  27.108  10.624  1.00  0.00     0.163 HD
HETATM   17  O1  UNL     1      23.178  28.619  13.332  1.00  0.00    -0.271 OA
BRANCH  15  18
HETATM   18  C2  UNL     1      24.495  27.720  11.033  1.00  0.00     0.022 C 
HETATM   19  C1  UNL     1      24.862  27.052   9.723  1.00  0.00     0.037 C 
HETATM   20  C3  UNL     1      25.376  27.126  12.104  1.00  0.00     0.037 C 
HETATM   21  C4  UNL     1      24.855  29.180  10.890  1.00  0.00     0.037 C 
ENDBRANCH  15  18
ENDBRANCH   5  14
ENDBRANCH   3   4
ENDBRANCH   2   3
BRANCH   2  22
HETATM   22  O2  UNL     1      20.531  29.719  17.125  1.00  0.00    -0.392 OA
ATOM     23  H2  UNL     1      19.796  30.039  17.635  1.00  0.00     0.210 HD
ENDBRANCH   2  22
ENDBRANCH   1   2
BRANCH   1  24
HETATM   24  C18 UNL     1      22.384  31.611  16.155  1.00  0.00     0.066 C 
BRANCH  24  25
HETATM   25  C19 UNL     1      23.042  32.875  15.737  1.00  0.00    -0.056 A 
HETATM   26  C20 UNL     1      22.947  33.997  16.503  1.00  0.00     0.007 A 
HETATM   27  C21 UNL     1      23.548  35.185  16.144  1.00  0.00     0.001 A 
HETATM   28  C22 UNL     1      24.275  35.246  14.964  1.00  0.00     0.000 A 
HETATM   29  C23 UNL     1      24.368  34.102  14.189  1.00  0.00     0.001 A 
HETATM   30  C24 UNL     1      23.771  32.922  14.544  1.00  0.00     0.007 A 
ENDBRANCH  24  25
ENDBRANCH   1  24
BRANCH   1  31
HETATM   31  N3  UNL     1      20.190  32.406  16.377  1.00  0.00    -0.352 N 
HETATM   32  C25 UNL     1      18.998  32.989  15.909  1.00  0.00     0.241 C 
HETATM   33  O3  UNL     1      18.622  32.706  14.737  1.00  0.00    -0.271 OA
ATOM     34  H3  UNL     1      20.509  32.622  17.322  1.00  0.00     0.163 HD
BRANCH  32  35
HETATM   35  C26 UNL     1      18.191  33.924  16.776  1.00  0.00     0.185 C 
BRANCH  35  36
HETATM   36  C27 UNL     1      16.754  33.972  16.301  1.00  0.00     0.134 C 
BRANCH  36  37
HETATM   37  C28 UNL     1      15.883  34.750  17.225  1.00  0.00     0.233 C 
HETATM   38  N4  UNL     1      16.277  34.856  18.582  1.00  0.00    -0.062 NA
HETATM   39  O4  UNL     1      14.830  35.289  16.793  1.00  0.00    -0.277 OA
ENDBRANCH  36  37
ENDBRANCH  35  36
BRANCH  35  40
HETATM   40  N5  UNL     1      18.740  35.247  16.681  1.00  0.00    -0.342 N 
HETATM   41  C29 UNL     1      19.744  35.751  17.547  1.00  0.00     0.268 C 
HETATM   42  O5  UNL     1      20.177  35.004  18.442  1.00  0.00    -0.266 OA
ATOM     43  H5  UNL     1      18.388  35.861  15.947  1.00  0.00     0.163 HD
BRANCH  41  44
HETATM   44  C30 UNL     1      20.273  37.117  17.411  1.00  0.00     0.101 A 
HETATM   45  C31 UNL     1      20.209  37.979  18.483  1.00  0.00     0.036 A 
HETATM   46  C32 UNL     1      20.673  39.276  18.459  1.00  0.00     0.016 A 
HETATM   47  C33 UNL     1      21.234  39.707  17.260  1.00  0.00    -0.009 A 
HETATM   48  C34 UNL     1      21.721  41.003  17.164  1.00  0.00     0.013 A 
HETATM   49  C38 UNL     1      21.290  38.823  16.190  1.00  0.00     0.043 A 
HETATM   50  C35 UNL     1      22.267  41.397  15.964  1.00  0.00     0.001 A 
HETATM   51  C36 UNL     1      22.332  40.531  14.886  1.00  0.00     0.002 A 
HETATM   52  C37 UNL     1      21.847  39.247  14.992  1.00  0.00     0.030 A 
HETATM   53  N6  UNL     1      20.814  37.554  16.279  1.00  0.00    -0.351 N 
ATOM     54  H6  UNL     1      20.873  36.934  15.471  1.00  0.00     0.166 HD
ENDBRANCH  41  44
ENDBRANCH  35  40
ENDBRANCH  32  35
ENDBRANCH   1  31
TORSDOF 14
ENDMDL
