MODEL 1
REMARK VINA RESULT: -11.209225381      0.000      0.000
REMARK  14 active torsions:
REMARK  status: ('A' for Active; 'I' for Inactive)
REMARK    1  A    between atoms: C2_2  and  N1_5 
REMARK       I    between atoms: N1_5  and  C5_7 
REMARK    2  A    between atoms: C5_7  and  C6_9 
REMARK    3  A    between atoms: N2_18  and  C15_19 
REMARK    4  A    between atoms: C15_19  and  C16_20 
REMARK    5  A    between atoms: C16_20  and  O2_21 
REMARK    6  A    between atoms: C16_20  and  C17_23 
REMARK    7  A    between atoms: C17_23  and  C18_24 
REMARK    8  A    between atoms: C17_23  and  N3_31 
REMARK    9  A    between atoms: C18_24  and  C19_25 
REMARK       I    between atoms: N3_31  and  C25_33 
REMARK   10  A    between atoms: C25_33  and  C26_35 
REMARK   11  A    between atoms: C26_35  and  C27_36 
REMARK   12  A    between atoms: C26_35  and  N5_40 
REMARK   13  A    between atoms: C27_36  and  C28_37 
REMARK       I    between atoms: N5_40  and  C29_42 
REMARK   14  A    between atoms: C29_42  and  C30_44 
ROOT
HETATM    1  C17 UNL     1      18.152  30.581  14.374  1.00  0.00     0.119 C 
ENDROOT
BRANCH   1   2
HETATM    2  C16 UNL     1      19.526  30.812  13.778  1.00  0.00     0.169 C 
BRANCH   2   3
HETATM    3  C15 UNL     1      20.380  29.618  13.573  1.00  0.00     0.307 C 
BRANCH   3   4
HETATM    4  N2  UNL     1      21.469  29.680  12.669  1.00  0.00     0.105 N 
HETATM    5  C6  UNL     1      22.735  29.981  13.316  1.00  0.00     0.314 C 
HETATM    6  C7  UNL     1      23.815  29.948  12.257  1.00  0.00     0.050 C 
HETATM    7  C8  UNL     1      24.162  28.483  12.059  1.00  0.00    -0.006 C 
HETATM    8  C9  UNL     1      24.641  28.303  10.642  1.00  0.00     0.005 C 
HETATM    9  C13 UNL     1      22.908  27.687  12.354  1.00  0.00     0.018 C 
HETATM   10  C10 UNL     1      25.231  26.915  10.510  1.00  0.00     0.000 C 
HETATM   11  C11 UNL     1      24.405  26.004  11.396  1.00  0.00     0.000 C 
HETATM   12  C12 UNL     1      22.967  26.449  11.451  1.00  0.00     0.007 C 
HETATM   13  C14 UNL     1      21.664  28.425  11.958  1.00  0.00     0.278 C 
BRANCH   5  14
HETATM   14  C5  UNL     1      22.780  31.318  13.940  1.00  0.00     0.252 C 
HETATM   15  N1  UNL     1      23.023  31.529  15.312  1.00  0.00    -0.351 N 
ATOM     16  H1  UNL     1      23.176  30.706  15.895  1.00  0.00     0.163 HD
HETATM   17  O1  UNL     1      22.594  32.330  13.235  1.00  0.00    -0.271 OA
BRANCH  15  18
HETATM   18  C2  UNL     1      23.070  32.811  15.949  1.00  0.00     0.022 C 
HETATM   19  C1  UNL     1      21.951  33.712  15.468  1.00  0.00     0.037 C 
HETATM   20  C3  UNL     1      24.370  33.539  15.708  1.00  0.00     0.037 C 
HETATM   21  C4  UNL     1      22.892  32.659  17.442  1.00  0.00     0.037 C 
ENDBRANCH  15  18
ENDBRANCH   5  14
ENDBRANCH   3   4
ENDBRANCH   2   3
BRANCH   2  22
HETATM   22  O2  UNL     1      19.519  31.706  12.725  1.00  0.00    -0.392 OA
ATOM     23  H2  UNL     1      20.292  32.254  12.662  1.00  0.00     0.210 HD
ENDBRANCH   2  22
ENDBRANCH   1   2
BRANCH   1  24
HETATM   24  C18 UNL     1      17.163  30.447  13.223  1.00  0.00     0.066 C 
BRANCH  24  25
HETATM   25  C19 UNL     1      17.263  29.110  12.583  1.00  0.00    -0.056 A 
HETATM   26  C20 UNL     1      17.382  28.991  11.232  1.00  0.00     0.007 A 
HETATM   27  C21 UNL     1      17.480  27.765  10.608  1.00  0.00     0.001 A 
HETATM   28  C22 UNL     1      17.457  26.611  11.378  1.00  0.00     0.000 A 
HETATM   29  C23 UNL     1      17.336  26.739  12.752  1.00  0.00     0.001 A 
HETATM   30  C24 UNL     1      17.238  27.955  13.371  1.00  0.00     0.007 A 
ENDBRANCH  24  25
ENDBRANCH   1  24
BRANCH   1  31
HETATM   31  N3  UNL     1      17.716  31.848  15.020  1.00  0.00    -0.352 N 
HETATM   32  C25 UNL     1      18.294  32.310  16.218  1.00  0.00     0.241 C 
HETATM   33  O3  UNL     1      19.208  31.613  16.741  1.00  0.00    -0.271 OA
ATOM     34  H3  UNL     1      16.977  32.398  14.583  1.00  0.00     0.163 HD
BRANCH  32  35
HETATM   35  C26 UNL     1      17.839  33.596  16.860  1.00  0.00     0.185 C 
BRANCH  35  36
HETATM   36  C27 UNL     1      16.567  34.090  16.202  1.00  0.00     0.134 C 
BRANCH  36  37
HETATM   37  C28 UNL     1      15.695  34.833  17.155  1.00  0.00     0.233 C 
HETATM   38  N4  UNL     1      15.978  34.729  18.539  1.00  0.00    -0.062 NA
HETATM   39  O4  UNL     1      14.738  35.527  16.721  1.00  0.00    -0.277 OA
ENDBRANCH  36  37
ENDBRANCH  35  36
BRANCH  35  40
HETATM   40  N5  UNL     1      18.853  34.596  16.683  1.00  0.00    -0.342 N 
HETATM   41  C29 UNL     1      19.499  35.266  17.753  1.00  0.00     0.268 C 
HETATM   42  O5  UNL     1      19.170  34.969  18.916  1.00  0.00    -0.266 OA
ATOM     43  H5  UNL     1      19.126  34.840  15.731  1.00  0.00     0.163 HD
BRANCH  41  44
HETATM   44  C30 UNL     1      20.532  36.286  17.521  1.00  0.00     0.101 A 
HETATM   45  C31 UNL     1      21.736  36.197  18.186  1.00  0.00     0.036 A 
HETATM   46  C32 UNL     1      22.766  37.101  18.040  1.00  0.00     0.016 A 
HETATM   47  C33 UNL     1      22.541  38.155  17.160  1.00  0.00    -0.009 A 
HETATM   48  C34 UNL     1      23.536  39.103  16.966  1.00  0.00     0.013 A 
HETATM   49  C38 UNL     1      21.322  38.228  16.499  1.00  0.00     0.043 A 
HETATM   50  C35 UNL     1      23.280  40.134  16.091  1.00  0.00     0.001 A 
HETATM   51  C36 UNL     1      22.071  40.224  15.422  1.00  0.00     0.002 A 
HETATM   52  C37 UNL     1      21.090  39.278  15.621  1.00  0.00     0.030 A 
HETATM   53  N6  UNL     1      20.345  37.303  16.686  1.00  0.00    -0.351 N 
ATOM     54  H6  UNL     1      19.462  37.390  16.182  1.00  0.00     0.166 HD
ENDBRANCH  41  44
ENDBRANCH  35  40
ENDBRANCH  32  35
ENDBRANCH   1  31
TORSDOF 14
ENDMDL
