MODEL 9
REMARK VINA RESULT: -10.664209850      2.103      5.699
REMARK  14 active torsions:
REMARK  status: ('A' for Active; 'I' for Inactive)
REMARK    1  A    between atoms: C2_2  and  N1_5 
REMARK       I    between atoms: N1_5  and  C5_7 
REMARK    2  A    between atoms: C5_7  and  C6_9 
REMARK    3  A    between atoms: N2_18  and  C15_19 
REMARK    4  A    between atoms: C15_19  and  C16_20 
REMARK    5  A    between atoms: C16_20  and  O2_21 
REMARK    6  A    between atoms: C16_20  and  C17_23 
REMARK    7  A    between atoms: C17_23  and  C18_24 
REMARK    8  A    between atoms: C17_23  and  N3_31 
REMARK    9  A    between atoms: C18_24  and  C19_25 
REMARK       I    between atoms: N3_31  and  C25_33 
REMARK   10  A    between atoms: C25_33  and  C26_35 
REMARK   11  A    between atoms: C26_35  and  C27_36 
REMARK   12  A    between atoms: C26_35  and  N5_40 
REMARK   13  A    between atoms: C27_36  and  C28_37 
REMARK       I    between atoms: N5_40  and  C29_42 
REMARK   14  A    between atoms: C29_42  and  C30_44 
ROOT
HETATM    1  C17 UNL     1      21.024  31.498  15.359  1.00  0.00     0.119 C 
ENDROOT
BRANCH   1   2
HETATM    2  C16 UNL     1      20.703  30.021  15.254  1.00  0.00     0.169 C 
BRANCH   2   3
HETATM    3  C15 UNL     1      21.254  29.294  14.086  1.00  0.00     0.307 C 
BRANCH   3   4
HETATM    4  N2  UNL     1      20.500  29.214  12.889  1.00  0.00     0.105 N 
HETATM    5  C6  UNL     1      20.291  27.849  12.434  1.00  0.00     0.314 C 
HETATM    6  C7  UNL     1      19.420  27.902  11.198  1.00  0.00     0.050 C 
HETATM    7  C8  UNL     1      17.994  28.048  11.697  1.00  0.00    -0.006 C 
HETATM    8  C9  UNL     1      17.205  28.786  10.647  1.00  0.00     0.005 C 
HETATM    9  C13 UNL     1      18.059  28.799  13.010  1.00  0.00     0.018 C 
HETATM   10  C10 UNL     1      15.737  28.710  11.011  1.00  0.00     0.000 C 
HETATM   11  C11 UNL     1      15.660  28.765  12.524  1.00  0.00     0.000 C 
HETATM   12  C12 UNL     1      16.763  29.615  13.099  1.00  0.00     0.007 C 
HETATM   13  C14 UNL     1      19.175  29.800  13.033  1.00  0.00     0.278 C 
BRANCH   5  14
HETATM   14  C5  UNL     1      21.537  27.152  12.058  1.00  0.00     0.252 C 
HETATM   15  N1  UNL     1      22.585  27.763  11.342  1.00  0.00    -0.351 N 
ATOM     16  H1  UNL     1      22.466  28.741  11.075  1.00  0.00     0.163 HD
HETATM   17  O1  UNL     1      21.692  25.956  12.379  1.00  0.00    -0.271 OA
BRANCH  15  18
HETATM   18  C2  UNL     1      23.805  27.117  10.959  1.00  0.00     0.022 C 
HETATM   19  C1  UNL     1      23.537  25.854  10.165  1.00  0.00     0.037 C 
HETATM   20  C3  UNL     1      24.662  26.733  12.140  1.00  0.00     0.037 C 
HETATM   21  C4  UNL     1      24.620  28.024  10.068  1.00  0.00     0.037 C 
ENDBRANCH  15  18
ENDBRANCH   5  14
ENDBRANCH   3   4
ENDBRANCH   2   3
BRANCH   2  22
HETATM   22  O2  UNL     1      20.816  29.352  16.458  1.00  0.00    -0.392 OA
ATOM     23  H2  UNL     1      21.707  29.161  16.726  1.00  0.00     0.210 HD
ENDBRANCH   2  22
ENDBRANCH   1   2
BRANCH   1  24
HETATM   24  C18 UNL     1      22.357  31.633  16.084  1.00  0.00     0.066 C 
BRANCH  24  25
HETATM   25  C19 UNL     1      23.057  32.882  15.689  1.00  0.00    -0.056 A 
HETATM   26  C20 UNL     1      22.970  34.003  16.457  1.00  0.00     0.007 A 
HETATM   27  C21 UNL     1      23.610  35.177  16.118  1.00  0.00     0.001 A 
HETATM   28  C22 UNL     1      24.369  35.224  14.958  1.00  0.00     0.000 A 
HETATM   29  C23 UNL     1      24.453  34.081  14.181  1.00  0.00     0.001 A 
HETATM   30  C24 UNL     1      23.818  32.915  14.516  1.00  0.00     0.007 A 
ENDBRANCH  24  25
ENDBRANCH   1  24
BRANCH   1  31
HETATM   31  N3  UNL     1      20.073  32.104  16.329  1.00  0.00    -0.352 N 
HETATM   32  C25 UNL     1      19.270  33.210  15.994  1.00  0.00     0.241 C 
HETATM   33  O3  UNL     1      19.377  33.685  14.828  1.00  0.00    -0.271 OA
ATOM     34  H3  UNL     1      20.001  31.705  17.265  1.00  0.00     0.163 HD
BRANCH  32  35
HETATM   35  C26 UNL     1      18.312  33.812  16.991  1.00  0.00     0.185 C 
BRANCH  35  36
HETATM   36  C27 UNL     1      16.895  33.373  16.687  1.00  0.00     0.134 C 
BRANCH  36  37
HETATM   37  C28 UNL     1      15.884  34.287  17.290  1.00  0.00     0.233 C 
HETATM   38  N4  UNL     1      15.101  35.084  16.418  1.00  0.00    -0.062 NA
HETATM   39  O4  UNL     1      15.747  34.335  18.541  1.00  0.00    -0.277 OA
ENDBRANCH  36  37
ENDBRANCH  35  36
BRANCH  35  40
HETATM   40  N5  UNL     1      18.370  35.243  16.896  1.00  0.00    -0.342 N 
HETATM   41  C29 UNL     1      18.731  36.094  17.971  1.00  0.00     0.268 C 
HETATM   42  O5  UNL     1      19.017  35.571  19.063  1.00  0.00    -0.266 OA
ATOM     43  H5  UNL     1      18.138  35.674  16.001  1.00  0.00     0.163 HD
BRANCH  41  44
HETATM   44  C30 UNL     1      18.774  37.556  17.825  1.00  0.00     0.101 A 
HETATM   45  C31 UNL     1      17.911  38.337  18.562  1.00  0.00     0.036 A 
HETATM   46  C32 UNL     1      17.869  39.713  18.496  1.00  0.00     0.016 A 
HETATM   47  C33 UNL     1      18.767  40.316  17.621  1.00  0.00    -0.009 A 
HETATM   48  C34 UNL     1      18.779  41.699  17.504  1.00  0.00     0.013 A 
HETATM   49  C38 UNL     1      19.629  39.512  16.886  1.00  0.00     0.043 A 
HETATM   50  C35 UNL     1      19.678  42.262  16.627  1.00  0.00     0.001 A 
HETATM   51  C36 UNL     1      20.545  41.478  15.887  1.00  0.00     0.002 A 
HETATM   52  C37 UNL     1      20.526  40.106  16.010  1.00  0.00     0.030 A 
HETATM   53  N6  UNL     1      19.621  38.158  16.997  1.00  0.00    -0.351 N 
ATOM     54  H6  UNL     1      20.270  37.601  16.441  1.00  0.00     0.166 HD
ENDBRANCH  41  44
ENDBRANCH  35  40
ENDBRANCH  32  35
ENDBRANCH   1  31
TORSDOF 14
ENDMDL
