MODEL 8
REMARK VINA RESULT: -10.664703608      2.197      5.701
REMARK  14 active torsions:
REMARK  status: ('A' for Active; 'I' for Inactive)
REMARK    1  A    between atoms: C2_2  and  N1_5 
REMARK       I    between atoms: N1_5  and  C5_7 
REMARK    2  A    between atoms: C5_7  and  C6_9 
REMARK    3  A    between atoms: N2_18  and  C15_19 
REMARK    4  A    between atoms: C15_19  and  C16_20 
REMARK    5  A    between atoms: C16_20  and  O2_21 
REMARK    6  A    between atoms: C16_20  and  C17_23 
REMARK    7  A    between atoms: C17_23  and  C18_24 
REMARK    8  A    between atoms: C17_23  and  N3_31 
REMARK    9  A    between atoms: C18_24  and  C19_25 
REMARK       I    between atoms: N3_31  and  C25_33 
REMARK   10  A    between atoms: C25_33  and  C26_35 
REMARK   11  A    between atoms: C26_35  and  C27_36 
REMARK   12  A    between atoms: C26_35  and  N5_40 
REMARK   13  A    between atoms: C27_36  and  C28_37 
REMARK       I    between atoms: N5_40  and  C29_42 
REMARK   14  A    between atoms: C29_42  and  C30_44 
ROOT
HETATM    1  C17 UNL     1      21.087  31.469  15.316  1.00  0.00     0.119 C 
ENDROOT
BRANCH   1   2
HETATM    2  C16 UNL     1      20.735  29.998  15.219  1.00  0.00     0.169 C 
BRANCH   2   3
HETATM    3  C15 UNL     1      21.272  29.253  14.057  1.00  0.00     0.307 C 
BRANCH   3   4
HETATM    4  N2  UNL     1      20.514  29.174  12.861  1.00  0.00     0.105 N 
HETATM    5  C6  UNL     1      20.279  27.809  12.422  1.00  0.00     0.314 C 
HETATM    6  C7  UNL     1      19.407  27.865  11.187  1.00  0.00     0.050 C 
HETATM    7  C8  UNL     1      17.985  28.044  11.686  1.00  0.00    -0.006 C 
HETATM    8  C9  UNL     1      17.208  28.786  10.629  1.00  0.00     0.005 C 
HETATM    9  C13 UNL     1      18.066  28.808  12.991  1.00  0.00     0.018 C 
HETATM   10  C10 UNL     1      15.740  28.742  10.997  1.00  0.00     0.000 C 
HETATM   11  C11 UNL     1      15.666  28.815  12.509  1.00  0.00     0.000 C 
HETATM   12  C12 UNL     1      16.786  29.650  13.073  1.00  0.00     0.007 C 
HETATM   13  C14 UNL     1      19.202  29.788  13.002  1.00  0.00     0.278 C 
BRANCH   5  14
HETATM   14  C5  UNL     1      21.510  27.084  12.052  1.00  0.00     0.252 C 
HETATM   15  N1  UNL     1      22.545  27.649  11.281  1.00  0.00    -0.351 N 
ATOM     16  H1  UNL     1      22.426  28.613  10.968  1.00  0.00     0.163 HD
HETATM   17  O1  UNL     1      21.665  25.905  12.431  1.00  0.00    -0.271 OA
BRANCH  15  18
HETATM   18  C2  UNL     1      23.750  26.975  10.903  1.00  0.00     0.022 C 
HETATM   19  C1  UNL     1      24.571  27.806   9.937  1.00  0.00     0.037 C 
HETATM   20  C3  UNL     1      23.495  25.641  10.246  1.00  0.00     0.037 C 
HETATM   21  C4  UNL     1      24.619  26.737  12.116  1.00  0.00     0.037 C 
ENDBRANCH  15  18
ENDBRANCH   5  14
ENDBRANCH   3   4
ENDBRANCH   2   3
BRANCH   2  22
HETATM   22  O2  UNL     1      20.830  29.335  16.427  1.00  0.00    -0.392 OA
ATOM     23  H2  UNL     1      21.148  29.865  17.149  1.00  0.00     0.210 HD
ENDBRANCH   2  22
ENDBRANCH   1   2
BRANCH   1  24
HETATM   24  C18 UNL     1      22.436  31.578  16.016  1.00  0.00     0.066 C 
BRANCH  24  25
HETATM   25  C19 UNL     1      23.121  32.848  15.660  1.00  0.00    -0.056 A 
HETATM   26  C20 UNL     1      23.820  32.960  14.498  1.00  0.00     0.007 A 
HETATM   27  C21 UNL     1      24.465  34.126  14.138  1.00  0.00     0.001 A 
HETATM   28  C22 UNL     1      24.403  35.222  14.985  1.00  0.00     0.000 A 
HETATM   29  C23 UNL     1      23.690  35.101  16.167  1.00  0.00     0.001 A 
HETATM   30  C24 UNL     1      23.051  33.945  16.525  1.00  0.00     0.007 A 
ENDBRANCH  24  25
ENDBRANCH   1  24
BRANCH   1  31
HETATM   31  N3  UNL     1      20.167  32.094  16.304  1.00  0.00    -0.352 N 
HETATM   32  C25 UNL     1      19.273  33.119  15.945  1.00  0.00     0.241 C 
HETATM   33  O3  UNL     1      19.267  33.503  14.741  1.00  0.00    -0.271 OA
ATOM     34  H3  UNL     1      20.186  31.770  17.271  1.00  0.00     0.163 HD
BRANCH  32  35
HETATM   35  C26 UNL     1      18.348  33.742  16.960  1.00  0.00     0.185 C 
BRANCH  35  36
HETATM   36  C27 UNL     1      16.906  33.432  16.617  1.00  0.00     0.134 C 
BRANCH  36  37
HETATM   37  C28 UNL     1      15.960  34.392  17.252  1.00  0.00     0.233 C 
HETATM   38  N4  UNL     1      15.240  35.276  16.410  1.00  0.00    -0.062 NA
HETATM   39  O4  UNL     1      15.819  34.401  18.503  1.00  0.00    -0.277 OA
ENDBRANCH  36  37
ENDBRANCH  35  36
BRANCH  35  40
HETATM   40  N5  UNL     1      18.518  35.168  16.941  1.00  0.00    -0.342 N 
HETATM   41  C29 UNL     1      18.936  35.930  18.061  1.00  0.00     0.268 C 
HETATM   42  O5  UNL     1      19.173  35.330  19.124  1.00  0.00    -0.266 OA
ATOM     43  H5  UNL     1      18.327  35.661  16.069  1.00  0.00     0.163 HD
BRANCH  41  44
HETATM   44  C30 UNL     1      19.094  37.391  17.991  1.00  0.00     0.101 A 
HETATM   45  C31 UNL     1      20.199  37.982  18.564  1.00  0.00     0.036 A 
HETATM   46  C32 UNL     1      20.438  39.339  18.556  1.00  0.00     0.016 A 
HETATM   47  C33 UNL     1      19.484  40.129  17.922  1.00  0.00    -0.009 A 
HETATM   48  C34 UNL     1      19.661  41.505  17.878  1.00  0.00     0.013 A 
HETATM   49  C38 UNL     1      18.377  39.515  17.351  1.00  0.00     0.043 A 
HETATM   50  C35 UNL     1      18.697  42.257  17.245  1.00  0.00     0.001 A 
HETATM   51  C36 UNL     1      17.587  41.663  16.669  1.00  0.00     0.002 A 
HETATM   52  C37 UNL     1      17.421  40.297  16.718  1.00  0.00     0.030 A 
HETATM   53  N6  UNL     1      18.199  38.169  17.392  1.00  0.00    -0.351 N 
ATOM     54  H6  UNL     1      17.373  37.754  16.961  1.00  0.00     0.166 HD
ENDBRANCH  41  44
ENDBRANCH  35  40
ENDBRANCH  32  35
ENDBRANCH   1  31
TORSDOF 14
ENDMDL
