MODEL 5
REMARK VINA RESULT: -6.506762425      3.801      6.071
REMARK  5 active torsions:
REMARK  status: ('A' for Active; 'I' for Inactive)
REMARK    1  A    between atoms: N1_1  and  S1_4 
REMARK    2  A    between atoms: S1_4  and  C1_7 
REMARK    3  A    between atoms: C4_10  and  C5_11 
REMARK    4  A    between atoms: C5_11  and  C6_12 
REMARK    5  A    between atoms: C6_12  and  C7_13 
ROOT
HETATM    1  C1  UNL     1     -18.253   1.533 -16.270  1.00  0.00     0.079 A 
HETATM    2  C2  UNL     1     -18.304   2.567 -17.171  1.00  0.00     0.026 A 
HETATM    3  C3  UNL     1     -18.245   2.381 -18.546  1.00  0.00     0.009 A 
HETATM    4  C4  UNL     1     -18.130   1.090 -19.029  1.00  0.00    -0.058 A 
HETATM    5  C8  UNL     1     -18.080   0.038 -18.123  1.00  0.00     0.009 A 
HETATM    6  C9  UNL     1     -18.140   0.255 -16.754  1.00  0.00     0.026 A 
ENDROOT
BRANCH   1   7
HETATM    7  S1  UNL     1     -18.332   1.824 -14.540  1.00  0.00     0.256 S 
HETATM    8  O1  UNL     1     -17.790   3.194 -14.226  1.00  0.00    -0.201 OA
HETATM    9  O2  UNL     1     -17.448   0.824 -13.882  1.00  0.00    -0.201 OA
BRANCH   7  10
HETATM   10  N1  UNL     1     -19.964   1.716 -14.058  1.00  0.00    -0.324 N 
ATOM     11  H12 UNL     1     -20.300   1.932 -13.119  1.00  0.00     0.169 HD
ATOM     12  H11 UNL     1     -20.540   1.407 -14.841  1.00  0.00     0.169 HD
ENDBRANCH   7  10
ENDBRANCH   1   7
BRANCH   4  13
HETATM   13  C5  UNL     1     -18.067   0.862 -20.499  1.00  0.00     0.049 C 
BRANCH  13  14
HETATM   14  C6  UNL     1     -17.698  -0.597 -20.790  1.00  0.00     0.117 C 
BRANCH  14  15
HETATM   15  C7  UNL     1     -16.284  -0.597 -21.233  1.00  0.00     0.172 C 
HETATM   16  O3  UNL     1     -15.779   0.474 -21.621  1.00  0.00    -0.648 OA
HETATM   17  O4  UNL     1     -15.532  -1.756 -21.218  1.00  0.00    -0.648 OA
ENDBRANCH  14  15
ENDBRANCH  13  14
ENDBRANCH   4  13
TORSDOF 5
ENDMDL
