MODEL 14
REMARK VINA RESULT: -6.415508445      1.941      2.216
REMARK  5 active torsions:
REMARK  status: ('A' for Active; 'I' for Inactive)
REMARK    1  A    between atoms: N1_1  and  S1_4 
REMARK    2  A    between atoms: S1_4  and  C1_7 
REMARK    3  A    between atoms: C4_10  and  C5_11 
REMARK    4  A    between atoms: C5_11  and  C6_12 
REMARK    5  A    between atoms: C6_12  and  C7_13 
ROOT
HETATM    1  C1  UNL     1     -17.536  -0.279 -18.447  1.00  0.00     0.079 A 
HETATM    2  C2  UNL     1     -18.178  -0.626 -17.285  1.00  0.00     0.026 A 
HETATM    3  C3  UNL     1     -19.078   0.209 -16.636  1.00  0.00     0.009 A 
HETATM    4  C4  UNL     1     -19.340   1.449 -17.189  1.00  0.00    -0.058 A 
HETATM    5  C8  UNL     1     -18.695   1.807 -18.366  1.00  0.00     0.009 A 
HETATM    6  C9  UNL     1     -17.799   0.952 -18.992  1.00  0.00     0.026 A 
ENDROOT
BRANCH   1   7
HETATM    7  S1  UNL     1     -16.406  -1.374 -19.229  1.00  0.00     0.256 S 
HETATM    8  O1  UNL     1     -16.643  -2.781 -18.749  1.00  0.00    -0.201 OA
HETATM    9  O2  UNL     1     -15.038  -0.972 -18.806  1.00  0.00    -0.201 OA
BRANCH   7  10
HETATM   10  N1  UNL     1     -16.656  -1.280 -20.913  1.00  0.00    -0.324 N 
ATOM     11  H12 UNL     1     -16.015  -0.825 -21.563  1.00  0.00     0.169 HD
ATOM     12  H11 UNL     1     -17.531  -1.742 -21.163  1.00  0.00     0.169 HD
ENDBRANCH   7  10
ENDBRANCH   1   7
BRANCH   4  13
HETATM   13  C5  UNL     1     -20.302   2.363 -16.514  1.00  0.00     0.049 C 
BRANCH  13  14
HETATM   14  C6  UNL     1     -20.086   2.327 -14.997  1.00  0.00     0.117 C 
BRANCH  14  15
HETATM   15  C7  UNL     1     -19.013   3.304 -14.697  1.00  0.00     0.172 C 
HETATM   16  O3  UNL     1     -19.321   4.502 -14.543  1.00  0.00    -0.648 OA
HETATM   17  O4  UNL     1     -17.695   2.905 -14.588  1.00  0.00    -0.648 OA
ENDBRANCH  14  15
ENDBRANCH  13  14
ENDBRANCH   4  13
TORSDOF 5
ENDMDL
