MODEL 20
REMARK VINA RESULT: -6.119797800      2.371      2.619
REMARK  5 active torsions:
REMARK  status: ('A' for Active; 'I' for Inactive)
REMARK    1  A    between atoms: N1_1  and  S1_4 
REMARK    2  A    between atoms: S1_4  and  C1_7 
REMARK    3  A    between atoms: C4_10  and  C5_11 
REMARK    4  A    between atoms: C5_11  and  C6_12 
REMARK    5  A    between atoms: C6_12  and  C7_13 
ROOT
HETATM    1  C1  UNL     1     -17.512   0.007 -19.214  1.00  0.00     0.079 A 
HETATM    2  C2  UNL     1     -17.648  -0.639 -18.012  1.00  0.00     0.026 A 
HETATM    3  C3  UNL     1     -18.377  -0.122 -16.949  1.00  0.00     0.009 A 
HETATM    4  C4  UNL     1     -18.997   1.103 -17.114  1.00  0.00    -0.058 A 
HETATM    5  C8  UNL     1     -18.866   1.762 -18.329  1.00  0.00     0.009 A 
HETATM    6  C9  UNL     1     -18.129   1.221 -19.373  1.00  0.00     0.026 A 
ENDROOT
BRANCH   1   7
HETATM    7  S1  UNL     1     -16.577  -0.693 -20.527  1.00  0.00     0.256 S 
HETATM    8  O1  UNL     1     -17.384  -1.761 -21.217  1.00  0.00    -0.201 OA
HETATM    9  O2  UNL     1     -15.384  -1.344 -19.921  1.00  0.00    -0.201 OA
BRANCH   7  10
HETATM   10  N1  UNL     1     -16.193   0.552 -21.626  1.00  0.00    -0.324 N 
ATOM     11  H12 UNL     1     -16.882   1.168 -22.058  1.00  0.00     0.169 HD
ATOM     12  H11 UNL     1     -15.185   0.583 -21.781  1.00  0.00     0.169 HD
ENDBRANCH   7  10
ENDBRANCH   1   7
BRANCH   4  13
HETATM   13  C5  UNL     1     -19.787   1.680 -15.991  1.00  0.00     0.049 C 
BRANCH  13  14
HETATM   14  C6  UNL     1     -19.127   2.970 -15.491  1.00  0.00     0.117 C 
BRANCH  14  15
HETATM   15  C7  UNL     1     -18.354   2.609 -14.279  1.00  0.00     0.172 C 
HETATM   16  O3  UNL     1     -17.534   3.431 -13.827  1.00  0.00    -0.648 OA
HETATM   17  O4  UNL     1     -18.534   1.389 -13.656  1.00  0.00    -0.648 OA
ENDBRANCH  14  15
ENDBRANCH  13  14
ENDBRANCH   4  13
TORSDOF 5
ENDMDL
