MODEL 13
REMARK VINA RESULT: -6.445401050      2.322      2.820
REMARK  5 active torsions:
REMARK  status: ('A' for Active; 'I' for Inactive)
REMARK    1  A    between atoms: N1_1  and  S1_4 
REMARK    2  A    between atoms: S1_4  and  C1_7 
REMARK    3  A    between atoms: C4_10  and  C5_11 
REMARK    4  A    between atoms: C5_11  and  C6_12 
REMARK    5  A    between atoms: C6_12  and  C7_13 
ROOT
HETATM    1  C1  UNL     1     -17.550   0.016 -19.365  1.00  0.00     0.079 A 
HETATM    2  C2  UNL     1     -17.784  -0.392 -18.076  1.00  0.00     0.026 A 
HETATM    3  C3  UNL     1     -18.593   0.310 -17.191  1.00  0.00     0.009 A 
HETATM    4  C4  UNL     1     -19.193   1.475 -17.635  1.00  0.00    -0.058 A 
HETATM    5  C8  UNL     1     -18.963   1.892 -18.939  1.00  0.00     0.009 A 
HETATM    6  C9  UNL     1     -18.148   1.171 -19.800  1.00  0.00     0.026 A 
ENDROOT
BRANCH   1   7
HETATM    7  S1  UNL     1     -16.517  -0.910 -20.442  1.00  0.00     0.256 S 
HETATM    8  O1  UNL     1     -15.705   0.023 -21.300  1.00  0.00    -0.201 OA
HETATM    9  O2  UNL     1     -17.406  -1.695 -21.340  1.00  0.00    -0.201 OA
BRANCH   7  10
HETATM   10  N1  UNL     1     -15.485  -1.875 -19.488  1.00  0.00    -0.324 N 
ATOM     11  H12 UNL     1     -15.671  -2.126 -18.517  1.00  0.00     0.169 HD
ATOM     12  H11 UNL     1     -14.668  -2.156 -20.030  1.00  0.00     0.169 HD
ENDBRANCH   7  10
ENDBRANCH   1   7
BRANCH   4  13
HETATM   13  C5  UNL     1     -20.067   2.245 -16.708  1.00  0.00     0.049 C 
BRANCH  13  14
HETATM   14  C6  UNL     1     -19.674   1.960 -15.254  1.00  0.00     0.117 C 
BRANCH  14  15
HETATM   15  C7  UNL     1     -18.760   3.051 -14.840  1.00  0.00     0.172 C 
HETATM   16  O3  UNL     1     -17.541   2.809 -14.753  1.00  0.00    -0.648 OA
HETATM   17  O4  UNL     1     -19.241   4.315 -14.556  1.00  0.00    -0.648 OA
ENDBRANCH  14  15
ENDBRANCH  13  14
ENDBRANCH   4  13
TORSDOF 5
ENDMDL
