MODEL 4
REMARK VINA RESULT: -6.517833741      3.833      5.970
REMARK  5 active torsions:
REMARK  status: ('A' for Active; 'I' for Inactive)
REMARK    1  A    between atoms: N1_1  and  S1_4 
REMARK    2  A    between atoms: S1_4  and  C1_7 
REMARK    3  A    between atoms: C4_10  and  C5_11 
REMARK    4  A    between atoms: C5_11  and  C6_12 
REMARK    5  A    between atoms: C6_12  and  C7_13 
ROOT
HETATM    1  C1  UNL     1     -18.168   1.566 -16.291  1.00  0.00     0.079 A 
HETATM    2  C2  UNL     1     -18.003   0.307 -16.810  1.00  0.00     0.026 A 
HETATM    3  C3  UNL     1     -17.969   0.045 -18.174  1.00  0.00     0.009 A 
HETATM    4  C4  UNL     1     -18.108   1.108 -19.049  1.00  0.00    -0.058 A 
HETATM    5  C8  UNL     1     -18.274   2.385 -18.530  1.00  0.00     0.009 A 
HETATM    6  C9  UNL     1     -18.304   2.616 -17.162  1.00  0.00     0.026 A 
ENDROOT
BRANCH   1   7
HETATM    7  S1  UNL     1     -18.203   1.841 -14.556  1.00  0.00     0.256 S 
HETATM    8  O1  UNL     1     -17.521   3.143 -14.231  1.00  0.00    -0.201 OA
HETATM    9  O2  UNL     1     -17.422   0.747 -13.919  1.00  0.00    -0.201 OA
BRANCH   7  10
HETATM   10  N1  UNL     1     -19.834   1.894 -14.061  1.00  0.00    -0.324 N 
ATOM     11  H12 UNL     1     -20.363   1.082 -13.742  1.00  0.00     0.169 HD
ATOM     12  H11 UNL     1     -20.190   2.848 -14.131  1.00  0.00     0.169 HD
ENDBRANCH   7  10
ENDBRANCH   1   7
BRANCH   4  13
HETATM   13  C5  UNL     1     -18.074   0.855 -20.516  1.00  0.00     0.049 C 
BRANCH  13  14
HETATM   14  C6  UNL     1     -17.696  -0.604 -20.791  1.00  0.00     0.117 C 
BRANCH  14  15
HETATM   15  C7  UNL     1     -16.283  -0.601 -21.236  1.00  0.00     0.172 C 
HETATM   16  O3  UNL     1     -15.782   0.471 -21.627  1.00  0.00    -0.648 OA
HETATM   17  O4  UNL     1     -15.527  -1.757 -21.221  1.00  0.00    -0.648 OA
ENDBRANCH  14  15
ENDBRANCH  13  14
ENDBRANCH   4  13
TORSDOF 5
ENDMDL
