MODEL 16
REMARK VINA RESULT: -6.408485172      2.591      3.013
REMARK  5 active torsions:
REMARK  status: ('A' for Active; 'I' for Inactive)
REMARK    1  A    between atoms: N1_1  and  S1_4 
REMARK    2  A    between atoms: S1_4  and  C1_7 
REMARK    3  A    between atoms: C4_10  and  C5_11 
REMARK    4  A    between atoms: C5_11  and  C6_12 
REMARK    5  A    between atoms: C6_12  and  C7_13 
ROOT
HETATM    1  C1  UNL     1     -17.404   0.340 -19.437  1.00  0.00     0.079 A 
HETATM    2  C2  UNL     1     -17.344  -0.142 -18.155  1.00  0.00     0.026 A 
HETATM    3  C3  UNL     1     -17.715   0.604 -17.043  1.00  0.00     0.009 A 
HETATM    4  C4  UNL     1     -18.168   1.895 -17.242  1.00  0.00    -0.058 A 
HETATM    5  C8  UNL     1     -18.233   2.390 -18.539  1.00  0.00     0.009 A 
HETATM    6  C9  UNL     1     -17.855   1.621 -19.629  1.00  0.00     0.026 A 
ENDROOT
BRANCH   1   7
HETATM    7  S1  UNL     1     -16.922  -0.647 -20.808  1.00  0.00     0.256 S 
HETATM    8  O1  UNL     1     -16.463  -1.998 -20.329  1.00  0.00    -0.201 OA
HETATM    9  O2  UNL     1     -15.762   0.026 -21.452  1.00  0.00    -0.201 OA
BRANCH   7  10
HETATM   10  N1  UNL     1     -18.271  -0.818 -21.838  1.00  0.00    -0.324 N 
ATOM     11  H12 UNL     1     -18.248  -0.651 -22.844  1.00  0.00     0.169 HD
ATOM     12  H11 UNL     1     -19.087  -1.109 -21.300  1.00  0.00     0.169 HD
ENDBRANCH   7  10
ENDBRANCH   1   7
BRANCH   4  13
HETATM   13  C5  UNL     1     -18.574   2.717 -16.069  1.00  0.00     0.049 C 
BRANCH  13  14
HETATM   14  C6  UNL     1     -17.914   2.177 -14.795  1.00  0.00     0.117 C 
BRANCH  14  15
HETATM   15  C7  UNL     1     -18.328   3.074 -13.690  1.00  0.00     0.172 C 
HETATM   16  O3  UNL     1     -19.514   3.046 -13.310  1.00  0.00    -0.648 OA
HETATM   17  O4  UNL     1     -17.424   3.927 -13.088  1.00  0.00    -0.648 OA
ENDBRANCH  14  15
ENDBRANCH  13  14
ENDBRANCH   4  13
TORSDOF 5
ENDMDL
