MODEL 15
REMARK VINA RESULT: -6.409843561      2.591      3.234
REMARK  5 active torsions:
REMARK  status: ('A' for Active; 'I' for Inactive)
REMARK    1  A    between atoms: N1_1  and  S1_4 
REMARK    2  A    between atoms: S1_4  and  C1_7 
REMARK    3  A    between atoms: C4_10  and  C5_11 
REMARK    4  A    between atoms: C5_11  and  C6_12 
REMARK    5  A    between atoms: C6_12  and  C7_13 
ROOT
HETATM    1  C1  UNL     1     -17.398   0.320 -19.424  1.00  0.00     0.079 A 
HETATM    2  C2  UNL     1     -17.847   1.606 -19.585  1.00  0.00     0.026 A 
HETATM    3  C3  UNL     1     -18.235   2.415 -18.524  1.00  0.00     0.009 A 
HETATM    4  C4  UNL     1     -18.162   1.896 -17.244  1.00  0.00    -0.058 A 
HETATM    5  C8  UNL     1     -17.707   0.595 -17.073  1.00  0.00     0.009 A 
HETATM    6  C9  UNL     1     -17.328  -0.189 -18.152  1.00  0.00     0.026 A 
ENDROOT
BRANCH   1   7
HETATM    7  S1  UNL     1     -16.920  -0.660 -20.801  1.00  0.00     0.256 S 
HETATM    8  O1  UNL     1     -16.469  -2.017 -20.332  1.00  0.00    -0.201 OA
HETATM    9  O2  UNL     1     -15.756   0.012 -21.438  1.00  0.00    -0.201 OA
BRANCH   7  10
HETATM   10  N1  UNL     1     -18.268  -0.816 -21.834  1.00  0.00    -0.324 N 
ATOM     11  H12 UNL     1     -18.534  -0.127 -22.537  1.00  0.00     0.169 HD
ATOM     12  H11 UNL     1     -18.757  -1.691 -21.642  1.00  0.00     0.169 HD
ENDBRANCH   7  10
ENDBRANCH   1   7
BRANCH   4  13
HETATM   13  C5  UNL     1     -18.570   2.742 -16.088  1.00  0.00     0.049 C 
BRANCH  13  14
HETATM   14  C6  UNL     1     -17.920   2.223 -14.801  1.00  0.00     0.117 C 
BRANCH  14  15
HETATM   15  C7  UNL     1     -18.332   3.146 -13.716  1.00  0.00     0.172 C 
HETATM   16  O3  UNL     1     -19.538   3.209 -13.411  1.00  0.00    -0.648 OA
HETATM   17  O4  UNL     1     -17.403   3.924 -13.051  1.00  0.00    -0.648 OA
ENDBRANCH  14  15
ENDBRANCH  13  14
ENDBRANCH   4  13
TORSDOF 5
ENDMDL
