MODEL 6
REMARK VINA RESULT: -6.482648343      3.247      5.998
REMARK  5 active torsions:
REMARK  status: ('A' for Active; 'I' for Inactive)
REMARK    1  A    between atoms: N1_1  and  S1_4 
REMARK    2  A    between atoms: S1_4  and  C1_7 
REMARK    3  A    between atoms: C4_10  and  C5_11 
REMARK    4  A    between atoms: C5_11  and  C6_12 
REMARK    5  A    between atoms: C6_12  and  C7_13 
ROOT
HETATM    1  C1  UNL     1     -19.827   0.941 -16.579  1.00  0.00     0.079 A 
HETATM    2  C2  UNL     1     -18.674   0.239 -16.826  1.00  0.00     0.026 A 
HETATM    3  C3  UNL     1     -17.961   0.343 -18.014  1.00  0.00     0.009 A 
HETATM    4  C4  UNL     1     -18.436   1.197 -18.992  1.00  0.00    -0.058 A 
HETATM    5  C8  UNL     1     -19.602   1.913 -18.748  1.00  0.00     0.009 A 
HETATM    6  C9  UNL     1     -20.293   1.787 -17.552  1.00  0.00     0.026 A 
ENDROOT
BRANCH   1   7
HETATM    7  S1  UNL     1     -20.690   0.773 -15.058  1.00  0.00     0.256 S 
HETATM    8  O1  UNL     1     -20.328   1.907 -14.136  1.00  0.00    -0.201 OA
HETATM    9  O2  UNL     1     -20.229  -0.492 -14.426  1.00  0.00    -0.201 OA
BRANCH   7  10
HETATM   10  N1  UNL     1     -22.362   0.801 -15.392  1.00  0.00    -0.324 N 
ATOM     11  H12 UNL     1     -23.057   0.254 -14.884  1.00  0.00     0.169 HD
ATOM     12  H11 UNL     1     -22.554   1.438 -16.165  1.00  0.00     0.169 HD
ENDBRANCH   7  10
ENDBRANCH   1   7
BRANCH   4  13
HETATM   13  C5  UNL     1     -17.690   1.328 -20.274  1.00  0.00     0.049 C 
BRANCH  13  14
HETATM   14  C6  UNL     1     -17.917   0.088 -21.144  1.00  0.00     0.117 C 
BRANCH  14  15
HETATM   15  C7  UNL     1     -16.612  -0.608 -21.240  1.00  0.00     0.172 C 
HETATM   16  O3  UNL     1     -15.584   0.073 -21.426  1.00  0.00    -0.648 OA
HETATM   17  O4  UNL     1     -16.526  -1.982 -21.126  1.00  0.00    -0.648 OA
ENDBRANCH  14  15
ENDBRANCH  13  14
ENDBRANCH   4  13
TORSDOF 5
ENDMDL
