MODEL 18
REMARK VINA RESULT: -6.184722563      2.677      3.617
REMARK  7 active torsions:
REMARK  status: ('A' for Active; 'I' for Inactive)
REMARK    1  A    between atoms: C2_2  and  O1_3 
REMARK    2  A    between atoms: O1_3  and  C3_4 
REMARK    3  A    between atoms: C3_4  and  C4_6 
REMARK    4  A    between atoms: C4_6  and  C5_7 
REMARK    5  A    between atoms: C5_7  and  C6_8 
REMARK    6  A    between atoms: C9_11  and  S1_12 
REMARK    7  A    between atoms: S1_12  and  N1_13 
ROOT
HETATM    1  C6  UNL     1     -19.305   1.611 -17.742  1.00  0.00    -0.058 A 
HETATM    2  C7  UNL     1     -19.078   2.027 -19.055  1.00  0.00     0.009 A 
HETATM    3  C8  UNL     1     -18.242   1.249 -19.820  1.00  0.00     0.026 A 
HETATM    4  C9  UNL     1     -17.640   0.105 -19.341  1.00  0.00     0.079 A 
HETATM    5  C10 UNL     1     -17.883  -0.277 -18.043  1.00  0.00     0.026 A 
HETATM    6  C11 UNL     1     -18.715   0.470 -17.236  1.00  0.00     0.009 A 
ENDROOT
BRANCH   1   7
HETATM    7  C5  UNL     1     -20.197   2.433 -16.909  1.00  0.00     0.048 C 
BRANCH   7   8
HETATM    8  C4  UNL     1     -19.923   2.128 -15.431  1.00  0.00     0.116 C 
BRANCH   8   9
HETATM    9  C3  UNL     1     -19.128   3.253 -14.911  1.00  0.00     0.259 C 
HETATM   10  O2  UNL     1     -17.887   3.208 -14.940  1.00  0.00    -0.265 OA
BRANCH   9  11
HETATM   11  O1  UNL     1     -19.760   4.357 -14.392  1.00  0.00    -0.322 OA
BRANCH  11  12
HETATM   12  C2  UNL     1     -19.258   5.076 -13.286  1.00  0.00     0.174 C 
HETATM   13  C1  UNL     1     -19.370   6.569 -13.609  1.00  0.00     0.034 C 
ENDBRANCH  11  12
ENDBRANCH   9  11
ENDBRANCH   8   9
ENDBRANCH   7   8
ENDBRANCH   1   7
BRANCH   4  14
HETATM   14  S1  UNL     1     -16.592  -0.809 -20.403  1.00  0.00     0.256 S 
HETATM   15  O3  UNL     1     -17.406  -1.643 -21.337  1.00  0.00    -0.201 OA
HETATM   16  O4  UNL     1     -15.797   0.164 -21.202  1.00  0.00    -0.201 OA
BRANCH  14  17
HETATM   17  N1  UNL     1     -15.511  -1.778 -19.470  1.00  0.00    -0.324 N 
ATOM     18  H12 UNL     1     -15.516  -1.826 -18.450  1.00  0.00     0.169 HD
ATOM     19  H11 UNL     1     -14.878  -2.286 -20.088  1.00  0.00     0.169 HD
ENDBRANCH  14  17
ENDBRANCH   4  14
TORSDOF 7
ENDMDL
