MODEL 13
REMARK VINA RESULT: -6.420689777      3.387      6.243
REMARK  7 active torsions:
REMARK  status: ('A' for Active; 'I' for Inactive)
REMARK    1  A    between atoms: C2_2  and  O1_3 
REMARK    2  A    between atoms: O1_3  and  C3_4 
REMARK    3  A    between atoms: C3_4  and  C4_6 
REMARK    4  A    between atoms: C4_6  and  C5_7 
REMARK    5  A    between atoms: C5_7  and  C6_8 
REMARK    6  A    between atoms: C9_11  and  S1_12 
REMARK    7  A    between atoms: S1_12  and  N1_13 
ROOT
HETATM    1  C6  UNL     1     -18.321   1.949 -19.326  1.00  0.00    -0.058 A 
HETATM    2  C7  UNL     1     -19.708   1.794 -19.290  1.00  0.00     0.009 A 
HETATM    3  C8  UNL     1     -20.326   1.989 -18.078  1.00  0.00     0.026 A 
HETATM    4  C9  UNL     1     -19.635   2.322 -16.932  1.00  0.00     0.079 A 
HETATM    5  C10 UNL     1     -18.270   2.467 -17.001  1.00  0.00     0.026 A 
HETATM    6  C11 UNL     1     -17.604   2.282 -18.195  1.00  0.00     0.009 A 
ENDROOT
BRANCH   1   7
HETATM    7  C5  UNL     1     -17.644   1.743 -20.616  1.00  0.00     0.048 C 
BRANCH   7   8
HETATM    8  C4  UNL     1     -17.971   0.336 -21.134  1.00  0.00     0.116 C 
BRANCH   8   9
HETATM    9  C3  UNL     1     -16.735  -0.454 -21.007  1.00  0.00     0.259 C 
HETATM   10  O2  UNL     1     -15.659  -0.007 -21.440  1.00  0.00    -0.265 OA
BRANCH   9  11
HETATM   11  O1  UNL     1     -16.770  -1.690 -20.410  1.00  0.00    -0.322 OA
BRANCH  11  12
HETATM   12  C2  UNL     1     -16.433  -1.895 -19.054  1.00  0.00     0.174 C 
HETATM   13  C1  UNL     1     -17.631  -1.461 -18.204  1.00  0.00     0.034 C 
ENDBRANCH  11  12
ENDBRANCH   9  11
ENDBRANCH   8   9
ENDBRANCH   7   8
ENDBRANCH   1   7
BRANCH   4  14
HETATM   14  S1  UNL     1     -20.524   2.547 -15.442  1.00  0.00     0.256 S 
HETATM   15  O3  UNL     1     -20.087   3.803 -14.764  1.00  0.00    -0.201 OA
HETATM   16  O4  UNL     1     -21.966   2.670 -15.790  1.00  0.00    -0.201 OA
BRANCH  14  17
HETATM   17  N1  UNL     1     -20.313   1.171 -14.420  1.00  0.00    -0.324 N 
ATOM     18  H12 UNL     1     -20.742   0.261 -14.587  1.00  0.00     0.169 HD
ATOM     19  H11 UNL     1     -19.703   1.410 -13.638  1.00  0.00     0.169 HD
ENDBRANCH  14  17
ENDBRANCH   4  14
TORSDOF 7
ENDMDL
