MODEL 12
REMARK VINA RESULT: -6.447434344      3.526      6.246
REMARK  7 active torsions:
REMARK  status: ('A' for Active; 'I' for Inactive)
REMARK    1  A    between atoms: C2_2  and  O1_3 
REMARK    2  A    between atoms: O1_3  and  C3_4 
REMARK    3  A    between atoms: C3_4  and  C4_6 
REMARK    4  A    between atoms: C4_6  and  C5_7 
REMARK    5  A    between atoms: C5_7  and  C6_8 
REMARK    6  A    between atoms: C9_11  and  S1_12 
REMARK    7  A    between atoms: S1_12  and  N1_13 
ROOT
HETATM    1  C6  UNL     1     -18.372   1.957 -19.323  1.00  0.00    -0.058 A 
HETATM    2  C7  UNL     1     -17.619   2.305 -18.201  1.00  0.00     0.009 A 
HETATM    3  C8  UNL     1     -18.303   2.490 -17.023  1.00  0.00     0.026 A 
HETATM    4  C9  UNL     1     -19.670   2.345 -16.922  1.00  0.00     0.079 A 
HETATM    5  C10 UNL     1     -20.383   2.002 -18.046  1.00  0.00     0.026 A 
HETATM    6  C11 UNL     1     -19.742   1.806 -19.251  1.00  0.00     0.009 A 
ENDROOT
BRANCH   1   7
HETATM    7  C5  UNL     1     -17.655   1.757 -20.592  1.00  0.00     0.048 C 
BRANCH   7   8
HETATM    8  C4  UNL     1     -17.987   0.363 -21.139  1.00  0.00     0.116 C 
BRANCH   8   9
HETATM    9  C3  UNL     1     -16.756  -0.436 -21.024  1.00  0.00     0.259 C 
HETATM   10  O2  UNL     1     -15.681   0.003 -21.466  1.00  0.00    -0.265 OA
BRANCH   9  11
HETATM   11  O1  UNL     1     -16.795  -1.673 -20.427  1.00  0.00    -0.322 OA
BRANCH  11  12
HETATM   12  C2  UNL     1     -16.460  -1.880 -19.071  1.00  0.00     0.174 C 
HETATM   13  C1  UNL     1     -17.654  -1.435 -18.222  1.00  0.00     0.034 C 
ENDBRANCH  11  12
ENDBRANCH   9  11
ENDBRANCH   8   9
ENDBRANCH   7   8
ENDBRANCH   1   7
BRANCH   4  14
HETATM   14  S1  UNL     1     -20.438   2.604 -15.372  1.00  0.00     0.256 S 
HETATM   15  O3  UNL     1     -21.918   2.713 -15.541  1.00  0.00    -0.201 OA
HETATM   16  O4  UNL     1     -20.143   1.420 -14.518  1.00  0.00    -0.201 OA
BRANCH  14  17
HETATM   17  N1  UNL     1     -19.782   4.012 -14.619  1.00  0.00    -0.324 N 
ATOM     18  H12 UNL     1     -19.210   4.707 -15.100  1.00  0.00     0.169 HD
ATOM     19  H11 UNL     1     -20.051   4.037 -13.635  1.00  0.00     0.169 HD
ENDBRANCH  14  17
ENDBRANCH   4  14
TORSDOF 7
ENDMDL
