MODEL 8
REMARK VINA RESULT: -5.383149826      2.167      4.648
REMARK  3 active torsions:
REMARK  status: ('A' for Active; 'I' for Inactive)
REMARK    1  A    between atoms: O1_2  and  C2_3 
REMARK    2  A    between atoms: C5_10  and  C6_11 
REMARK    3  A    between atoms: C6_11  and  C7_12 
ROOT
HETATM    1  C2  UNL     1      48.354  23.576  40.641  1.00  0.00     0.165 A 
HETATM    2  N1  UNL     1      47.411  24.368  41.135  1.00  0.00    -0.344 N 
ATOM      3  H1  UNL     1      46.450  24.027  41.129  1.00  0.00     0.167 HD
HETATM    4  C3  UNL     1      47.641  25.594  41.646  1.00  0.00     0.107 A 
HETATM    5  C4  UNL     1      48.965  26.041  41.643  1.00  0.00     0.105 A 
HETATM    6  N2  UNL     1      49.918  25.242  41.142  1.00  0.00    -0.364 N 
ATOM      7  H2  UNL     1      50.882  25.575  41.142  1.00  0.00     0.165 HD
HETATM    8  C5  UNL     1      49.660  24.020  40.639  1.00  0.00     0.061 A 
ENDROOT
BRANCH   8   9
HETATM    9  C6  UNL     1      50.742  23.147  40.101  1.00  0.00     0.065 C 
BRANCH   9  10
HETATM   10  C7  UNL     1      52.025  23.537  40.810  1.00  0.00    -0.017 C 
HETATM   11  C8  UNL     1      53.125  23.772  39.788  1.00  0.00     0.010 C 
HETATM   12  C9  UNL     1      52.412  22.402  41.722  1.00  0.00     0.010 C 
ENDBRANCH   9  10
ENDBRANCH   8   9
BRANCH   1  13
HETATM   13  O1  UNL     1      48.114  22.310  40.115  1.00  0.00    -0.339 OA
HETATM   14  C1  UNL     1      47.044  21.497  40.546  1.00  0.00     0.211 C 
ENDBRANCH   1  13
TORSDOF 3
ENDMDL
