MODEL 6
REMARK VINA RESULT: -5.429064300      1.367      1.784
REMARK  3 active torsions:
REMARK  status: ('A' for Active; 'I' for Inactive)
REMARK    1  A    between atoms: O1_2  and  C2_3 
REMARK    2  A    between atoms: C5_10  and  C6_11 
REMARK    3  A    between atoms: C6_11  and  C7_12 
ROOT
HETATM    1  C2  UNL     1      50.751  24.392  40.159  1.00  0.00     0.165 A 
HETATM    2  N1  UNL     1      51.945  23.831  40.300  1.00  0.00    -0.344 N 
ATOM      3  H1  UNL     1      52.632  23.981  39.561  1.00  0.00     0.167 HD
HETATM    4  C3  UNL     1      52.310  23.077  41.355  1.00  0.00     0.107 A 
HETATM    5  C4  UNL     1      51.352  22.884  42.354  1.00  0.00     0.105 A 
HETATM    6  N2  UNL     1      50.144  23.449  42.212  1.00  0.00    -0.364 N 
ATOM      7  H2  UNL     1      49.449  23.304  42.945  1.00  0.00     0.165 HD
HETATM    8  C5  UNL     1      49.807  24.200  41.147  1.00  0.00     0.061 A 
ENDROOT
BRANCH   8   9
HETATM    9  C6  UNL     1      48.461  24.827  41.023  1.00  0.00     0.065 C 
BRANCH   9  10
HETATM   10  C7  UNL     1      48.602  26.277  41.444  1.00  0.00    -0.017 C 
HETATM   11  C8  UNL     1      48.443  26.392  42.951  1.00  0.00     0.010 C 
HETATM   12  C9  UNL     1      47.518  27.066  40.756  1.00  0.00     0.010 C 
ENDBRANCH   9  10
ENDBRANCH   8   9
BRANCH   1  13
HETATM   13  O1  UNL     1      50.377  25.172  39.068  1.00  0.00    -0.339 OA
HETATM   14  C1  UNL     1      51.311  25.679  38.140  1.00  0.00     0.211 C 
ENDBRANCH   1  13
TORSDOF 3
ENDMDL
