MODEL 1
REMARK VINA RESULT: -5.938565538      0.000      0.000
REMARK  3 active torsions:
REMARK  status: ('A' for Active; 'I' for Inactive)
REMARK    1  A    between atoms: O1_2  and  C2_3 
REMARK    2  A    between atoms: C5_10  and  C6_11 
REMARK    3  A    between atoms: C6_11  and  C7_12 
ROOT
HETATM    1  C2  UNL     1      51.789  24.124  39.894  1.00  0.00     0.165 A 
HETATM    2  N1  UNL     1      52.624  23.349  40.574  1.00  0.00    -0.344 N 
ATOM      3  H1  UNL     1      53.549  23.182  40.178  1.00  0.00     0.167 HD
HETATM    4  C3  UNL     1      52.329  22.768  41.754  1.00  0.00     0.107 A 
HETATM    5  C4  UNL     1      51.055  23.009  42.275  1.00  0.00     0.105 A 
HETATM    6  N2  UNL     1      50.211  23.791  41.588  1.00  0.00    -0.364 N 
ATOM      7  H2  UNL     1      49.282  23.962  41.974  1.00  0.00     0.165 HD
HETATM    8  C5  UNL     1      50.532  24.360  40.412  1.00  0.00     0.061 A 
ENDROOT
BRANCH   8   9
HETATM    9  C6  UNL     1      49.576  25.237  39.676  1.00  0.00     0.065 C 
BRANCH   9  10
HETATM   10  C7  UNL     1      48.209  25.030  40.298  1.00  0.00    -0.017 C 
HETATM   11  C8  UNL     1      47.388  24.088  39.432  1.00  0.00     0.010 C 
HETATM   12  C9  UNL     1      47.529  26.372  40.376  1.00  0.00     0.010 C 
ENDBRANCH   9  10
ENDBRANCH   8   9
BRANCH   1  13
HETATM   13  O1  UNL     1      52.096  24.724  38.676  1.00  0.00    -0.339 OA
HETATM   14  C1  UNL     1      52.934  24.116  37.718  1.00  0.00     0.211 C 
ENDBRANCH   1  13
TORSDOF 3
ENDMDL
