MODEL 10
REMARK VINA RESULT: -5.346104904      1.088      1.459
REMARK  3 active torsions:
REMARK  status: ('A' for Active; 'I' for Inactive)
REMARK    1  A    between atoms: O1_2  and  C2_3 
REMARK    2  A    between atoms: C5_10  and  C6_11 
REMARK    3  A    between atoms: C6_11  and  C7_12 
ROOT
HETATM    1  C2  UNL     1      51.648  23.744  40.595  1.00  0.00     0.165 A 
HETATM    2  N1  UNL     1      52.626  22.863  40.765  1.00  0.00    -0.344 N 
ATOM      3  H1  UNL     1      53.394  22.868  40.094  1.00  0.00     0.167 HD
HETATM    4  C3  UNL     1      52.671  21.962  41.766  1.00  0.00     0.107 A 
HETATM    5  C4  UNL     1      51.606  21.973  42.672  1.00  0.00     0.105 A 
HETATM    6  N2  UNL     1      50.617  22.861  42.500  1.00  0.00    -0.364 N 
ATOM      7  H2  UNL     1      49.843  22.863  43.165  1.00  0.00     0.165 HD
HETATM    8  C5  UNL     1      50.599  23.752  41.491  1.00  0.00     0.061 A 
ENDROOT
BRANCH   8   9
HETATM    9  C6  UNL     1      49.493  24.738  41.333  1.00  0.00     0.065 C 
BRANCH   9  10
HETATM   10  C7  UNL     1      48.741  24.369  40.069  1.00  0.00    -0.017 C 
HETATM   11  C8  UNL     1      47.753  25.470  39.720  1.00  0.00     0.010 C 
HETATM   12  C9  UNL     1      48.000  23.084  40.330  1.00  0.00     0.010 C 
ENDBRANCH   9  10
ENDBRANCH   8   9
BRANCH   1  13
HETATM   13  O1  UNL     1      51.606  24.674  39.561  1.00  0.00    -0.339 OA
HETATM   14  C1  UNL     1      52.363  24.534  38.379  1.00  0.00     0.211 C 
ENDBRANCH   1  13
TORSDOF 3
ENDMDL
