MODEL 5
REMARK VINA RESULT: -7.258917483      3.253      6.506
REMARK  6 active torsions:
REMARK  status: ('A' for Active; 'I' for Inactive)
REMARK    1  A    between atoms: C2_2  and  O1_3 
REMARK    2  A    between atoms: O1_3  and  C3_4 
REMARK    3  A    between atoms: C3_4  and  C4_6 
REMARK    4  A    between atoms: C9_13  and  C10_14 
REMARK    5  A    between atoms: C10_14  and  O4_16 
REMARK    6  A    between atoms: C12_18  and  C13_19 
ROOT
HETATM    1  C4  UNL     1      48.386  12.377 -22.357  1.00  0.00     0.052 C 
HETATM    2  C5  UNL     1      47.361  11.713 -22.811  1.00  0.00     0.018 C 
HETATM    3  C6  UNL     1      46.311  12.349 -23.683  1.00  0.00     0.069 C 
HETATM    4  N1  UNL     1      47.048  10.423 -22.268  1.00  0.00    -0.362 N 
ATOM      5  H1  UNL     1      46.253   9.882 -22.607  1.00  0.00     0.165 HD
HETATM    6  C7  UNL     1      47.898   9.928 -21.231  1.00  0.00     0.018 C 
HETATM    7  C8  UNL     1      47.567   8.617 -20.611  1.00  0.00     0.069 C 
HETATM    8  C9  UNL     1      48.968  10.564 -20.781  1.00  0.00     0.052 C 
HETATM    9  C12 UNL     1      49.522  11.599 -21.699  1.00  0.00     0.102 C 
ENDROOT
BRANCH   9  10
HETATM   10  C13 UNL     1      50.233  10.989 -22.919  1.00  0.00    -0.021 A 
HETATM   11  C14 UNL     1      49.721   9.755 -23.396  1.00  0.00     0.010 A 
HETATM   12  C15 UNL     1      50.302   9.151 -24.484  1.00  0.00     0.002 A 
HETATM   13  C16 UNL     1      51.373   9.707 -25.132  1.00  0.00     0.026 A 
HETATM   14  C17 UNL     1      51.858  10.892 -24.664  1.00  0.00     0.056 A 
HETATM   15 CL1  UNL     1      53.232  11.636 -25.470  1.00  0.00    -0.083 Cl
HETATM   16  C18 UNL     1      51.279  11.536 -23.547  1.00  0.00     0.063 A 
HETATM   17 CL2  UNL     1      52.065  13.028 -23.147  1.00  0.00    -0.082 Cl
ENDBRANCH   9  10
BRANCH   1  18
HETATM   18  C3  UNL     1      48.592  13.783 -22.622  1.00  0.00     0.292 C 
HETATM   19  O2  UNL     1      48.376  14.688 -21.779  1.00  0.00    -0.259 OA
BRANCH  18  20
HETATM   20  O1  UNL     1      49.050  14.194 -23.863  1.00  0.00    -0.318 OA
BRANCH  20  21
HETATM   21  C2  UNL     1      49.018  15.542 -24.231  1.00  0.00     0.174 C 
HETATM   22  C1  UNL     1      50.437  16.054 -24.296  1.00  0.00     0.034 C 
ENDBRANCH  20  21
ENDBRANCH  18  20
ENDBRANCH   1  18
BRANCH   8  23
HETATM   23  C10 UNL     1      49.740  10.032 -19.674  1.00  0.00     0.291 C 
HETATM   24  O3  UNL     1      50.463   8.998 -19.925  1.00  0.00    -0.260 OA
BRANCH  23  25
HETATM   25  O4  UNL     1      49.785  10.517 -18.399  1.00  0.00    -0.323 OA
HETATM   26  C11 UNL     1      49.008  11.645 -18.055  1.00  0.00     0.213 C 
ENDBRANCH  23  25
ENDBRANCH   8  23
TORSDOF 6
ENDMDL
