MODEL 4
REMARK VINA RESULT: -7.289344804      1.579      1.712
REMARK  6 active torsions:
REMARK  status: ('A' for Active; 'I' for Inactive)
REMARK    1  A    between atoms: C2_2  and  O1_3 
REMARK    2  A    between atoms: O1_3  and  C3_4 
REMARK    3  A    between atoms: C3_4  and  C4_6 
REMARK    4  A    between atoms: C9_13  and  C10_14 
REMARK    5  A    between atoms: C10_14  and  O4_16 
REMARK    6  A    between atoms: C12_18  and  C13_19 
ROOT
HETATM    1  C4  UNL     1      48.417  11.666 -23.996  1.00  0.00     0.052 C 
HETATM    2  C5  UNL     1      47.550  11.653 -23.024  1.00  0.00     0.018 C 
HETATM    3  C6  UNL     1      47.861  11.064 -21.674  1.00  0.00     0.069 C 
HETATM    4  N1  UNL     1      46.173  11.950 -23.292  1.00  0.00    -0.362 N 
ATOM      5  H1  UNL     1      45.474  11.950 -22.548  1.00  0.00     0.165 HD
HETATM    6  C7  UNL     1      45.820  12.247 -24.644  1.00  0.00     0.018 C 
HETATM    7  C8  UNL     1      44.390  12.506 -24.961  1.00  0.00     0.069 C 
HETATM    8  C9  UNL     1      46.687  12.307 -25.642  1.00  0.00     0.052 C 
HETATM    9  C12 UNL     1      48.108  12.503 -25.235  1.00  0.00     0.102 C 
ENDROOT
BRANCH   9  10
HETATM   10  C13 UNL     1      48.388  13.928 -24.730  1.00  0.00    -0.021 A 
HETATM   11  C14 UNL     1      47.313  14.590 -24.082  1.00  0.00     0.010 A 
HETATM   12  C15 UNL     1      47.490  15.864 -23.601  1.00  0.00     0.002 A 
HETATM   13  C16 UNL     1      48.683  16.526 -23.727  1.00  0.00     0.026 A 
HETATM   14  C17 UNL     1      49.708  15.879 -24.352  1.00  0.00     0.056 A 
HETATM   15 CL1  UNL     1      51.255  16.696 -24.532  1.00  0.00    -0.083 Cl
HETATM   16  C18 UNL     1      49.555  14.568 -24.856  1.00  0.00     0.063 A 
HETATM   17 CL2  UNL     1      50.997  13.960 -25.601  1.00  0.00    -0.082 Cl
ENDBRANCH   9  10
BRANCH   1  18
HETATM   18  C3  UNL     1      49.739  11.092 -23.878  1.00  0.00     0.292 C 
HETATM   19  O2  UNL     1      50.663  11.611 -23.205  1.00  0.00    -0.259 OA
BRANCH  18  20
HETATM   20  O1  UNL     1      50.039   9.907 -24.528  1.00  0.00    -0.318 OA
BRANCH  20  21
HETATM   21  C2  UNL     1      51.065   9.848 -25.477  1.00  0.00     0.174 C 
HETATM   22  C1  UNL     1      50.440   9.726 -26.847  1.00  0.00     0.034 C 
ENDBRANCH  20  21
ENDBRANCH  18  20
ENDBRANCH   1  18
BRANCH   8  23
HETATM   23  C10 UNL     1      46.244  12.542 -27.002  1.00  0.00     0.291 C 
HETATM   24  O3  UNL     1      46.158  13.771 -27.372  1.00  0.00    -0.260 OA
BRANCH  23  25
HETATM   25  O4  UNL     1      45.913  11.597 -27.931  1.00  0.00    -0.323 OA
HETATM   26  C11 UNL     1      46.278  11.790 -29.281  1.00  0.00     0.213 C 
ENDBRANCH  23  25
ENDBRANCH   8  23
TORSDOF 6
ENDMDL
