MODEL 3
REMARK VINA RESULT: -7.342986049      2.540      5.253
REMARK  6 active torsions:
REMARK  status: ('A' for Active; 'I' for Inactive)
REMARK    1  A    between atoms: C2_2  and  O1_3 
REMARK    2  A    between atoms: O1_3  and  C3_4 
REMARK    3  A    between atoms: C3_4  and  C4_6 
REMARK    4  A    between atoms: C9_13  and  C10_14 
REMARK    5  A    between atoms: C10_14  and  O4_16 
REMARK    6  A    between atoms: C12_18  and  C13_19 
ROOT
HETATM    1  C4  UNL     1      48.679  13.788 -24.319  1.00  0.00     0.052 C 
HETATM    2  C5  UNL     1      49.852  13.221 -24.317  1.00  0.00     0.018 C 
HETATM    3  C6  UNL     1      50.267  12.223 -25.365  1.00  0.00     0.069 C 
HETATM    4  N1  UNL     1      50.690  13.319 -23.157  1.00  0.00    -0.362 N 
ATOM      5  H1  UNL     1      51.614  12.887 -23.131  1.00  0.00     0.165 HD
HETATM    6  C7  UNL     1      50.177  14.047 -22.040  1.00  0.00     0.018 C 
HETATM    7  C8  UNL     1      51.001  14.120 -20.804  1.00  0.00     0.069 C 
HETATM    8  C9  UNL     1      49.007  14.666 -22.032  1.00  0.00     0.052 C 
HETATM    9  C12 UNL     1      48.439  14.965 -23.377  1.00  0.00     0.102 C 
ENDROOT
BRANCH   9  10
HETATM   10  C13 UNL     1      49.185  16.101 -24.096  1.00  0.00    -0.021 A 
HETATM   11  C14 UNL     1      50.602  16.048 -24.058  1.00  0.00     0.010 A 
HETATM   12  C15 UNL     1      51.337  17.026 -24.682  1.00  0.00     0.002 A 
HETATM   13  C16 UNL     1      50.740  18.065 -25.346  1.00  0.00     0.026 A 
HETATM   14  C17 UNL     1      49.378  18.106 -25.375  1.00  0.00     0.056 A 
HETATM   15 CL1  UNL     1      48.576  19.424 -26.219  1.00  0.00    -0.083 Cl
HETATM   16  C18 UNL     1      48.596  17.113 -24.743  1.00  0.00     0.063 A 
HETATM   17 CL2  UNL     1      46.893  17.380 -24.922  1.00  0.00    -0.082 Cl
ENDBRANCH   9  10
BRANCH   1  18
HETATM   18  C3  UNL     1      47.664  13.490 -25.305  1.00  0.00     0.292 C 
HETATM   19  O2  UNL     1      47.488  14.167 -26.347  1.00  0.00    -0.259 OA
BRANCH  18  20
HETATM   20  O1  UNL     1      46.821  12.406 -25.123  1.00  0.00    -0.318 OA
BRANCH  20  21
HETATM   21  C2  UNL     1      45.604  12.321 -25.808  1.00  0.00     0.174 C 
HETATM   22  C1  UNL     1      44.487  12.614 -24.834  1.00  0.00     0.034 C 
ENDBRANCH  20  21
ENDBRANCH  18  20
ENDBRANCH   1  18
BRANCH   8  23
HETATM   23  C10 UNL     1      48.520  15.324 -20.834  1.00  0.00     0.291 C 
HETATM   24  O3  UNL     1      48.296  14.569 -19.818  1.00  0.00    -0.260 OA
BRANCH  23  25
HETATM   25  O4  UNL     1      48.280  16.658 -20.672  1.00  0.00    -0.323 OA
HETATM   26  C11 UNL     1      46.951  17.115 -20.532  1.00  0.00     0.213 C 
ENDBRANCH  23  25
ENDBRANCH   8  23
TORSDOF 6
ENDMDL
