MODEL 2
REMARK VINA RESULT: -7.347079854      2.736      5.369
REMARK  6 active torsions:
REMARK  status: ('A' for Active; 'I' for Inactive)
REMARK    1  A    between atoms: C2_2  and  O1_3 
REMARK    2  A    between atoms: O1_3  and  C3_4 
REMARK    3  A    between atoms: C3_4  and  C4_6 
REMARK    4  A    between atoms: C9_13  and  C10_14 
REMARK    5  A    between atoms: C10_14  and  O4_16 
REMARK    6  A    between atoms: C12_18  and  C13_19 
ROOT
HETATM    1  C4  UNL     1      47.744  14.266 -24.271  1.00  0.00     0.052 C 
HETATM    2  C5  UNL     1      48.754  13.447 -24.191  1.00  0.00     0.018 C 
HETATM    3  C6  UNL     1      48.954  12.317 -25.165  1.00  0.00     0.069 C 
HETATM    4  N1  UNL     1      49.562  13.423 -23.006  1.00  0.00    -0.362 N 
ATOM      5  H1  UNL     1      50.360  12.793 -22.919  1.00  0.00     0.165 HD
HETATM    6  C7  UNL     1      49.202  14.318 -21.952  1.00  0.00     0.018 C 
HETATM    7  C8  UNL     1      49.989  14.278 -20.690  1.00  0.00     0.069 C 
HETATM    8  C9  UNL     1      48.207  15.188 -22.024  1.00  0.00     0.052 C 
HETATM    9  C12 UNL     1      47.758  15.524 -23.405  1.00  0.00     0.102 C 
ENDROOT
BRANCH   9  10
HETATM   10  C13 UNL     1      48.765  16.411 -24.156  1.00  0.00    -0.021 A 
HETATM   11  C14 UNL     1      50.139  16.136 -23.932  1.00  0.00     0.010 A 
HETATM   12  C15 UNL     1      51.096  16.885 -24.570  1.00  0.00     0.002 A 
HETATM   13  C16 UNL     1      50.766  17.902 -25.427  1.00  0.00     0.026 A 
HETATM   14  C17 UNL     1      49.443  18.157 -25.634  1.00  0.00     0.056 A 
HETATM   15 CL1  UNL     1      48.980  19.455 -26.727  1.00  0.00    -0.083 Cl
HETATM   16  C18 UNL     1      48.436  17.403 -24.991  1.00  0.00     0.063 A 
HETATM   17 CL2  UNL     1      46.835  17.913 -25.417  1.00  0.00    -0.082 Cl
ENDBRANCH   9  10
BRANCH   1  18
HETATM   18  C3  UNL     1      46.713  14.147 -25.278  1.00  0.00     0.292 C 
HETATM   19  O2  UNL     1      45.601  13.603 -25.071  1.00  0.00    -0.259 OA
BRANCH  18  20
HETATM   20  O1  UNL     1      46.928  14.647 -26.551  1.00  0.00    -0.318 OA
BRANCH  20  21
HETATM   21  C2  UNL     1      46.025  14.389 -27.586  1.00  0.00     0.174 C 
HETATM   22  C1  UNL     1      45.379  15.692 -27.993  1.00  0.00     0.034 C 
ENDBRANCH  20  21
ENDBRANCH  18  20
ENDBRANCH   1  18
BRANCH   8  23
HETATM   23  C10 UNL     1      47.855  16.014 -20.885  1.00  0.00     0.291 C 
HETATM   24  O3  UNL     1      47.713  17.272 -21.113  1.00  0.00    -0.260 OA
BRANCH  23  25
HETATM   25  O4  UNL     1      47.653  15.596 -19.601  1.00  0.00    -0.323 OA
HETATM   26  C11 UNL     1      46.900  16.399 -18.718  1.00  0.00     0.213 C 
ENDBRANCH  23  25
ENDBRANCH   8  23
TORSDOF 6
ENDMDL
