MODEL 1
REMARK VINA RESULT: -7.438854541      0.000      0.000
REMARK  6 active torsions:
REMARK  status: ('A' for Active; 'I' for Inactive)
REMARK    1  A    between atoms: C2_2  and  O1_3 
REMARK    2  A    between atoms: O1_3  and  C3_4 
REMARK    3  A    between atoms: C3_4  and  C4_6 
REMARK    4  A    between atoms: C9_13  and  C10_14 
REMARK    5  A    between atoms: C10_14  and  O4_16 
REMARK    6  A    between atoms: C12_18  and  C13_19 
ROOT
HETATM    1  C4  UNL     1      48.847  13.166 -24.401  1.00  0.00     0.052 C 
HETATM    2  C5  UNL     1      48.103  12.978 -23.348  1.00  0.00     0.018 C 
HETATM    3  C6  UNL     1      48.683  12.649 -21.999  1.00  0.00     0.069 C 
HETATM    4  N1  UNL     1      46.686  12.805 -23.497  1.00  0.00    -0.362 N 
ATOM      5  H1  UNL     1      46.081  12.659 -22.689  1.00  0.00     0.165 HD
HETATM    6  C7  UNL     1      46.160  12.845 -24.824  1.00  0.00     0.018 C 
HETATM    7  C8  UNL     1      44.702  12.614 -25.014  1.00  0.00     0.069 C 
HETATM    8  C9  UNL     1      46.887  13.075 -25.905  1.00  0.00     0.052 C 
HETATM    9  C12 UNL     1      48.197  13.742 -25.657  1.00  0.00     0.102 C 
ENDROOT
BRANCH   9  10
HETATM   10  C13 UNL     1      48.045  15.225 -25.281  1.00  0.00    -0.021 A 
HETATM   11  C14 UNL     1      46.870  15.578 -24.569  1.00  0.00     0.010 A 
HETATM   12  C15 UNL     1      46.666  16.884 -24.196  1.00  0.00     0.002 A 
HETATM   13  C16 UNL     1      47.571  17.870 -24.493  1.00  0.00     0.026 A 
HETATM   14  C17 UNL     1      48.695  17.518 -25.179  1.00  0.00     0.056 A 
HETATM   15 CL1  UNL     1      49.879  18.756 -25.577  1.00  0.00    -0.083 Cl
HETATM   16  C18 UNL     1      48.931  16.182 -25.574  1.00  0.00     0.063 A 
HETATM   17 CL2  UNL     1      50.428  15.986 -26.427  1.00  0.00    -0.082 Cl
ENDBRANCH   9  10
BRANCH   1  18
HETATM   18  C3  UNL     1      50.287  13.046 -24.376  1.00  0.00     0.292 C 
HETATM   19  O2  UNL     1      51.046  13.902 -23.859  1.00  0.00    -0.259 OA
BRANCH  18  20
HETATM   20  O1  UNL     1      50.900  11.942 -24.945  1.00  0.00    -0.318 OA
BRANCH  20  21
HETATM   21  C2  UNL     1      52.275  11.732 -24.804  1.00  0.00     0.174 C 
HETATM   22  C1  UNL     1      52.891  11.664 -26.182  1.00  0.00     0.034 C 
ENDBRANCH  20  21
ENDBRANCH  18  20
ENDBRANCH   1  18
BRANCH   8  23
HETATM   23  C10 UNL     1      46.294  13.028 -27.228  1.00  0.00     0.291 C 
HETATM   24  O3  UNL     1      45.947  14.155 -27.740  1.00  0.00    -0.260 OA
BRANCH  23  25
HETATM   25  O4  UNL     1      46.070  11.914 -27.986  1.00  0.00    -0.323 OA
HETATM   26  C11 UNL     1      46.262  11.973 -29.383  1.00  0.00     0.213 C 
ENDBRANCH  23  25
ENDBRANCH   8  23
TORSDOF 6
ENDMDL
