MODEL 1
REMARK VINA RESULT: -11.256785720      0.000      0.000
REMARK  8 active torsions:
REMARK  status: ('A' for Active; 'I' for Inactive)
REMARK    1  A    between atoms: C2_2  and  C3_3 
REMARK    2  A    between atoms: C4_4  and  C5_5 
REMARK    3  A    between atoms: C11_11  and  C12_12 
REMARK    4  A    between atoms: N2_20  and  C18_21 
REMARK    5  A    between atoms: C23_26  and  C24_27 
REMARK    6  A    between atoms: C28_31  and  O1_32 
REMARK    7  A    between atoms: O1_32  and  C29_33 
REMARK    8  A    between atoms: C29_33  and  C30_34 
ROOT
HETATM    1  C3  UNL     1       2.931   7.969  17.523  1.00  0.00     0.047 A 
HETATM    2  C4  UNL     1       3.005   7.100  18.583  1.00  0.00     0.028 A 
HETATM    3  C11 UNL     1       3.672   7.744  19.572  1.00  0.00     0.072 A 
HETATM    4  N1  UNL     1       3.972   8.958  19.083  1.00  0.00    -0.292 N 
ATOM      5  H1  UNL     1       4.479   9.667  19.612  1.00  0.00     0.187 HD
HETATM    6  N2  UNL     1       3.549   9.142  17.860  1.00  0.00    -0.258 N 
ENDROOT
BRANCH   6   7
HETATM    7  C18 UNL     1       3.673  10.283  16.999  1.00  0.00     0.067 A 
HETATM    8  C19 UNL     1       2.509  10.935  16.584  1.00  0.00     0.032 A 
HETATM    9  C20 UNL     1       2.502  12.037  15.773  1.00  0.00     0.002 A 
HETATM   10  C21 UNL     1       3.724  12.515  15.353  1.00  0.00     0.001 A 
HETATM   11  C22 UNL     1       4.904  11.914  15.730  1.00  0.00     0.014 A 
HETATM   12  C23 UNL     1       4.861  10.787  16.561  1.00  0.00     0.003 A 
BRANCH  12  13
HETATM   13  C24 UNL     1       6.146  10.165  16.930  1.00  0.00    -0.021 A 
HETATM   14  C25 UNL     1       7.060  10.811  17.728  1.00  0.00     0.012 A 
HETATM   15  C26 UNL     1       8.278  10.215  18.060  1.00  0.00     0.004 A 
HETATM   16  C27 UNL     1       8.607   8.958  17.600  1.00  0.00     0.037 A 
HETATM   17  C28 UNL     1       7.696   8.306  16.801  1.00  0.00     0.070 A 
HETATM   18  C31 UNL     1       6.474   8.907  16.469  1.00  0.00     0.049 A 
BRANCH  17  19
HETATM   19  O1  UNL     1       7.970   7.054  16.313  1.00  0.00    -0.341 OA
BRANCH  19  20
HETATM   20  C29 UNL     1       7.292   5.900  16.672  1.00  0.00     0.288 C 
BRANCH  20  21
HETATM   21  C30 UNL     1       6.483   5.303  15.600  1.00  0.00     0.198 C 
HETATM   22  O2  UNL     1       5.579   4.460  15.825  1.00  0.00    -0.646 OA
HETATM   23  O3  UNL     1       6.711   5.677  14.285  1.00  0.00    -0.646 OA
ENDBRANCH  20  21
ENDBRANCH  19  20
ENDBRANCH  17  19
ENDBRANCH  12  13
ENDBRANCH   6   7
BRANCH   1  24
HETATM   24  C2  UNL     1       2.299   7.740  16.191  1.00  0.00     0.056 C 
HETATM   25  C1  UNL     1       3.239   7.042  15.245  1.00  0.00     0.011 C 
ENDBRANCH   1  24
BRANCH   2  26
HETATM   26  C5  UNL     1       2.463   5.754  18.638  1.00  0.00    -0.022 A 
HETATM   27  C6  UNL     1       1.094   5.521  18.443  1.00  0.00     0.012 A 
HETATM   28  C7  UNL     1       0.579   4.245  18.501  1.00  0.00     0.001 A 
HETATM   29  C8  UNL     1       1.400   3.160  18.753  1.00  0.00     0.000 A 
HETATM   30  C9  UNL     1       2.757   3.352  18.950  1.00  0.00     0.001 A 
HETATM   31  C10 UNL     1       3.229   4.636  18.883  1.00  0.00     0.012 A 
ENDBRANCH   2  26
BRANCH   3  32
HETATM   32  C12 UNL     1       4.032   7.290  20.914  1.00  0.00    -0.007 A 
HETATM   33  C13 UNL     1       5.343   7.352  21.353  1.00  0.00     0.014 A 
HETATM   34  C14 UNL     1       5.715   6.932  22.614  1.00  0.00     0.001 A 
HETATM   35  C15 UNL     1       4.775   6.430  23.489  1.00  0.00     0.000 A 
HETATM   36  C16 UNL     1       3.457   6.355  23.079  1.00  0.00     0.001 A 
HETATM   37  C17 UNL     1       3.103   6.786  21.798  1.00  0.00     0.014 A 
ENDBRANCH   3  32
TORSDOF 8
ENDMDL
