MODEL 10
REMARK VINA RESULT: -9.403190674      2.616      7.035
REMARK  8 active torsions:
REMARK  status: ('A' for Active; 'I' for Inactive)
REMARK    1  A    between atoms: C2_2  and  C3_3 
REMARK    2  A    between atoms: C4_4  and  C5_5 
REMARK    3  A    between atoms: C11_11  and  C12_12 
REMARK    4  A    between atoms: N2_20  and  C18_21 
REMARK    5  A    between atoms: C23_26  and  C24_27 
REMARK    6  A    between atoms: C28_31  and  O1_32 
REMARK    7  A    between atoms: O1_32  and  C29_33 
REMARK    8  A    between atoms: C29_33  and  C30_34 
ROOT
HETATM    1  C3  UNL     1       5.048   7.130  18.233  1.00  0.00     0.047 A 
HETATM    2  C4  UNL     1       4.903   7.863  17.082  1.00  0.00     0.028 A 
HETATM    3  C11 UNL     1       4.098   8.911  17.382  1.00  0.00     0.072 A 
HETATM    4  N1  UNL     1       3.790   8.776  18.683  1.00  0.00    -0.292 N 
ATOM      5  H1  UNL     1       3.190   9.428  19.187  1.00  0.00     0.187 HD
HETATM    6  N2  UNL     1       4.335   7.725  19.237  1.00  0.00    -0.258 N 
ENDROOT
BRANCH   6   7
HETATM    7  C18 UNL     1       4.247   7.238  20.583  1.00  0.00     0.067 A 
HETATM    8  C19 UNL     1       4.975   7.894  21.579  1.00  0.00     0.032 A 
HETATM    9  C20 UNL     1       4.962   7.527  22.898  1.00  0.00     0.002 A 
HETATM   10  C21 UNL     1       4.178   6.447  23.241  1.00  0.00     0.001 A 
HETATM   11  C22 UNL     1       3.439   5.763  22.303  1.00  0.00     0.014 A 
HETATM   12  C23 UNL     1       3.485   6.174  20.965  1.00  0.00     0.003 A 
BRANCH  12  13
HETATM   13  C24 UNL     1       2.689   5.406  19.990  1.00  0.00    -0.021 A 
HETATM   14  C25 UNL     1       2.915   4.069  19.765  1.00  0.00     0.012 A 
HETATM   15  C26 UNL     1       2.162   3.357  18.830  1.00  0.00     0.004 A 
HETATM   16  C27 UNL     1       1.165   3.968  18.099  1.00  0.00     0.037 A 
HETATM   17  C28 UNL     1       0.934   5.307  18.320  1.00  0.00     0.070 A 
HETATM   18  C31 UNL     1       1.693   6.019  19.259  1.00  0.00     0.049 A 
BRANCH  17  19
HETATM   19  O1  UNL     1      -0.042   5.968  17.620  1.00  0.00    -0.341 OA
BRANCH  19  20
HETATM   20  C29 UNL     1       0.186   7.028  16.756  1.00  0.00     0.288 C 
BRANCH  20  21
HETATM   21  C30 UNL     1      -0.538   8.263  17.092  1.00  0.00     0.198 C 
HETATM   22  O2  UNL     1      -0.979   9.048  16.217  1.00  0.00    -0.646 OA
HETATM   23  O3  UNL     1      -0.752   8.586  18.423  1.00  0.00    -0.646 OA
ENDBRANCH  20  21
ENDBRANCH  19  20
ENDBRANCH  17  19
ENDBRANCH  12  13
ENDBRANCH   6   7
BRANCH   1  24
HETATM   24  C2  UNL     1       5.835   5.878  18.431  1.00  0.00     0.056 C 
HETATM   25  C1  UNL     1       5.435   4.811  17.448  1.00  0.00     0.011 C 
ENDBRANCH   1  24
BRANCH   2  26
HETATM   26  C5  UNL     1       5.507   7.577  15.792  1.00  0.00    -0.022 A 
HETATM   27  C6  UNL     1       4.720   7.189  14.699  1.00  0.00     0.012 A 
HETATM   28  C7  UNL     1       5.295   6.912  13.478  1.00  0.00     0.001 A 
HETATM   29  C8  UNL     1       6.663   7.011  13.299  1.00  0.00     0.000 A 
HETATM   30  C9  UNL     1       7.472   7.392  14.356  1.00  0.00     0.001 A 
HETATM   31  C10 UNL     1       6.862   7.659  15.553  1.00  0.00     0.012 A 
ENDBRANCH   2  26
BRANCH   3  32
HETATM   32  C12 UNL     1       3.616  10.001  16.535  1.00  0.00    -0.007 A 
HETATM   33  C13 UNL     1       4.456  11.041  16.177  1.00  0.00     0.014 A 
HETATM   34  C14 UNL     1       4.032  12.084  15.378  1.00  0.00     0.001 A 
HETATM   35  C15 UNL     1       2.738  12.121  14.906  1.00  0.00     0.000 A 
HETATM   36  C16 UNL     1       1.875  11.095  15.247  1.00  0.00     0.001 A 
HETATM   37  C17 UNL     1       2.326  10.050  16.056  1.00  0.00     0.014 A 
ENDBRANCH   3  32
TORSDOF 8
ENDMDL
