MODEL 8
REMARK VINA RESULT: -10.021091917      2.609      7.259
REMARK  8 active torsions:
REMARK  status: ('A' for Active; 'I' for Inactive)
REMARK    1  A    between atoms: C2_2  and  C3_3 
REMARK    2  A    between atoms: C4_4  and  C5_5 
REMARK    3  A    between atoms: C11_11  and  C12_12 
REMARK    4  A    between atoms: N2_20  and  C18_21 
REMARK    5  A    between atoms: C23_26  and  C24_27 
REMARK    6  A    between atoms: C28_31  and  O1_32 
REMARK    7  A    between atoms: O1_32  and  C29_33 
REMARK    8  A    between atoms: C29_33  and  C30_34 
ROOT
HETATM    1  C3  UNL     1       4.818   8.678  18.813  1.00  0.00     0.047 A 
HETATM    2  C4  UNL     1       5.138   8.688  17.479  1.00  0.00     0.028 A 
HETATM    3  C11 UNL     1       5.723   7.497  17.205  1.00  0.00     0.072 A 
HETATM    4  N1  UNL     1       5.737   6.820  18.366  1.00  0.00    -0.292 N 
ATOM      5  H1  UNL     1       6.123   5.881  18.462  1.00  0.00     0.187 HD
HETATM    6  N2  UNL     1       5.206   7.484  19.358  1.00  0.00    -0.258 N 
ENDROOT
BRANCH   6   7
HETATM    7  C18 UNL     1       5.038   7.115  20.734  1.00  0.00     0.067 A 
HETATM    8  C19 UNL     1       5.918   7.646  21.680  1.00  0.00     0.032 A 
HETATM    9  C20 UNL     1       5.849   7.376  23.020  1.00  0.00     0.002 A 
HETATM   10  C21 UNL     1       4.846   6.528  23.438  1.00  0.00     0.001 A 
HETATM   11  C22 UNL     1       3.950   5.975  22.552  1.00  0.00     0.014 A 
HETATM   12  C23 UNL     1       4.060   6.281  21.190  1.00  0.00     0.003 A 
BRANCH  12  13
HETATM   13  C24 UNL     1       3.090   5.657  20.272  1.00  0.00    -0.021 A 
HETATM   14  C25 UNL     1       3.180   4.333  19.914  1.00  0.00     0.012 A 
HETATM   15  C26 UNL     1       2.260   3.758  19.034  1.00  0.00     0.004 A 
HETATM   16  C27 UNL     1       1.229   4.497  18.494  1.00  0.00     0.037 A 
HETATM   17  C28 UNL     1       1.134   5.824  18.849  1.00  0.00     0.070 A 
HETATM   18  C31 UNL     1       2.059   6.398  19.732  1.00  0.00     0.049 A 
BRANCH  17  19
HETATM   19  O1  UNL     1       0.130   6.608  18.341  1.00  0.00    -0.341 OA
BRANCH  19  20
HETATM   20  C29 UNL     1       0.059   7.047  17.028  1.00  0.00     0.288 C 
BRANCH  20  21
HETATM   21  C30 UNL     1      -0.061   8.504  16.872  1.00  0.00     0.198 C 
HETATM   22  O2  UNL     1      -1.024   9.042  16.270  1.00  0.00    -0.646 OA
HETATM   23  O3  UNL     1       0.915   9.329  17.407  1.00  0.00    -0.646 OA
ENDBRANCH  20  21
ENDBRANCH  19  20
ENDBRANCH  17  19
ENDBRANCH  12  13
ENDBRANCH   6   7
BRANCH   1  24
HETATM   24  C2  UNL     1       4.160   9.754  19.608  1.00  0.00     0.056 C 
HETATM   25  C1  UNL     1       5.144  10.813  20.029  1.00  0.00     0.011 C 
ENDBRANCH   1  24
BRANCH   2  26
HETATM   26  C5  UNL     1       4.885   9.765  16.538  1.00  0.00    -0.022 A 
HETATM   27  C6  UNL     1       3.801   9.707  15.651  1.00  0.00     0.012 A 
HETATM   28  C7  UNL     1       3.565  10.726  14.754  1.00  0.00     0.001 A 
HETATM   29  C8  UNL     1       4.393  11.833  14.707  1.00  0.00     0.000 A 
HETATM   30  C9  UNL     1       5.474  11.925  15.567  1.00  0.00     0.001 A 
HETATM   31  C10 UNL     1       5.673  10.892  16.444  1.00  0.00     0.012 A 
ENDBRANCH   2  26
BRANCH   3  32
HETATM   32  C12 UNL     1       6.256   6.977  15.947  1.00  0.00    -0.007 A 
HETATM   33  C13 UNL     1       6.788   5.701  15.879  1.00  0.00     0.014 A 
HETATM   34  C14 UNL     1       7.298   5.180  14.707  1.00  0.00     0.001 A 
HETATM   35  C15 UNL     1       7.293   5.929  13.549  1.00  0.00     0.000 A 
HETATM   36  C16 UNL     1       6.767   7.207  13.586  1.00  0.00     0.001 A 
HETATM   37  C17 UNL     1       6.256   7.713  14.784  1.00  0.00     0.014 A 
ENDBRANCH   3  32
TORSDOF 8
ENDMDL
