MODEL 6
REMARK VINA RESULT: -10.101018532      1.148      1.844
REMARK  8 active torsions:
REMARK  status: ('A' for Active; 'I' for Inactive)
REMARK    1  A    between atoms: C2_2  and  C3_3 
REMARK    2  A    between atoms: C4_4  and  C5_5 
REMARK    3  A    between atoms: C11_11  and  C12_12 
REMARK    4  A    between atoms: N2_20  and  C18_21 
REMARK    5  A    between atoms: C23_26  and  C24_27 
REMARK    6  A    between atoms: C28_31  and  O1_32 
REMARK    7  A    between atoms: O1_32  and  C29_33 
REMARK    8  A    between atoms: C29_33  and  C30_34 
ROOT
HETATM    1  C3  UNL     1       2.782   8.229  17.554  1.00  0.00     0.047 A 
HETATM    2  C4  UNL     1       3.040   7.370  18.592  1.00  0.00     0.028 A 
HETATM    3  C11 UNL     1       3.841   8.032  19.461  1.00  0.00     0.072 A 
HETATM    4  N1  UNL     1       4.036   9.249  18.926  1.00  0.00    -0.292 N 
ATOM      5  H1  UNL     1       4.607   9.970  19.366  1.00  0.00     0.187 HD
HETATM    6  N2  UNL     1       3.423   9.416  17.785  1.00  0.00    -0.258 N 
ENDROOT
BRANCH   6   7
HETATM    7  C18 UNL     1       3.386  10.553  16.911  1.00  0.00     0.067 A 
HETATM    8  C19 UNL     1       2.528  11.610  17.227  1.00  0.00     0.032 A 
HETATM    9  C20 UNL     1       2.415  12.749  16.476  1.00  0.00     0.002 A 
HETATM   10  C21 UNL     1       3.202  12.838  15.348  1.00  0.00     0.001 A 
HETATM   11  C22 UNL     1       4.066  11.829  14.988  1.00  0.00     0.014 A 
HETATM   12  C23 UNL     1       4.147  10.681  15.787  1.00  0.00     0.003 A 
BRANCH  12  13
HETATM   13  C24 UNL     1       5.075   9.618  15.359  1.00  0.00    -0.021 A 
HETATM   14  C25 UNL     1       5.053   9.110  14.082  1.00  0.00     0.012 A 
HETATM   15  C26 UNL     1       5.929   8.095  13.694  1.00  0.00     0.004 A 
HETATM   16  C27 UNL     1       6.848   7.566  14.576  1.00  0.00     0.037 A 
HETATM   17  C28 UNL     1       6.874   8.072  15.857  1.00  0.00     0.070 A 
HETATM   18  C31 UNL     1       5.993   9.090  16.243  1.00  0.00     0.049 A 
BRANCH  17  19
HETATM   19  O1  UNL     1       7.765   7.583  16.778  1.00  0.00    -0.341 OA
BRANCH  19  20
HETATM   20  C29 UNL     1       7.528   6.496  17.605  1.00  0.00     0.288 C 
BRANCH  20  21
HETATM   21  C30 UNL     1       7.283   5.229  16.900  1.00  0.00     0.198 C 
HETATM   22  O2  UNL     1       8.099   4.744  16.077  1.00  0.00    -0.646 OA
HETATM   23  O3  UNL     1       6.113   4.528  17.145  1.00  0.00    -0.646 OA
ENDBRANCH  20  21
ENDBRANCH  19  20
ENDBRANCH  17  19
ENDBRANCH  12  13
ENDBRANCH   6   7
BRANCH   1  24
HETATM   24  C2  UNL     1       1.953   7.980  16.339  1.00  0.00     0.056 C 
HETATM   25  C1  UNL     1       2.595   6.969  15.428  1.00  0.00     0.011 C 
ENDBRANCH   1  24
BRANCH   2  26
HETATM   26  C5  UNL     1       2.539   6.014  18.736  1.00  0.00    -0.022 A 
HETATM   27  C6  UNL     1       3.408   4.952  19.027  1.00  0.00     0.012 A 
HETATM   28  C7  UNL     1       2.934   3.666  19.158  1.00  0.00     0.001 A 
HETATM   29  C8  UNL     1       1.587   3.389  19.008  1.00  0.00     0.000 A 
HETATM   30  C9  UNL     1       0.699   4.411  18.721  1.00  0.00     0.001 A 
HETATM   31  C10 UNL     1       1.210   5.676  18.599  1.00  0.00     0.012 A 
ENDBRANCH   2  26
BRANCH   3  32
HETATM   32  C12 UNL     1       4.417   7.594  20.731  1.00  0.00    -0.007 A 
HETATM   33  C13 UNL     1       5.789   7.592  20.922  1.00  0.00     0.014 A 
HETATM   34  C14 UNL     1       6.364   7.186  22.109  1.00  0.00     0.001 A 
HETATM   35  C15 UNL     1       5.576   6.760  23.157  1.00  0.00     0.000 A 
HETATM   36  C16 UNL     1       4.202   6.751  22.996  1.00  0.00     0.001 A 
HETATM   37  C17 UNL     1       3.642   7.167  21.786  1.00  0.00     0.014 A 
ENDBRANCH   3  32
TORSDOF 8
ENDMDL
