MODEL 7
REMARK VINA RESULT: -10.097353686      1.141      1.757
REMARK  8 active torsions:
REMARK  status: ('A' for Active; 'I' for Inactive)
REMARK    1  A    between atoms: C2_2  and  C3_3 
REMARK    2  A    between atoms: C4_4  and  C5_5 
REMARK    3  A    between atoms: C11_11  and  C12_12 
REMARK    4  A    between atoms: N2_20  and  C18_21 
REMARK    5  A    between atoms: C23_26  and  C24_27 
REMARK    6  A    between atoms: C28_31  and  O1_32 
REMARK    7  A    between atoms: O1_32  and  C29_33 
REMARK    8  A    between atoms: C29_33  and  C30_34 
ROOT
HETATM    1  C3  UNL     1       2.803   8.209  17.531  1.00  0.00     0.047 A 
HETATM    2  C4  UNL     1       3.044   7.347  18.570  1.00  0.00     0.028 A 
HETATM    3  C11 UNL     1       3.846   8.000  19.447  1.00  0.00     0.072 A 
HETATM    4  N1  UNL     1       4.057   9.215  18.914  1.00  0.00    -0.292 N 
ATOM      5  H1  UNL     1       4.631   9.930  19.359  1.00  0.00     0.187 HD
HETATM    6  N2  UNL     1       3.454   9.389  17.768  1.00  0.00    -0.258 N 
ENDROOT
BRANCH   6   7
HETATM    7  C18 UNL     1       3.436  10.528  16.894  1.00  0.00     0.067 A 
HETATM    8  C19 UNL     1       2.626  11.615  17.232  1.00  0.00     0.032 A 
HETATM    9  C20 UNL     1       2.535  12.758  16.484  1.00  0.00     0.002 A 
HETATM   10  C21 UNL     1       3.295  12.818  15.336  1.00  0.00     0.001 A 
HETATM   11  C22 UNL     1       4.110  11.777  14.953  1.00  0.00     0.014 A 
HETATM   12  C23 UNL     1       4.171  10.628  15.750  1.00  0.00     0.003 A 
BRANCH  12  13
HETATM   13  C24 UNL     1       5.046   9.531  15.298  1.00  0.00    -0.021 A 
HETATM   14  C25 UNL     1       5.088   9.134  13.983  1.00  0.00     0.012 A 
HETATM   15  C26 UNL     1       5.913   8.086  13.571  1.00  0.00     0.004 A 
HETATM   16  C27 UNL     1       6.716   7.412  14.467  1.00  0.00     0.037 A 
HETATM   17  C28 UNL     1       6.678   7.806  15.786  1.00  0.00     0.070 A 
HETATM   18  C31 UNL     1       5.848   8.858  16.196  1.00  0.00     0.049 A 
BRANCH  17  19
HETATM   19  O1  UNL     1       7.453   7.171  16.723  1.00  0.00    -0.341 OA
BRANCH  19  20
HETATM   20  C29 UNL     1       7.824   5.836  16.667  1.00  0.00     0.288 C 
BRANCH  20  21
HETATM   21  C30 UNL     1       6.722   4.903  16.392  1.00  0.00     0.198 C 
HETATM   22  O2  UNL     1       5.858   4.603  17.253  1.00  0.00    -0.646 OA
HETATM   23  O3  UNL     1       6.616   4.325  15.136  1.00  0.00    -0.646 OA
ENDBRANCH  20  21
ENDBRANCH  19  20
ENDBRANCH  17  19
ENDBRANCH  12  13
ENDBRANCH   6   7
BRANCH   1  24
HETATM   24  C2  UNL     1       1.981   7.969  16.310  1.00  0.00     0.056 C 
HETATM   25  C1  UNL     1       2.605   6.932  15.417  1.00  0.00     0.011 C 
ENDBRANCH   1  24
BRANCH   2  26
HETATM   26  C5  UNL     1       2.528   5.996  18.710  1.00  0.00    -0.022 A 
HETATM   27  C6  UNL     1       1.164   5.724  18.535  1.00  0.00     0.012 A 
HETATM   28  C7  UNL     1       0.675   4.444  18.674  1.00  0.00     0.001 A 
HETATM   29  C8  UNL     1       1.518   3.393  18.989  1.00  0.00     0.000 A 
HETATM   30  C9  UNL     1       2.871   3.624  19.169  1.00  0.00     0.001 A 
HETATM   31  C10 UNL     1       3.318   4.910  19.022  1.00  0.00     0.012 A 
ENDBRANCH   2  26
BRANCH   3  32
HETATM   32  C12 UNL     1       4.407   7.555  20.720  1.00  0.00    -0.007 A 
HETATM   33  C13 UNL     1       3.582   7.120  21.743  1.00  0.00     0.014 A 
HETATM   34  C14 UNL     1       4.081   6.693  22.957  1.00  0.00     0.001 A 
HETATM   35  C15 UNL     1       5.439   6.688  23.191  1.00  0.00     0.000 A 
HETATM   36  C16 UNL     1       6.289   7.117  22.189  1.00  0.00     0.001 A 
HETATM   37  C17 UNL     1       5.762   7.544  20.968  1.00  0.00     0.014 A 
ENDBRANCH   3  32
TORSDOF 8
ENDMDL
