MODEL 9
REMARK VINA RESULT: -9.958789762      2.575      7.317
REMARK  8 active torsions:
REMARK  status: ('A' for Active; 'I' for Inactive)
REMARK    1  A    between atoms: C2_2  and  C3_3 
REMARK    2  A    between atoms: C4_4  and  C5_5 
REMARK    3  A    between atoms: C11_11  and  C12_12 
REMARK    4  A    between atoms: N2_20  and  C18_21 
REMARK    5  A    between atoms: C23_26  and  C24_27 
REMARK    6  A    between atoms: C28_31  and  O1_32 
REMARK    7  A    between atoms: O1_32  and  C29_33 
REMARK    8  A    between atoms: C29_33  and  C30_34 
ROOT
HETATM    1  C3  UNL     1       4.851   8.700  18.972  1.00  0.00     0.047 A 
HETATM    2  C4  UNL     1       5.178   8.737  17.640  1.00  0.00     0.028 A 
HETATM    3  C11 UNL     1       5.685   7.520  17.325  1.00  0.00     0.072 A 
HETATM    4  N1  UNL     1       5.647   6.802  18.460  1.00  0.00    -0.292 N 
ATOM      5  H1  UNL     1       5.969   5.837  18.524  1.00  0.00     0.187 HD
HETATM    6  N2  UNL     1       5.156   7.464  19.474  1.00  0.00    -0.258 N 
ENDROOT
BRANCH   6   7
HETATM    7  C18 UNL     1       4.955   7.058  20.836  1.00  0.00     0.067 A 
HETATM    8  C19 UNL     1       5.806   7.572  21.818  1.00  0.00     0.032 A 
HETATM    9  C20 UNL     1       5.706   7.265  23.148  1.00  0.00     0.002 A 
HETATM   10  C21 UNL     1       4.700   6.399  23.518  1.00  0.00     0.001 A 
HETATM   11  C22 UNL     1       3.832   5.862  22.595  1.00  0.00     0.014 A 
HETATM   12  C23 UNL     1       3.974   6.204  21.244  1.00  0.00     0.003 A 
BRANCH  12  13
HETATM   13  C24 UNL     1       3.033   5.596  20.286  1.00  0.00    -0.021 A 
HETATM   14  C25 UNL     1       3.115   4.270  19.932  1.00  0.00     0.012 A 
HETATM   15  C26 UNL     1       2.224   3.712  19.014  1.00  0.00     0.004 A 
HETATM   16  C27 UNL     1       1.230   4.468  18.430  1.00  0.00     0.037 A 
HETATM   17  C28 UNL     1       1.143   5.796  18.781  1.00  0.00     0.070 A 
HETATM   18  C31 UNL     1       2.039   6.354  19.702  1.00  0.00     0.049 A 
BRANCH  17  19
HETATM   19  O1  UNL     1       0.176   6.597  18.230  1.00  0.00    -0.341 OA
BRANCH  19  20
HETATM   20  C29 UNL     1       0.209   7.103  16.939  1.00  0.00     0.288 C 
BRANCH  20  21
HETATM   21  C30 UNL     1       0.002   8.555  16.842  1.00  0.00     0.198 C 
HETATM   22  O2  UNL     1      -1.011   9.058  16.297  1.00  0.00    -0.646 OA
HETATM   23  O3  UNL     1       0.951   9.416  17.371  1.00  0.00    -0.646 OA
ENDBRANCH  20  21
ENDBRANCH  19  20
ENDBRANCH  17  19
ENDBRANCH  12  13
ENDBRANCH   6   7
BRANCH   1  24
HETATM   24  C2  UNL     1       4.262   9.789  19.804  1.00  0.00     0.056 C 
HETATM   25  C1  UNL     1       5.306  10.781  20.239  1.00  0.00     0.011 C 
ENDBRANCH   1  24
BRANCH   2  26
HETATM   26  C5  UNL     1       5.003   9.862  16.738  1.00  0.00    -0.022 A 
HETATM   27  C6  UNL     1       5.932  10.912  16.708  1.00  0.00     0.012 A 
HETATM   28  C7  UNL     1       5.762  11.981  15.856  1.00  0.00     0.001 A 
HETATM   29  C8  UNL     1       4.671  12.045  15.008  1.00  0.00     0.000 A 
HETATM   30  C9  UNL     1       3.734  11.027  15.010  1.00  0.00     0.001 A 
HETATM   31  C10 UNL     1       3.939   9.981  15.871  1.00  0.00     0.012 A 
ENDBRANCH   2  26
BRANCH   3  32
HETATM   32  C12 UNL     1       6.189   7.011  16.051  1.00  0.00    -0.007 A 
HETATM   33  C13 UNL     1       6.010   7.732  14.882  1.00  0.00     0.014 A 
HETATM   34  C14 UNL     1       6.474   7.280  13.664  1.00  0.00     0.001 A 
HETATM   35  C15 UNL     1       7.140   6.076  13.573  1.00  0.00     0.000 A 
HETATM   36  C16 UNL     1       7.334   5.334  14.723  1.00  0.00     0.001 A 
HETATM   37  C17 UNL     1       6.856   5.812  15.946  1.00  0.00     0.014 A 
ENDBRANCH   3  32
TORSDOF 8
ENDMDL
