MODEL 3
REMARK VINA RESULT: -8.272586090      1.506      2.047
REMARK  7 active torsions:
REMARK  status: ('A' for Active; 'I' for Inactive)
REMARK    1  A    between atoms: C2_3  and  C3_4 
REMARK    2  A    between atoms: N3_10  and  C5_11 
REMARK    3  A    between atoms: C6_13  and  C7_14 
REMARK    4  A    between atoms: C7_14  and  O4_15 
REMARK    5  A    between atoms: O4_15  and  P1_16 
REMARK    6  A    between atoms: C8_20  and  O8_21 
REMARK    7  A    between atoms: C9_23  and  O9_24 
ROOT
HETATM    1  C5  UNL     1      14.458 -13.180 -13.479  1.00  0.00     0.262 C 
HETATM    2  O3  UNL     1      15.315 -12.661 -12.512  1.00  0.00    -0.353 OA
HETATM    3  C6  UNL     1      14.436 -11.912 -11.735  1.00  0.00     0.180 C 
HETATM    4  C8  UNL     1      13.193 -12.753 -11.549  1.00  0.00     0.182 C 
HETATM    5  C9  UNL     1      13.392 -13.829 -12.627  1.00  0.00     0.198 C 
ENDROOT
BRANCH   1   6
HETATM    6  N3  UNL     1      15.090 -14.077 -14.390  1.00  0.00    -0.299 N 
HETATM    7  C1  UNL     1      14.606 -14.695 -15.482  1.00  0.00     0.155 A 
HETATM    8  N1  UNL     1      13.274 -14.533 -15.933  1.00  0.00    -0.080 NA
HETATM    9  C2  UNL     1      15.570 -15.473 -16.060  1.00  0.00     0.152 A 
HETATM   10  N2  UNL     1      16.667 -15.323 -15.297  1.00  0.00    -0.344 N 
HETATM   11  C4  UNL     1      16.375 -14.479 -14.289  1.00  0.00     0.187 A 
ATOM     12  H2  UNL     1      17.569 -15.772 -15.455  1.00  0.00     0.167 HD
BRANCH   9  13
HETATM   13  C3  UNL     1      15.430 -16.303 -17.269  1.00  0.00     0.230 C 
HETATM   14  O1  UNL     1      15.978 -17.405 -17.378  1.00  0.00    -0.643 OA
HETATM   15  O2  UNL     1      14.654 -15.826 -18.316  1.00  0.00    -0.643 OA
ENDBRANCH   9  13
ENDBRANCH   1   6
BRANCH   5  16
HETATM   16  O9  UNL     1      12.213 -14.060 -13.329  1.00  0.00    -0.388 OA
ATOM     17  H9  UNL     1      11.788 -14.870 -13.073  1.00  0.00     0.210 HD
ENDBRANCH   5  16
BRANCH   3  18
HETATM   18  C7  UNL     1      15.014 -11.547 -10.412  1.00  0.00     0.217 C 
BRANCH  18  19
HETATM   19  O4  UNL     1      14.104 -11.570  -9.392  1.00  0.00    -0.280 OA
BRANCH  19  20
HETATM   20  P1  UNL     1      13.493 -10.037  -9.226  1.00  0.00     0.422 P 
HETATM   21  O5  UNL     1      12.719  -9.282 -10.428  1.00  0.00    -0.617 OA
HETATM   22  O6  UNL     1      12.278 -10.597  -8.489  1.00  0.00    -0.617 OA
HETATM   23  O7  UNL     1      13.916  -9.199  -7.831  1.00  0.00    -0.617 OA
ENDBRANCH  19  20
ENDBRANCH  18  19
ENDBRANCH   3  18
BRANCH   4  24
HETATM   24  O8  UNL     1      12.057 -12.042 -11.935  1.00  0.00    -0.390 OA
ATOM     25  H8  UNL     1      12.237 -11.518 -12.707  1.00  0.00     0.210 HD
ENDBRANCH   4  24
TORSDOF 7
ENDMDL
