MODEL 1
REMARK VINA RESULT: -8.955949339      0.000      0.000
REMARK  7 active torsions:
REMARK  status: ('A' for Active; 'I' for Inactive)
REMARK    1  A    between atoms: C2_3  and  C3_4 
REMARK    2  A    between atoms: N3_10  and  C5_11 
REMARK    3  A    between atoms: C6_13  and  C7_14 
REMARK    4  A    between atoms: C7_14  and  O4_15 
REMARK    5  A    between atoms: O4_15  and  P1_16 
REMARK    6  A    between atoms: C8_20  and  O8_21 
REMARK    7  A    between atoms: C9_23  and  O9_24 
ROOT
HETATM    1  C5  UNL     1      14.409 -13.174 -13.462  1.00  0.00     0.262 C 
HETATM    2  O3  UNL     1      15.255 -12.645 -12.491  1.00  0.00    -0.353 OA
HETATM    3  C6  UNL     1      14.367 -11.887 -11.732  1.00  0.00     0.180 C 
HETATM    4  C8  UNL     1      13.121 -12.726 -11.552  1.00  0.00     0.182 C 
HETATM    5  C9  UNL     1      13.333 -13.813 -12.615  1.00  0.00     0.198 C 
ENDROOT
BRANCH   1   6
HETATM    6  N3  UNL     1      15.051 -14.081 -14.356  1.00  0.00    -0.299 N 
HETATM    7  C1  UNL     1      14.585 -14.696 -15.457  1.00  0.00     0.155 A 
HETATM    8  N1  UNL     1      13.267 -14.519 -15.940  1.00  0.00    -0.080 NA
HETATM    9  C2  UNL     1      15.554 -15.487 -16.011  1.00  0.00     0.152 A 
HETATM   10  N2  UNL     1      16.634 -15.349 -15.222  1.00  0.00    -0.344 N 
HETATM   11  C4  UNL     1      16.329 -14.499 -14.224  1.00  0.00     0.187 A 
ATOM     12  H2  UNL     1      17.533 -15.809 -15.358  1.00  0.00     0.167 HD
BRANCH   9  13
HETATM   13  C3  UNL     1      15.431 -16.319 -17.220  1.00  0.00     0.230 C 
HETATM   14  O1  UNL     1      15.936 -17.444 -17.300  1.00  0.00    -0.643 OA
HETATM   15  O2  UNL     1      14.725 -15.817 -18.304  1.00  0.00    -0.643 OA
ENDBRANCH   9  13
ENDBRANCH   1   6
BRANCH   5  16
HETATM   16  O9  UNL     1      12.162 -14.051 -13.329  1.00  0.00    -0.388 OA
ATOM     17  H9  UNL     1      11.877 -14.955 -13.272  1.00  0.00     0.210 HD
ENDBRANCH   5  16
BRANCH   3  18
HETATM   18  C7  UNL     1      14.930 -11.508 -10.406  1.00  0.00     0.217 C 
BRANCH  18  19
HETATM   19  O4  UNL     1      15.303 -12.578  -9.643  1.00  0.00    -0.280 OA
BRANCH  19  20
HETATM   20  P1  UNL     1      16.259 -12.012  -8.412  1.00  0.00     0.422 P 
HETATM   21  O5  UNL     1      15.690 -11.771  -6.918  1.00  0.00    -0.617 OA
HETATM   22  O6  UNL     1      16.838 -13.411  -8.212  1.00  0.00    -0.617 OA
HETATM   23  O7  UNL     1      17.794 -11.470  -8.833  1.00  0.00    -0.617 OA
ENDBRANCH  19  20
ENDBRANCH  18  19
ENDBRANCH   3  18
BRANCH   4  24
HETATM   24  O8  UNL     1      11.991 -12.018 -11.959  1.00  0.00    -0.390 OA
ATOM     25  H8  UNL     1      11.254 -12.209 -11.390  1.00  0.00     0.210 HD
ENDBRANCH   4  24
TORSDOF 7
ENDMDL
