MODEL 4
REMARK VINA RESULT: -8.109757225      3.203      7.365
REMARK  7 active torsions:
REMARK  status: ('A' for Active; 'I' for Inactive)
REMARK    1  A    between atoms: C2_3  and  C3_4 
REMARK    2  A    between atoms: N3_10  and  C5_11 
REMARK    3  A    between atoms: C6_13  and  C7_14 
REMARK    4  A    between atoms: C7_14  and  O4_15 
REMARK    5  A    between atoms: O4_15  and  P1_16 
REMARK    6  A    between atoms: C8_20  and  O8_21 
REMARK    7  A    between atoms: C9_23  and  O9_24 
ROOT
HETATM    1  C5  UNL     1      14.217 -12.984 -12.518  1.00  0.00     0.262 C 
HETATM    2  O3  UNL     1      15.337 -13.139 -13.332  1.00  0.00    -0.353 OA
HETATM    3  C6  UNL     1      14.998 -14.280 -14.054  1.00  0.00     0.180 C 
HETATM    4  C8  UNL     1      13.547 -14.129 -14.455  1.00  0.00     0.182 C 
HETATM    5  C9  UNL     1      13.099 -12.984 -13.535  1.00  0.00     0.198 C 
ENDROOT
BRANCH   1   6
HETATM    6  N3  UNL     1      14.252 -11.813 -11.704  1.00  0.00    -0.299 N 
HETATM    7  C1  UNL     1      14.872 -11.585 -10.533  1.00  0.00     0.155 A 
HETATM    8  N1  UNL     1      15.653 -12.562  -9.870  1.00  0.00    -0.080 NA
HETATM    9  C2  UNL     1      14.632 -10.309 -10.104  1.00  0.00     0.152 A 
HETATM   10  N2  UNL     1      13.846  -9.750 -11.041  1.00  0.00    -0.344 N 
HETATM   11  C4  UNL     1      13.617 -10.660 -12.006  1.00  0.00     0.187 A 
ATOM     12  H2  UNL     1      13.483  -8.797 -11.023  1.00  0.00     0.167 HD
BRANCH   9  13
HETATM   13  C3  UNL     1      15.133  -9.682  -8.869  1.00  0.00     0.230 C 
HETATM   14  O1  UNL     1      14.668  -9.953  -7.757  1.00  0.00    -0.643 OA
HETATM   15  O2  UNL     1      16.164  -8.757  -8.964  1.00  0.00    -0.643 OA
ENDBRANCH   9  13
ENDBRANCH   1   6
BRANCH   5  16
HETATM   16  O9  UNL     1      11.858 -13.256 -12.965  1.00  0.00    -0.388 OA
ATOM     17  H9  UNL     1      11.585 -14.156 -13.098  1.00  0.00     0.210 HD
ENDBRANCH   5  16
BRANCH   3  18
HETATM   18  C7  UNL     1      15.850 -14.463 -15.262  1.00  0.00     0.217 C 
BRANCH  18  19
HETATM   19  O4  UNL     1      15.136 -14.633 -16.415  1.00  0.00    -0.280 OA
BRANCH  19  20
HETATM   20  P1  UNL     1      15.175 -16.246 -16.800  1.00  0.00     0.422 P 
HETATM   21  O5  UNL     1      14.044 -17.282 -16.290  1.00  0.00    -0.617 OA
HETATM   22  O6  UNL     1      14.594 -15.936 -18.178  1.00  0.00    -0.617 OA
HETATM   23  O7  UNL     1      16.570 -16.814 -17.549  1.00  0.00    -0.617 OA
ENDBRANCH  19  20
ENDBRANCH  18  19
ENDBRANCH   3  18
BRANCH   4  24
HETATM   24  O8  UNL     1      12.810 -15.242 -14.056  1.00  0.00    -0.390 OA
ATOM     25  H8  UNL     1      12.811 -15.906 -14.736  1.00  0.00     0.210 HD
ENDBRANCH   4  24
TORSDOF 7
ENDMDL
