MODEL 18
REMARK VINA RESULT: -7.189306809      1.071      1.685
REMARK  7 active torsions:
REMARK  status: ('A' for Active; 'I' for Inactive)
REMARK    1  A    between atoms: C2_3  and  C3_4 
REMARK    2  A    between atoms: N3_10  and  C5_11 
REMARK    3  A    between atoms: C6_13  and  C7_14 
REMARK    4  A    between atoms: C7_14  and  O4_15 
REMARK    5  A    between atoms: O4_15  and  P1_16 
REMARK    6  A    between atoms: C8_20  and  O8_21 
REMARK    7  A    between atoms: C9_23  and  O9_24 
ROOT
HETATM    1  C5  UNL     1      13.705 -13.369 -14.295  1.00  0.00     0.262 C 
HETATM    2  O3  UNL     1      14.815 -12.800 -13.674  1.00  0.00    -0.353 OA
HETATM    3  C6  UNL     1      14.226 -12.161 -12.586  1.00  0.00     0.180 C 
HETATM    4  C8  UNL     1      13.206 -13.122 -12.015  1.00  0.00     0.182 C 
HETATM    5  C9  UNL     1      13.080 -14.141 -13.156  1.00  0.00     0.198 C 
ENDROOT
BRANCH   1   6
HETATM    6  N3  UNL     1      14.027 -14.176 -15.427  1.00  0.00    -0.299 N 
HETATM    7  C1  UNL     1      14.977 -15.115 -15.586  1.00  0.00     0.155 A 
HETATM    8  N1  UNL     1      15.882 -15.478 -14.560  1.00  0.00    -0.080 NA
HETATM    9  C2  UNL     1      14.926 -15.638 -16.848  1.00  0.00     0.152 A 
HETATM   10  N2  UNL     1      13.920 -14.999 -17.469  1.00  0.00    -0.344 N 
HETATM   11  C4  UNL     1      13.378 -14.116 -16.609  1.00  0.00     0.187 A 
ATOM     12  H2  UNL     1      13.617 -15.156 -18.430  1.00  0.00     0.167 HD
BRANCH   9  13
HETATM   13  C3  UNL     1      15.798 -16.686 -17.406  1.00  0.00     0.230 C 
HETATM   14  O1  UNL     1      16.538 -16.481 -18.373  1.00  0.00    -0.643 OA
HETATM   15  O2  UNL     1      15.783 -17.945 -16.820  1.00  0.00    -0.643 OA
ENDBRANCH   9  13
ENDBRANCH   1   6
BRANCH   5  16
HETATM   16  O9  UNL     1      11.747 -14.463 -13.396  1.00  0.00    -0.388 OA
ATOM     17  H9  UNL     1      11.617 -15.391 -13.546  1.00  0.00     0.210 HD
ENDBRANCH   5  16
BRANCH   3  18
HETATM   18  C7  UNL     1      15.218 -11.782 -11.542  1.00  0.00     0.217 C 
BRANCH  18  19
HETATM   19  O4  UNL     1      15.263 -12.651 -10.488  1.00  0.00    -0.280 OA
BRANCH  19  20
HETATM   20  P1  UNL     1      15.713 -11.790  -9.144  1.00  0.00     0.422 P 
HETATM   21  O5  UNL     1      14.662 -11.396  -7.980  1.00  0.00    -0.617 OA
HETATM   22  O6  UNL     1      16.281 -13.061  -8.515  1.00  0.00    -0.617 OA
HETATM   23  O7  UNL     1      17.261 -11.134  -9.146  1.00  0.00    -0.617 OA
ENDBRANCH  19  20
ENDBRANCH  18  19
ENDBRANCH   3  18
BRANCH   4  24
HETATM   24  O8  UNL     1      11.957 -12.510 -11.918  1.00  0.00    -0.390 OA
ATOM     25  H8  UNL     1      11.358 -13.051 -11.416  1.00  0.00     0.210 HD
ENDBRANCH   4  24
TORSDOF 7
ENDMDL
