MODEL 6
REMARK VINA RESULT: -7.863279400      3.460      7.337
REMARK  7 active torsions:
REMARK  status: ('A' for Active; 'I' for Inactive)
REMARK    1  A    between atoms: C2_3  and  C3_4 
REMARK    2  A    between atoms: N3_10  and  C5_11 
REMARK    3  A    between atoms: C6_13  and  C7_14 
REMARK    4  A    between atoms: C7_14  and  O4_15 
REMARK    5  A    between atoms: O4_15  and  P1_16 
REMARK    6  A    between atoms: C8_20  and  O8_21 
REMARK    7  A    between atoms: C9_23  and  O9_24 
ROOT
HETATM    1  C5  UNL     1      14.119 -13.200 -12.438  1.00  0.00     0.262 C 
HETATM    2  O3  UNL     1      15.306 -13.378 -13.143  1.00  0.00    -0.353 OA
HETATM    3  C6  UNL     1      14.976 -14.443 -13.977  1.00  0.00     0.180 C 
HETATM    4  C8  UNL     1      13.588 -14.167 -14.509  1.00  0.00     0.182 C 
HETATM    5  C9  UNL     1      13.116 -13.056 -13.559  1.00  0.00     0.198 C 
ENDROOT
BRANCH   1   6
HETATM    6  N3  UNL     1      14.141 -12.090 -11.542  1.00  0.00    -0.299 N 
HETATM    7  C1  UNL     1      13.193 -11.623 -10.710  1.00  0.00     0.155 A 
HETATM    8  N1  UNL     1      11.914 -12.216 -10.587  1.00  0.00    -0.080 NA
HETATM    9  C2  UNL     1      13.648 -10.526 -10.032  1.00  0.00     0.152 A 
HETATM   10  N2  UNL     1      14.905 -10.323 -10.466  1.00  0.00    -0.344 N 
HETATM   11  C4  UNL     1      15.200 -11.269 -11.377  1.00  0.00     0.187 A 
ATOM     12  H2  UNL     1      15.529  -9.579 -10.156  1.00  0.00     0.167 HD
BRANCH   9  13
HETATM   13  C3  UNL     1      12.909  -9.734  -9.034  1.00  0.00     0.230 C 
HETATM   14  O1  UNL     1      12.620  -8.547  -9.218  1.00  0.00    -0.643 OA
HETATM   15  O2  UNL     1      12.527 -10.347  -7.849  1.00  0.00    -0.643 OA
ENDBRANCH   9  13
ENDBRANCH   1   6
BRANCH   5  16
HETATM   16  O9  UNL     1      11.808 -13.280 -13.138  1.00  0.00    -0.388 OA
ATOM     17  H9  UNL     1      11.649 -12.963 -12.257  1.00  0.00     0.210 HD
ENDBRANCH   5  16
BRANCH   3  18
HETATM   18  C7  UNL     1      15.937 -14.605 -15.103  1.00  0.00     0.217 C 
BRANCH  18  19
HETATM   19  O4  UNL     1      15.338 -14.668 -16.330  1.00  0.00    -0.280 OA
BRANCH  19  20
HETATM   20  P1  UNL     1      15.277 -16.263 -16.781  1.00  0.00     0.422 P 
HETATM   21  O5  UNL     1      14.093 -17.251 -16.297  1.00  0.00    -0.617 OA
HETATM   22  O6  UNL     1      14.698 -15.862 -18.136  1.00  0.00    -0.617 OA
HETATM   23  O7  UNL     1      16.626 -16.879 -17.573  1.00  0.00    -0.617 OA
ENDBRANCH  19  20
ENDBRANCH  18  19
ENDBRANCH   3  18
BRANCH   4  24
HETATM   24  O8  UNL     1      12.745 -15.251 -14.267  1.00  0.00    -0.390 OA
ATOM     25  H8  UNL     1      12.639 -15.774 -15.054  1.00  0.00     0.210 HD
ENDBRANCH   4  24
TORSDOF 7
ENDMDL
