MODEL 5
REMARK VINA RESULT: -8.073893465      3.196      7.383
REMARK  7 active torsions:
REMARK  status: ('A' for Active; 'I' for Inactive)
REMARK    1  A    between atoms: C2_3  and  C3_4 
REMARK    2  A    between atoms: N3_10  and  C5_11 
REMARK    3  A    between atoms: C6_13  and  C7_14 
REMARK    4  A    between atoms: C7_14  and  O4_15 
REMARK    5  A    between atoms: O4_15  and  P1_16 
REMARK    6  A    between atoms: C8_20  and  O8_21 
REMARK    7  A    between atoms: C9_23  and  O9_24 
ROOT
HETATM    1  C5  UNL     1      14.170 -12.969 -12.573  1.00  0.00     0.262 C 
HETATM    2  O3  UNL     1      15.231 -13.135 -13.461  1.00  0.00    -0.353 OA
HETATM    3  C6  UNL     1      14.849 -14.292 -14.135  1.00  0.00     0.180 C 
HETATM    4  C8  UNL     1      13.373 -14.156 -14.434  1.00  0.00     0.182 C 
HETATM    5  C9  UNL     1      12.983 -12.995 -13.507  1.00  0.00     0.198 C 
ENDROOT
BRANCH   1   6
HETATM    6  N3  UNL     1      14.256 -11.781 -11.787  1.00  0.00    -0.299 N 
HETATM    7  C1  UNL     1      14.890 -11.551 -10.624  1.00  0.00     0.155 A 
HETATM    8  N1  UNL     1      15.636 -12.541  -9.942  1.00  0.00    -0.080 NA
HETATM    9  C2  UNL     1      14.703 -10.256 -10.225  1.00  0.00     0.152 A 
HETATM   10  N2  UNL     1      13.935  -9.689 -11.171  1.00  0.00    -0.344 N 
HETATM   11  C4  UNL     1      13.666 -10.611 -12.114  1.00  0.00     0.187 A 
ATOM     12  H2  UNL     1      13.610  -8.722 -11.174  1.00  0.00     0.167 HD
BRANCH   9  13
HETATM   13  C3  UNL     1      15.235  -9.621  -9.007  1.00  0.00     0.230 C 
HETATM   14  O1  UNL     1      16.110  -8.751  -9.046  1.00  0.00    -0.643 OA
HETATM   15  O2  UNL     1      14.732 -10.019  -7.776  1.00  0.00    -0.643 OA
ENDBRANCH   9  13
ENDBRANCH   1   6
BRANCH   5  16
HETATM   16  O9  UNL     1      11.788 -13.262 -12.845  1.00  0.00    -0.388 OA
ATOM     17  H9  UNL     1      11.265 -12.481 -12.708  1.00  0.00     0.210 HD
ENDBRANCH   5  16
BRANCH   3  18
HETATM   18  C7  UNL     1      15.614 -14.495 -15.396  1.00  0.00     0.217 C 
BRANCH  18  19
HETATM   19  O4  UNL     1      16.108 -15.761 -15.540  1.00  0.00    -0.280 OA
BRANCH  19  20
HETATM   20  P1  UNL     1      15.354 -16.453 -16.845  1.00  0.00     0.422 P 
HETATM   21  O5  UNL     1      14.534 -15.580 -17.930  1.00  0.00    -0.617 OA
HETATM   22  O6  UNL     1      16.691 -16.532 -17.581  1.00  0.00    -0.617 OA
HETATM   23  O7  UNL     1      15.274 -18.133 -16.872  1.00  0.00    -0.617 OA
ENDBRANCH  19  20
ENDBRANCH  18  19
ENDBRANCH   3  18
BRANCH   4  24
HETATM   24  O8  UNL     1      12.673 -15.265 -13.961  1.00  0.00    -0.390 OA
ATOM     25  H8  UNL     1      11.784 -15.267 -14.297  1.00  0.00     0.210 HD
ENDBRANCH   4  24
TORSDOF 7
ENDMDL
