MODEL 2
REMARK VINA RESULT: -8.014461932      3.228      7.357
REMARK  7 active torsions:
REMARK  status: ('A' for Active; 'I' for Inactive)
REMARK    1  A    between atoms: C2_3  and  C3_4 
REMARK    2  A    between atoms: N3_10  and  C5_11 
REMARK    3  A    between atoms: C6_13  and  C7_14 
REMARK    4  A    between atoms: C7_14  and  O4_15 
REMARK    5  A    between atoms: O4_15  and  P1_16 
REMARK    6  A    between atoms: C8_20  and  O8_21 
REMARK    7  A    between atoms: C9_23  and  O9_24 
ROOT
HETATM    1  C5  UNL     1      14.345 -12.963 -12.714  1.00  0.00     0.262 C 
HETATM    2  O3  UNL     1      15.410 -13.298 -13.546  1.00  0.00    -0.353 OA
HETATM    3  C6  UNL     1      14.970 -14.503 -14.087  1.00  0.00     0.180 C 
HETATM    4  C8  UNL     1      13.511 -14.315 -14.441  1.00  0.00     0.182 C 
HETATM    5  C9  UNL     1      13.177 -13.030 -13.670  1.00  0.00     0.198 C 
ENDROOT
BRANCH   1   6
HETATM    6  N3  UNL     1      14.490 -11.696 -12.072  1.00  0.00    -0.299 N 
HETATM    7  C1  UNL     1      15.110 -11.367 -10.926  1.00  0.00     0.155 A 
HETATM    8  N1  UNL     1      15.774 -12.312 -10.109  1.00  0.00    -0.080 NA
HETATM    9  C2  UNL     1      14.999 -10.024 -10.690  1.00  0.00     0.152 A 
HETATM   10  N2  UNL     1      14.291  -9.529 -11.720  1.00  0.00    -0.344 N 
HETATM   11  C4  UNL     1      13.985 -10.540 -12.554  1.00  0.00     0.187 A 
ATOM     12  H2  UNL     1      14.031  -8.552 -11.849  1.00  0.00     0.167 HD
BRANCH   9  13
HETATM   13  C3  UNL     1      15.543  -9.280  -9.541  1.00  0.00     0.230 C 
HETATM   14  O1  UNL     1      14.893  -9.099  -8.507  1.00  0.00    -0.643 OA
HETATM   15  O2  UNL     1      16.830  -8.769  -9.630  1.00  0.00    -0.643 OA
ENDBRANCH   9  13
ENDBRANCH   1   6
BRANCH   5  16
HETATM   16  O9  UNL     1      11.955 -13.142 -13.015  1.00  0.00    -0.388 OA
ATOM     17  H9  UNL     1      11.247 -13.381 -13.601  1.00  0.00     0.210 HD
ENDBRANCH   5  16
BRANCH   3  18
HETATM   18  C7  UNL     1      15.745 -14.903 -15.294  1.00  0.00     0.217 C 
BRANCH  18  19
HETATM   19  O4  UNL     1      15.017 -14.866 -16.450  1.00  0.00    -0.280 OA
BRANCH  19  20
HETATM   20  P1  UNL     1      15.404 -16.216 -17.333  1.00  0.00     0.422 P 
HETATM   21  O5  UNL     1      15.671 -16.158 -18.926  1.00  0.00    -0.617 OA
HETATM   22  O6  UNL     1      16.852 -16.119 -16.857  1.00  0.00    -0.617 OA
HETATM   23  O7  UNL     1      15.276 -17.698 -16.548  1.00  0.00    -0.617 OA
ENDBRANCH  19  20
ENDBRANCH  18  19
ENDBRANCH   3  18
BRANCH   4  24
HETATM   24  O8  UNL     1      12.733 -15.315 -13.859  1.00  0.00    -0.390 OA
ATOM     25  H8  UNL     1      12.697 -15.204 -12.916  1.00  0.00     0.210 HD
ENDBRANCH   4  24
TORSDOF 7
ENDMDL
