MODEL 5
REMARK VINA RESULT: -7.700072703      3.950      7.517
REMARK  7 active torsions:
REMARK  status: ('A' for Active; 'I' for Inactive)
REMARK    1  A    between atoms: C2_3  and  C3_4 
REMARK    2  A    between atoms: N3_10  and  C5_11 
REMARK    3  A    between atoms: C6_13  and  C7_14 
REMARK    4  A    between atoms: C7_14  and  O4_15 
REMARK    5  A    between atoms: O4_15  and  P1_16 
REMARK    6  A    between atoms: C8_20  and  O8_21 
REMARK    7  A    between atoms: C9_23  and  O9_24 
ROOT
HETATM    1  C5  UNL     1      13.579 -11.852 -13.422  1.00  0.00     0.262 C 
HETATM    2  O3  UNL     1      14.194 -12.164 -14.632  1.00  0.00    -0.353 OA
HETATM    3  C6  UNL     1      14.438 -13.526 -14.475  1.00  0.00     0.180 C 
HETATM    4  C8  UNL     1      13.192 -14.125 -13.860  1.00  0.00     0.182 C 
HETATM    5  C9  UNL     1      12.458 -12.864 -13.378  1.00  0.00     0.198 C 
ENDROOT
BRANCH   1   6
HETATM    6  N3  UNL     1      13.134 -10.499 -13.333  1.00  0.00    -0.299 N 
HETATM    7  C1  UNL     1      12.645  -9.810 -12.287  1.00  0.00     0.155 A 
HETATM    8  N1  UNL     1      12.481 -10.374 -11.000  1.00  0.00    -0.080 NA
HETATM    9  C2  UNL     1      12.342  -8.529 -12.657  1.00  0.00     0.152 A 
HETATM   10  N2  UNL     1      12.656  -8.441 -13.961  1.00  0.00    -0.344 N 
HETATM   11  C4  UNL     1      13.134  -9.631 -14.368  1.00  0.00     0.187 A 
ATOM     12  H2  UNL     1      12.550  -7.611 -14.545  1.00  0.00     0.167 HD
BRANCH   9  13
HETATM   13  C3  UNL     1      11.785  -7.469 -11.798  1.00  0.00     0.230 C 
HETATM   14  O1  UNL     1      12.458  -6.903 -10.931  1.00  0.00    -0.643 OA
HETATM   15  O2  UNL     1      10.459  -7.099 -11.975  1.00  0.00    -0.643 OA
ENDBRANCH   9  13
ENDBRANCH   1   6
BRANCH   5  16
HETATM   16  O9  UNL     1      11.948 -13.042 -12.095  1.00  0.00    -0.388 OA
ATOM     17  H9  UNL     1      12.579 -13.432 -11.502  1.00  0.00     0.210 HD
ENDBRANCH   5  16
BRANCH   3  18
HETATM   18  C7  UNL     1      14.751 -14.202 -15.765  1.00  0.00     0.217 C 
BRANCH  18  19
HETATM   19  O4  UNL     1      15.543 -15.307 -15.626  1.00  0.00    -0.280 OA
BRANCH  19  20
HETATM   20  P1  UNL     1      15.334 -16.250 -16.974  1.00  0.00     0.422 P 
HETATM   21  O5  UNL     1      14.938 -15.624 -18.412  1.00  0.00    -0.617 OA
HETATM   22  O6  UNL     1      16.848 -16.319 -17.166  1.00  0.00    -0.617 OA
HETATM   23  O7  UNL     1      15.317 -17.915 -16.741  1.00  0.00    -0.617 OA
ENDBRANCH  19  20
ENDBRANCH  18  19
ENDBRANCH   3  18
BRANCH   4  24
HETATM   24  O8  UNL     1      13.509 -14.839 -12.706  1.00  0.00    -0.390 OA
ATOM     25  H8  UNL     1      12.973 -14.552 -11.977  1.00  0.00     0.210 HD
ENDBRANCH   4  24
TORSDOF 7
ENDMDL
