MODEL 1
REMARK VINA RESULT: -8.260874929      0.000      0.000
REMARK  7 active torsions:
REMARK  status: ('A' for Active; 'I' for Inactive)
REMARK    1  A    between atoms: C2_3  and  C3_4 
REMARK    2  A    between atoms: N3_10  and  C5_11 
REMARK    3  A    between atoms: C6_13  and  C7_14 
REMARK    4  A    between atoms: C7_14  and  O4_15 
REMARK    5  A    between atoms: O4_15  and  P1_16 
REMARK    6  A    between atoms: C8_20  and  O8_21 
REMARK    7  A    between atoms: C9_23  and  O9_24 
ROOT
HETATM    1  C5  UNL     1      14.229 -13.135 -13.637  1.00  0.00     0.262 C 
HETATM    2  O3  UNL     1      15.061 -12.535 -12.696  1.00  0.00    -0.353 OA
HETATM    3  C6  UNL     1      14.156 -11.752 -11.984  1.00  0.00     0.180 C 
HETATM    4  C8  UNL     1      12.926 -12.604 -11.759  1.00  0.00     0.182 C 
HETATM    5  C9  UNL     1      13.163 -13.746 -12.758  1.00  0.00     0.198 C 
ENDROOT
BRANCH   1   6
HETATM    6  N3  UNL     1      14.892 -14.079 -14.476  1.00  0.00    -0.299 N 
HETATM    7  C1  UNL     1      14.505 -14.634 -15.638  1.00  0.00     0.155 A 
HETATM    8  N1  UNL     1      13.270 -14.339 -16.261  1.00  0.00    -0.080 NA
HETATM    9  C2  UNL     1      15.462 -15.496 -16.099  1.00  0.00     0.152 A 
HETATM   10  N2  UNL     1      16.453 -15.462 -15.191  1.00  0.00    -0.344 N 
HETATM   11  C4  UNL     1      16.107 -14.606 -14.212  1.00  0.00     0.187 A 
ATOM     12  H2  UNL     1      17.321 -15.995 -15.237  1.00  0.00     0.167 HD
BRANCH   9  13
HETATM   13  C3  UNL     1      15.410 -16.295 -17.336  1.00  0.00     0.230 C 
HETATM   14  O1  UNL     1      15.658 -17.505 -17.349  1.00  0.00    -0.643 OA
HETATM   15  O2  UNL     1      15.072 -15.661 -18.523  1.00  0.00    -0.643 OA
ENDBRANCH   9  13
ENDBRANCH   1   6
BRANCH   5  16
HETATM   16  O9  UNL     1      11.999 -14.048 -13.459  1.00  0.00    -0.388 OA
ATOM     17  H9  UNL     1      11.662 -13.304 -13.944  1.00  0.00     0.210 HD
ENDBRANCH   5  16
BRANCH   3  18
HETATM   18  C7  UNL     1      14.706 -11.287 -10.681  1.00  0.00     0.217 C 
BRANCH  18  19
HETATM   19  O4  UNL     1      15.799 -11.993 -10.264  1.00  0.00    -0.280 OA
BRANCH  19  20
HETATM   20  P1  UNL     1      16.132 -11.535  -8.705  1.00  0.00     0.422 P 
HETATM   21  O5  UNL     1      15.012 -11.566  -7.539  1.00  0.00    -0.617 OA
HETATM   22  O6  UNL     1      16.775 -12.895  -8.438  1.00  0.00    -0.617 OA
HETATM   23  O7  UNL     1      17.623 -10.808  -8.430  1.00  0.00    -0.617 OA
ENDBRANCH  19  20
ENDBRANCH  18  19
ENDBRANCH   3  18
BRANCH   4  24
HETATM   24  O8  UNL     1      11.783 -11.943 -12.208  1.00  0.00    -0.390 OA
ATOM     25  H8  UNL     1      11.007 -12.300 -11.793  1.00  0.00     0.210 HD
ENDBRANCH   4  24
TORSDOF 7
ENDMDL
