MODEL 14
REMARK VINA RESULT: -7.390594129      0.886      1.478
REMARK  7 active torsions:
REMARK  status: ('A' for Active; 'I' for Inactive)
REMARK    1  A    between atoms: C2_3  and  C3_4 
REMARK    2  A    between atoms: N3_10  and  C5_11 
REMARK    3  A    between atoms: C6_13  and  C7_14 
REMARK    4  A    between atoms: C7_14  and  O4_15 
REMARK    5  A    between atoms: O4_15  and  P1_16 
REMARK    6  A    between atoms: C8_20  and  O8_21 
REMARK    7  A    between atoms: C9_23  and  O9_24 
ROOT
HETATM    1  C5  UNL     1      13.822 -13.000 -14.190  1.00  0.00     0.262 C 
HETATM    2  O3  UNL     1      14.935 -12.458 -13.551  1.00  0.00    -0.353 OA
HETATM    3  C6  UNL     1      14.361 -11.922 -12.402  1.00  0.00     0.180 C 
HETATM    4  C8  UNL     1      13.376 -12.948 -11.886  1.00  0.00     0.182 C 
HETATM    5  C9  UNL     1      13.242 -13.875 -13.103  1.00  0.00     0.198 C 
ENDROOT
BRANCH   1   6
HETATM    6  N3  UNL     1      14.132 -13.706 -15.390  1.00  0.00    -0.299 N 
HETATM    7  C1  UNL     1      15.073 -14.634 -15.637  1.00  0.00     0.155 A 
HETATM    8  N1  UNL     1      15.980 -15.093 -14.654  1.00  0.00    -0.080 NA
HETATM    9  C2  UNL     1      15.011 -15.044 -16.941  1.00  0.00     0.152 A 
HETATM   10  N2  UNL     1      14.007 -14.344 -17.497  1.00  0.00    -0.344 N 
HETATM   11  C4  UNL     1      13.477 -13.537 -16.559  1.00  0.00     0.187 A 
ATOM     12  H2  UNL     1      13.699 -14.413 -18.467  1.00  0.00     0.167 HD
BRANCH   9  13
HETATM   13  C3  UNL     1      15.872 -16.045 -17.594  1.00  0.00     0.230 C 
HETATM   14  O1  UNL     1      16.806 -16.597 -17.003  1.00  0.00    -0.643 OA
HETATM   15  O2  UNL     1      15.620 -16.374 -18.919  1.00  0.00    -0.643 OA
ENDBRANCH   9  13
ENDBRANCH   1   6
BRANCH   5  16
HETATM   16  O9  UNL     1      11.910 -14.206 -13.336  1.00  0.00    -0.388 OA
ATOM     17  H9  UNL     1      11.809 -15.078 -13.700  1.00  0.00     0.210 HD
ENDBRANCH   5  16
BRANCH   3  18
HETATM   18  C7  UNL     1      15.371 -11.606 -11.354  1.00  0.00     0.217 C 
BRANCH  18  19
HETATM   19  O4  UNL     1      15.336 -12.455 -10.285  1.00  0.00    -0.280 OA
BRANCH  19  20
HETATM   20  P1  UNL     1      15.802 -11.598  -8.944  1.00  0.00     0.422 P 
HETATM   21  O5  UNL     1      14.872 -11.484  -7.626  1.00  0.00    -0.617 OA
HETATM   22  O6  UNL     1      16.683 -12.765  -8.499  1.00  0.00    -0.617 OA
HETATM   23  O7  UNL     1      17.184 -10.651  -9.092  1.00  0.00    -0.617 OA
ENDBRANCH  19  20
ENDBRANCH  18  19
ENDBRANCH   3  18
BRANCH   4  24
HETATM   24  O8  UNL     1      12.118 -12.374 -11.711  1.00  0.00    -0.390 OA
ATOM     25  H8  UNL     1      11.437 -13.034 -11.780  1.00  0.00     0.210 HD
ENDBRANCH   4  24
TORSDOF 7
ENDMDL
