MODEL 4
REMARK VINA RESULT: -7.796104675      1.543      1.851
REMARK  7 active torsions:
REMARK  status: ('A' for Active; 'I' for Inactive)
REMARK    1  A    between atoms: C2_3  and  C3_4 
REMARK    2  A    between atoms: N3_10  and  C5_11 
REMARK    3  A    between atoms: C6_13  and  C7_14 
REMARK    4  A    between atoms: C7_14  and  O4_15 
REMARK    5  A    between atoms: O4_15  and  P1_16 
REMARK    6  A    between atoms: C8_20  and  O8_21 
REMARK    7  A    between atoms: C9_23  and  O9_24 
ROOT
HETATM    1  C5  UNL     1      14.157 -12.895 -13.392  1.00  0.00     0.262 C 
HETATM    2  O3  UNL     1      14.907 -12.163 -12.474  1.00  0.00    -0.353 OA
HETATM    3  C6  UNL     1      13.931 -11.345 -11.910  1.00  0.00     0.180 C 
HETATM    4  C8  UNL     1      12.719 -12.216 -11.666  1.00  0.00     0.182 C 
HETATM    5  C9  UNL     1      13.058 -13.450 -12.516  1.00  0.00     0.198 C 
ENDROOT
BRANCH   1   6
HETATM    6  N3  UNL     1      14.905 -13.898 -14.078  1.00  0.00    -0.299 N 
HETATM    7  C1  UNL     1      14.671 -14.506 -15.254  1.00  0.00     0.155 A 
HETATM    8  N1  UNL     1      13.546 -14.217 -16.062  1.00  0.00    -0.080 NA
HETATM    9  C2  UNL     1      15.658 -15.412 -15.530  1.00  0.00     0.152 A 
HETATM   10  N2  UNL     1      16.510 -15.351 -14.492  1.00  0.00    -0.344 N 
HETATM   11  C4  UNL     1      16.054 -14.436 -13.616  1.00  0.00     0.187 A 
ATOM     12  H2  UNL     1      17.360 -15.905 -14.386  1.00  0.00     0.167 HD
BRANCH   9  13
HETATM   13  C3  UNL     1      15.759 -16.275 -16.719  1.00  0.00     0.230 C 
HETATM   14  O1  UNL     1      16.825 -16.449 -17.319  1.00  0.00    -0.643 OA
HETATM   15  O2  UNL     1      14.613 -16.912 -17.177  1.00  0.00    -0.643 OA
ENDBRANCH   9  13
ENDBRANCH   1   6
BRANCH   5  16
HETATM   16  O9  UNL     1      11.953 -13.873 -13.248  1.00  0.00    -0.388 OA
ATOM     17  H9  UNL     1      11.342 -14.380 -12.727  1.00  0.00     0.210 HD
ENDBRANCH   5  16
BRANCH   3  18
HETATM   18  C7  UNL     1      14.380 -10.719 -10.635  1.00  0.00     0.217 C 
BRANCH  18  19
HETATM   19  O4  UNL     1      15.738 -10.615 -10.524  1.00  0.00    -0.280 OA
BRANCH  19  20
HETATM   20  P1  UNL     1      16.113  -9.005 -10.393  1.00  0.00     0.422 P 
HETATM   21  O5  UNL     1      16.303  -8.277  -8.962  1.00  0.00    -0.617 OA
HETATM   22  O6  UNL     1      17.579  -9.317 -10.686  1.00  0.00    -0.617 OA
HETATM   23  O7  UNL     1      16.055  -8.095 -11.807  1.00  0.00    -0.617 OA
ENDBRANCH  19  20
ENDBRANCH  18  19
ENDBRANCH   3  18
BRANCH   4  24
HETATM   24  O8  UNL     1      11.586 -11.655 -12.255  1.00  0.00    -0.390 OA
ATOM     25  H8  UNL     1      11.018 -11.278 -11.593  1.00  0.00     0.210 HD
ENDBRANCH   4  24
TORSDOF 7
ENDMDL
