MODEL 7
REMARK VINA RESULT: -7.652236995      3.352      7.364
REMARK  7 active torsions:
REMARK  status: ('A' for Active; 'I' for Inactive)
REMARK    1  A    between atoms: C2_3  and  C3_4 
REMARK    2  A    between atoms: N3_10  and  C5_11 
REMARK    3  A    between atoms: C6_13  and  C7_14 
REMARK    4  A    between atoms: C7_14  and  O4_15 
REMARK    5  A    between atoms: O4_15  and  P1_16 
REMARK    6  A    between atoms: C8_20  and  O8_21 
REMARK    7  A    between atoms: C9_23  and  O9_24 
ROOT
HETATM    1  C5  UNL     1      14.190 -13.296 -12.531  1.00  0.00     0.262 C 
HETATM    2  O3  UNL     1      15.328 -13.574 -13.285  1.00  0.00    -0.353 OA
HETATM    3  C6  UNL     1      14.888 -14.637 -14.068  1.00  0.00     0.180 C 
HETATM    4  C8  UNL     1      13.496 -14.283 -14.543  1.00  0.00     0.182 C 
HETATM    5  C9  UNL     1      13.146 -13.117 -13.607  1.00  0.00     0.198 C 
ENDROOT
BRANCH   1   6
HETATM    6  N3  UNL     1      14.329 -12.165 -11.672  1.00  0.00    -0.299 N 
HETATM    7  C1  UNL     1      13.473 -11.639 -10.778  1.00  0.00     0.155 A 
HETATM    8  N1  UNL     1      12.187 -12.177 -10.533  1.00  0.00    -0.080 NA
HETATM    9  C2  UNL     1      14.024 -10.545 -10.172  1.00  0.00     0.152 A 
HETATM   10  N2  UNL     1      15.247 -10.404 -10.714  1.00  0.00    -0.344 N 
HETATM   11  C4  UNL     1      15.429 -11.383 -11.619  1.00  0.00     0.187 A 
ATOM     12  H2  UNL     1      15.923  -9.677 -10.478  1.00  0.00     0.167 HD
BRANCH   9  13
HETATM   13  C3  UNL     1      13.402  -9.698  -9.140  1.00  0.00     0.230 C 
HETATM   14  O1  UNL     1      13.183  -8.495  -9.319  1.00  0.00    -0.643 OA
HETATM   15  O2  UNL     1      13.052 -10.276  -7.928  1.00  0.00    -0.643 OA
ENDBRANCH   9  13
ENDBRANCH   1   6
BRANCH   5  16
HETATM   16  O9  UNL     1      11.848 -13.239 -13.119  1.00  0.00    -0.388 OA
ATOM     17  H9  UNL     1      11.451 -12.399 -12.924  1.00  0.00     0.210 HD
ENDBRANCH   5  16
BRANCH   3  18
HETATM   18  C7  UNL     1      15.780 -14.895 -15.232  1.00  0.00     0.217 C 
BRANCH  18  19
HETATM   19  O4  UNL     1      15.152 -14.776 -16.440  1.00  0.00    -0.280 OA
BRANCH  19  20
HETATM   20  P1  UNL     1      15.433 -16.169 -17.295  1.00  0.00     0.422 P 
HETATM   21  O5  UNL     1      15.624 -16.173 -18.900  1.00  0.00    -0.617 OA
HETATM   22  O6  UNL     1      16.906 -16.125 -16.892  1.00  0.00    -0.617 OA
HETATM   23  O7  UNL     1      15.277 -17.618 -16.456  1.00  0.00    -0.617 OA
ENDBRANCH  19  20
ENDBRANCH  18  19
ENDBRANCH   3  18
BRANCH   4  24
HETATM   24  O8  UNL     1      12.596 -15.300 -14.229  1.00  0.00    -0.390 OA
ATOM     25  H8  UNL     1      11.818 -15.237 -14.769  1.00  0.00     0.210 HD
ENDBRANCH   4  24
TORSDOF 7
ENDMDL
