MODEL 9
REMARK VINA RESULT: -7.534420173      1.562      2.012
REMARK  7 active torsions:
REMARK  status: ('A' for Active; 'I' for Inactive)
REMARK    1  A    between atoms: C2_3  and  C3_4 
REMARK    2  A    between atoms: N3_10  and  C5_11 
REMARK    3  A    between atoms: C6_13  and  C7_14 
REMARK    4  A    between atoms: C7_14  and  O4_15 
REMARK    5  A    between atoms: O4_15  and  P1_16 
REMARK    6  A    between atoms: C8_20  and  O8_21 
REMARK    7  A    between atoms: C9_23  and  O9_24 
ROOT
HETATM    1  C5  UNL     1      14.210 -13.136 -13.665  1.00  0.00     0.262 C 
HETATM    2  O3  UNL     1      15.031 -12.510 -12.730  1.00  0.00    -0.353 OA
HETATM    3  C6  UNL     1      14.110 -11.739 -12.024  1.00  0.00     0.180 C 
HETATM    4  C8  UNL     1      12.899 -12.614 -11.790  1.00  0.00     0.182 C 
HETATM    5  C9  UNL     1      13.158 -13.760 -12.778  1.00  0.00     0.198 C 
ENDROOT
BRANCH   1   6
HETATM    6  N3  UNL     1      14.892 -14.074 -14.495  1.00  0.00    -0.299 N 
HETATM    7  C1  UNL     1      14.509 -14.662 -15.642  1.00  0.00     0.155 A 
HETATM    8  N1  UNL     1      13.258 -14.416 -16.254  1.00  0.00    -0.080 NA
HETATM    9  C2  UNL     1      15.487 -15.502 -16.100  1.00  0.00     0.152 A 
HETATM   10  N2  UNL     1      16.487 -15.421 -15.205  1.00  0.00    -0.344 N 
HETATM   11  C4  UNL     1      16.126 -14.558 -14.237  1.00  0.00     0.187 A 
ATOM     12  H2  UNL     1      17.371 -15.928 -15.252  1.00  0.00     0.167 HD
BRANCH   9  13
HETATM   13  C3  UNL     1      15.445 -16.325 -17.321  1.00  0.00     0.230 C 
HETATM   14  O1  UNL     1      15.641 -17.544 -17.301  1.00  0.00    -0.643 OA
HETATM   15  O2  UNL     1      15.175 -15.703 -18.532  1.00  0.00    -0.643 OA
ENDBRANCH   9  13
ENDBRANCH   1   6
BRANCH   5  16
HETATM   16  O9  UNL     1      12.000 -14.092 -13.475  1.00  0.00    -0.388 OA
ATOM     17  H9  UNL     1      11.737 -14.995 -13.337  1.00  0.00     0.210 HD
ENDBRANCH   5  16
BRANCH   3  18
HETATM   18  C7  UNL     1      14.652 -11.250 -10.726  1.00  0.00     0.217 C 
BRANCH  18  19
HETATM   19  O4  UNL     1      13.770 -11.361  -9.688  1.00  0.00    -0.280 OA
BRANCH  19  20
HETATM   20  P1  UNL     1      13.043  -9.885  -9.483  1.00  0.00     0.422 P 
HETATM   21  O5  UNL     1      12.001  -9.279 -10.561  1.00  0.00    -0.617 OA
HETATM   22  O6  UNL     1      12.035 -10.509  -8.520  1.00  0.00    -0.617 OA
HETATM   23  O7  UNL     1      13.610  -8.928  -8.222  1.00  0.00    -0.617 OA
ENDBRANCH  19  20
ENDBRANCH  18  19
ENDBRANCH   3  18
BRANCH   4  24
HETATM   24  O8  UNL     1      11.742 -11.981 -12.244  1.00  0.00    -0.390 OA
ATOM     25  H8  UNL     1      11.260 -11.604 -11.518  1.00  0.00     0.210 HD
ENDBRANCH   4  24
TORSDOF 7
ENDMDL
