MODEL 1
REMARK VINA RESULT: -5.819903434      0.000      0.000
REMARK  4 active torsions:
REMARK  status: ('A' for Active; 'I' for Inactive)
REMARK    1  A    between atoms: O1_1  and  C1_3 
REMARK    2  A    between atoms: C1_3  and  C2_4 
REMARK    3  A    between atoms: C5_9  and  O2_10 
REMARK    4  A    between atoms: C6_12  and  O3_13 
ROOT
HETATM    1  C2  UNL     1       9.176  -9.963  39.204  1.00  0.00     0.079 C 
HETATM    2  C3  UNL     1       8.971  -8.804  40.125  1.00  0.00     0.069 C 
HETATM    3  N1  UNL     1      10.182  -8.240  40.574  1.00  0.00    -0.379 N 
ATOM      4  H1  UNL     1      10.316  -7.229  40.592  1.00  0.00     0.164 HD
HETATM    5  C4  UNL     1      11.201  -9.114  40.996  1.00  0.00     0.094 C 
HETATM    6  C5  UNL     1      11.315 -10.400  40.256  1.00  0.00     0.185 C 
HETATM    7  C6  UNL     1       9.965 -11.008  39.964  1.00  0.00     0.163 C 
ENDROOT
BRANCH   1   8
HETATM    8  C1  UNL     1       7.869 -10.518  38.688  1.00  0.00     0.176 C 
BRANCH   8   9
HETATM    9  O1  UNL     1       7.314 -11.437  39.553  1.00  0.00    -0.400 OA
ATOM     10  H1  UNL     1       7.654 -11.351  40.436  1.00  0.00     0.209 HD
ENDBRANCH   8   9
ENDBRANCH   1   8
BRANCH   7  11
HETATM   11  O3  UNL     1      10.087 -12.189  39.266  1.00  0.00    -0.392 OA
ATOM     12  H3  UNL     1      10.802 -12.728  39.584  1.00  0.00     0.210 HD
ENDBRANCH   7  11
BRANCH   6  13
HETATM   13  O2  UNL     1      12.054 -11.333  40.972  1.00  0.00    -0.388 OA
ATOM     14  H2  UNL     1      11.512 -12.062  41.253  1.00  0.00     0.210 HD
ENDBRANCH   6  13
TORSDOF 4
ENDMDL
