MODEL 19
REMARK VINA RESULT: -4.679735421      2.464      4.049
REMARK  4 active torsions:
REMARK  status: ('A' for Active; 'I' for Inactive)
REMARK    1  A    between atoms: O1_1  and  C1_3 
REMARK    2  A    between atoms: C1_3  and  C2_4 
REMARK    3  A    between atoms: C5_9  and  O2_10 
REMARK    4  A    between atoms: C6_12  and  O3_13 
ROOT
HETATM    1  C2  UNL     1       8.647  -9.712  40.777  1.00  0.00     0.079 C 
HETATM    2  C3  UNL     1       8.423  -9.194  42.161  1.00  0.00     0.069 C 
HETATM    3  N1  UNL     1       7.480  -9.952  42.884  1.00  0.00    -0.379 N 
ATOM      4  H1  UNL     1       7.655 -10.222  43.852  1.00  0.00     0.164 HD
HETATM    5  C4  UNL     1       6.292 -10.326  42.230  1.00  0.00     0.094 C 
HETATM    6  C5  UNL     1       6.408 -10.641  40.780  1.00  0.00     0.185 C 
HETATM    7  C6  UNL     1       7.313  -9.672  40.060  1.00  0.00     0.163 C 
ENDROOT
BRANCH   1   8
HETATM    8  C1  UNL     1       9.700  -8.923  40.037  1.00  0.00     0.176 C 
BRANCH   8   9
HETATM    9  O1  UNL     1      10.193  -9.605  38.944  1.00  0.00    -0.400 OA
ATOM     10  H1  UNL     1      10.277  -9.047  38.180  1.00  0.00     0.209 HD
ENDBRANCH   8   9
ENDBRANCH   1   8
BRANCH   7  11
HETATM   11  O3  UNL     1       7.422  -9.986  38.723  1.00  0.00    -0.392 OA
ATOM     12  H3  UNL     1       6.641 -10.405  38.383  1.00  0.00     0.210 HD
ENDBRANCH   7  11
BRANCH   6  13
HETATM   13  O2  UNL     1       5.169 -10.609  40.154  1.00  0.00    -0.388 OA
ATOM     14  H2  UNL     1       4.808 -11.482  40.055  1.00  0.00     0.210 HD
ENDBRANCH   6  13
TORSDOF 4
ENDMDL
