MODEL 18
REMARK VINA RESULT: -4.708942581      1.354      1.418
REMARK  4 active torsions:
REMARK  status: ('A' for Active; 'I' for Inactive)
REMARK    1  A    between atoms: O1_1  and  C1_3 
REMARK    2  A    between atoms: C1_3  and  C2_4 
REMARK    3  A    between atoms: C5_9  and  O2_10 
REMARK    4  A    between atoms: C6_12  and  O3_13 
ROOT
HETATM    1  C2  UNL     1       8.902  -9.364  40.133  1.00  0.00     0.079 C 
HETATM    2  C3  UNL     1       8.666  -9.560  41.596  1.00  0.00     0.069 C 
HETATM    3  N1  UNL     1       9.715  -9.059  42.392  1.00  0.00    -0.379 N 
ATOM      4  H1  UNL     1       9.523  -8.508  43.229  1.00  0.00     0.164 HD
HETATM    5  C4  UNL     1      11.037  -9.340  41.998  1.00  0.00     0.094 C 
HETATM    6  C5  UNL     1      11.292  -9.383  40.532  1.00  0.00     0.185 C 
HETATM    7  C6  UNL     1      10.186 -10.086  39.783  1.00  0.00     0.163 C 
ENDROOT
BRANCH   1   8
HETATM    8  C1  UNL     1       7.742  -9.856  39.299  1.00  0.00     0.176 C 
BRANCH   8   9
HETATM    9  O1  UNL     1       7.690 -11.232  39.236  1.00  0.00    -0.400 OA
ATOM     10  H1  UNL     1       8.541 -11.617  39.063  1.00  0.00     0.209 HD
ENDBRANCH   8   9
ENDBRANCH   1   8
BRANCH   7  11
HETATM   11  O3  UNL     1      10.431 -10.103  38.428  1.00  0.00    -0.392 OA
ATOM     12  H3  UNL     1      10.970 -10.839  38.164  1.00  0.00     0.210 HD
ENDBRANCH   7  11
BRANCH   6  13
HETATM   13  O2  UNL     1      12.482 -10.038  40.244  1.00  0.00    -0.388 OA
ATOM     14  H2  UNL     1      12.915 -10.334  41.037  1.00  0.00     0.210 HD
ENDBRANCH   6  13
TORSDOF 4
ENDMDL
