MODEL 11
REMARK VINA RESULT: -9.446707292      2.869      3.538
REMARK  10 active torsions:
REMARK  status: ('A' for Active; 'I' for Inactive)
REMARK    1  A    between atoms: C1_2  and  C2_4 
REMARK    2  A    between atoms: C2_4  and  O3_5 
REMARK    3  A    between atoms: O3_5  and  C3_6 
REMARK    4  A    between atoms: C4_7  and  C5_8 
REMARK    5  A    between atoms: C6_16  and  C7_17 
REMARK    6  A    between atoms: C11_21  and  N5_22 
REMARK    7  A    between atoms: N5_22  and  C12_24 
REMARK    8  A    between atoms: N6_27  and  S2_28 
REMARK    9  A    between atoms: S2_28  and  C15_31 
REMARK   10  A    between atoms: C15_31  and  C16_32 
ROOT
HETATM    1  C7  UNL     1      45.875  11.505   0.740  1.00  0.00    -0.015 A 
HETATM    2  C8  UNL     1      44.965  10.600   0.322  1.00  0.00     0.013 A 
HETATM    3  C9  UNL     1      45.298   9.281  -0.018  1.00  0.00     0.003 A 
HETATM    4  C10 UNL     1      46.612   8.889   0.080  1.00  0.00     0.029 A 
HETATM    5  C11 UNL     1      47.577   9.778   0.502  1.00  0.00     0.029 A 
HETATM    6  C24 UNL     1      47.199  11.074   0.827  1.00  0.00     0.042 A 
ENDROOT
BRANCH   1   7
HETATM    7  C6  UNL     1      45.616  12.904   1.112  1.00  0.00     0.036 A 
HETATM    8  S1  UNL     1      44.674  14.035   0.185  1.00  0.00    -0.081 SA
HETATM    9  C4  UNL     1      44.804  15.396   1.192  1.00  0.00     0.086 A 
HETATM   10  C3  UNL     1      45.569  14.948   2.224  1.00  0.00     0.109 A 
HETATM   11  C25 UNL     1      45.988  13.662   2.177  1.00  0.00     0.063 A 
HETATM   12 BR1  UNL     1      47.095  12.947   3.624  1.00  0.00    -0.047 Br
BRANCH   9  13
HETATM   13  C5  UNL     1      44.264  16.735   0.915  1.00  0.00     0.151 A 
HETATM   14  N1  UNL     1      43.781  17.606   1.791  1.00  0.00    -0.269 N 
HETATM   15  N2  UNL     1      43.374  18.686   1.111  1.00  0.00    -0.007 NA
ATOM     16  H1  UNL     1      43.729  17.476   2.801  1.00  0.00     0.185 HD
HETATM   17  N3  UNL     1      43.591  18.512  -0.180  1.00  0.00    -0.007 NA
HETATM   18  N4  UNL     1      44.140  17.305  -0.293  1.00  0.00    -0.269 N 
ATOM     19  H4  UNL     1      44.427  16.874  -1.173  1.00  0.00     0.185 HD
ENDBRANCH   9  13
BRANCH  10  20
HETATM   20  O3  UNL     1      45.893  15.816   3.299  1.00  0.00    -0.338 OA
BRANCH  20  21
HETATM   21  C2  UNL     1      46.960  16.646   3.425  1.00  0.00     0.288 C 
BRANCH  21  22
HETATM   22  C1  UNL     1      47.381  17.160   4.722  1.00  0.00     0.198 C 
HETATM   23  O1  UNL     1      46.527  17.239   5.696  1.00  0.00    -0.646 OA
HETATM   24  O2  UNL     1      48.648  17.595   5.036  1.00  0.00    -0.646 OA
ENDBRANCH  21  22
ENDBRANCH  20  21
ENDBRANCH  10  20
ENDBRANCH   1   7
BRANCH   5  25
HETATM   25  N5  UNL     1      48.939   9.360   0.587  1.00  0.00    -0.385 N 
ATOM     26  H5  UNL     1      49.629  10.038   0.911  1.00  0.00     0.160 HD
BRANCH  25  27
HETATM   27  C12 UNL     1      49.399   8.031   0.243  1.00  0.00     0.084 C 
HETATM   28  C13 UNL     1      49.400   7.190   1.522  1.00  0.00     0.040 C 
HETATM   29  C14 UNL     1      50.556   7.611   2.401  1.00  0.00     0.109 C 
HETATM   30  N6  UNL     1      51.826   7.283   1.776  1.00  0.00    -0.210 NA
HETATM   31  C22 UNL     1      51.599   6.929   0.386  1.00  0.00     0.109 C 
HETATM   32  C23 UNL     1      50.833   8.082  -0.256  1.00  0.00     0.040 C 
BRANCH  30  33
HETATM   33  S2  UNL     1      52.567   5.921   2.526  1.00  0.00     0.215 S 
HETATM   34  O4  UNL     1      51.671   4.731   2.332  1.00  0.00    -0.211 OA
HETATM   35  O5  UNL     1      53.863   5.645   1.821  1.00  0.00    -0.211 OA
BRANCH  33  36
HETATM   36  C15 UNL     1      52.837   6.203   4.260  1.00  0.00     0.196 C 
BRANCH  36  37
HETATM   37  C16 UNL     1      52.735   4.943   5.022  1.00  0.00    -0.043 A 
HETATM   38  C17 UNL     1      51.572   4.708   5.738  1.00  0.00     0.008 A 
HETATM   39  C18 UNL     1      51.447   3.539   6.460  1.00  0.00     0.001 A 
HETATM   40  C19 UNL     1      52.429   2.572   6.514  1.00  0.00     0.000 A 
HETATM   41  C20 UNL     1      53.601   2.813   5.790  1.00  0.00     0.001 A 
HETATM   42  C21 UNL     1      53.722   3.986   5.068  1.00  0.00     0.008 A 
ENDBRANCH  36  37
ENDBRANCH  33  36
ENDBRANCH  30  33
ENDBRANCH  25  27
ENDBRANCH   5  25
TORSDOF 10
ENDMDL
