MODEL 8
REMARK VINA RESULT: -9.475015031      2.451      3.143
REMARK  10 active torsions:
REMARK  status: ('A' for Active; 'I' for Inactive)
REMARK    1  A    between atoms: C1_2  and  C2_4 
REMARK    2  A    between atoms: C2_4  and  O3_5 
REMARK    3  A    between atoms: O3_5  and  C3_6 
REMARK    4  A    between atoms: C4_7  and  C5_8 
REMARK    5  A    between atoms: C6_16  and  C7_17 
REMARK    6  A    between atoms: C11_21  and  N5_22 
REMARK    7  A    between atoms: N5_22  and  C12_24 
REMARK    8  A    between atoms: N6_27  and  S2_28 
REMARK    9  A    between atoms: S2_28  and  C15_31 
REMARK   10  A    between atoms: C15_31  and  C16_32 
ROOT
HETATM    1  C7  UNL     1      45.874  11.302   0.909  1.00  0.00    -0.015 A 
HETATM    2  C8  UNL     1      45.183  10.524   0.050  1.00  0.00     0.013 A 
HETATM    3  C9  UNL     1      45.488   9.174  -0.174  1.00  0.00     0.003 A 
HETATM    4  C10 UNL     1      46.540   8.614   0.513  1.00  0.00     0.029 A 
HETATM    5  C11 UNL     1      47.274   9.370   1.401  1.00  0.00     0.029 A 
HETATM    6  C24 UNL     1      46.935  10.703   1.590  1.00  0.00     0.042 A 
ENDROOT
BRANCH   1   7
HETATM    7  C6  UNL     1      45.626  12.722   1.202  1.00  0.00     0.036 A 
HETATM    8  S1  UNL     1      44.674  13.801   0.226  1.00  0.00    -0.081 SA
HETATM    9  C4  UNL     1      44.826  15.218   1.148  1.00  0.00     0.086 A 
HETATM   10  C3  UNL     1      45.605  14.828   2.193  1.00  0.00     0.109 A 
HETATM   11  C25 UNL     1      46.017  13.539   2.216  1.00  0.00     0.063 A 
HETATM   12 BR1  UNL     1      47.143  12.904   3.685  1.00  0.00    -0.047 Br
BRANCH   9  13
HETATM   13  C5  UNL     1      44.287  16.542   0.802  1.00  0.00     0.151 A 
HETATM   14  N1  UNL     1      44.269  17.117  -0.393  1.00  0.00    -0.269 N 
HETATM   15  N2  UNL     1      43.711  18.326  -0.256  1.00  0.00    -0.007 NA
ATOM     16  H1  UNL     1      44.619  16.710  -1.260  1.00  0.00     0.185 HD
HETATM   17  N3  UNL     1      43.375  18.526   1.006  1.00  0.00    -0.007 NA
HETATM   18  N4  UNL     1      43.735  17.419   1.653  1.00  0.00    -0.269 N 
ATOM     19  H4  UNL     1      43.608  17.261   2.653  1.00  0.00     0.185 HD
ENDBRANCH   9  13
BRANCH  10  20
HETATM   20  O3  UNL     1      45.948  15.756   3.210  1.00  0.00    -0.338 OA
BRANCH  20  21
HETATM   21  C2  UNL     1      47.076  16.503   3.330  1.00  0.00     0.288 C 
BRANCH  21  22
HETATM   22  C1  UNL     1      47.461  17.112   4.596  1.00  0.00     0.198 C 
HETATM   23  O1  UNL     1      48.659  17.586   4.749  1.00  0.00    -0.646 OA
HETATM   24  O2  UNL     1      46.650  17.239   5.701  1.00  0.00    -0.646 OA
ENDBRANCH  21  22
ENDBRANCH  20  21
ENDBRANCH  10  20
ENDBRANCH   1   7
BRANCH   5  25
HETATM   25  N5  UNL     1      48.370   8.779   2.099  1.00  0.00    -0.385 N 
ATOM     26  H5  UNL     1      49.241   9.307   2.159  1.00  0.00     0.160 HD
BRANCH  25  27
HETATM   27  C12 UNL     1      48.318   7.476   2.728  1.00  0.00     0.084 C 
HETATM   28  C13 UNL     1      49.024   7.582   4.083  1.00  0.00     0.040 C 
HETATM   29  C14 UNL     1      50.518   7.672   3.867  1.00  0.00     0.109 C 
HETATM   30  N6  UNL     1      51.034   6.434   3.309  1.00  0.00    -0.210 NA
HETATM   31  C22 UNL     1      49.925   5.612   2.858  1.00  0.00     0.109 C 
HETATM   32  C23 UNL     1      49.090   6.461   1.904  1.00  0.00     0.040 C 
BRANCH  30  33
HETATM   33  S2  UNL     1      51.891   5.517   4.489  1.00  0.00     0.215 S 
HETATM   34  O4  UNL     1      52.949   6.396   5.090  1.00  0.00    -0.211 OA
HETATM   35  O5  UNL     1      50.928   5.140   5.578  1.00  0.00    -0.211 OA
BRANCH  33  36
HETATM   36  C15 UNL     1      52.635   4.071   3.773  1.00  0.00     0.196 C 
BRANCH  36  37
HETATM   37  C16 UNL     1      52.479   2.902   4.660  1.00  0.00    -0.043 A 
HETATM   38  C17 UNL     1      53.310   2.808   5.765  1.00  0.00     0.008 A 
HETATM   39  C18 UNL     1      53.187   1.727   6.613  1.00  0.00     0.001 A 
HETATM   40  C19 UNL     1      52.270   0.714   6.424  1.00  0.00     0.000 A 
HETATM   41  C20 UNL     1      51.433   0.813   5.308  1.00  0.00     0.001 A 
HETATM   42  C21 UNL     1      51.559   1.898   4.461  1.00  0.00     0.008 A 
ENDBRANCH  36  37
ENDBRANCH  33  36
ENDBRANCH  30  33
ENDBRANCH  25  27
ENDBRANCH   5  25
TORSDOF 10
ENDMDL
