MODEL 4
REMARK VINA RESULT: -9.618329819      2.712      3.348
REMARK  10 active torsions:
REMARK  status: ('A' for Active; 'I' for Inactive)
REMARK    1  A    between atoms: C1_2  and  C2_4 
REMARK    2  A    between atoms: C2_4  and  O3_5 
REMARK    3  A    between atoms: O3_5  and  C3_6 
REMARK    4  A    between atoms: C4_7  and  C5_8 
REMARK    5  A    between atoms: C6_16  and  C7_17 
REMARK    6  A    between atoms: C11_21  and  N5_22 
REMARK    7  A    between atoms: N5_22  and  C12_24 
REMARK    8  A    between atoms: N6_27  and  S2_28 
REMARK    9  A    between atoms: S2_28  and  C15_31 
REMARK   10  A    between atoms: C15_31  and  C16_32 
ROOT
HETATM    1  C7  UNL     1      45.893  11.418   0.798  1.00  0.00    -0.015 A 
HETATM    2  C8  UNL     1      45.003  10.544   0.283  1.00  0.00     0.013 A 
HETATM    3  C9  UNL     1      45.329   9.218  -0.035  1.00  0.00     0.003 A 
HETATM    4  C10 UNL     1      46.615   8.785   0.188  1.00  0.00     0.029 A 
HETATM    5  C11 UNL     1      47.559   9.642   0.712  1.00  0.00     0.029 A 
HETATM    6  C24 UNL     1      47.189  10.946   1.011  1.00  0.00     0.042 A 
ENDROOT
BRANCH   1   7
HETATM    7  C6  UNL     1      45.640  12.822   1.157  1.00  0.00     0.036 A 
HETATM    8  S1  UNL     1      44.693  13.944   0.225  1.00  0.00    -0.081 SA
HETATM    9  C4  UNL     1      44.834  15.316   1.216  1.00  0.00     0.086 A 
HETATM   10  C3  UNL     1      45.606  14.877   2.247  1.00  0.00     0.109 A 
HETATM   11  C25 UNL     1      46.021  13.590   2.211  1.00  0.00     0.063 A 
HETATM   12 BR1  UNL     1      47.137  12.888   3.657  1.00  0.00    -0.047 Br
BRANCH   9  13
HETATM   13  C5  UNL     1      44.294  16.654   0.928  1.00  0.00     0.151 A 
HETATM   14  N1  UNL     1      43.776  17.516   1.792  1.00  0.00    -0.269 N 
HETATM   15  N2  UNL     1      43.386  18.597   1.106  1.00  0.00    -0.007 NA
ATOM     16  H1  UNL     1      43.690  17.379   2.799  1.00  0.00     0.185 HD
HETATM   17  N3  UNL     1      43.648  18.432  -0.179  1.00  0.00    -0.007 NA
HETATM   18  N4  UNL     1      44.209  17.229  -0.280  1.00  0.00    -0.269 N 
ATOM     19  H4  UNL     1      44.528  16.806  -1.151  1.00  0.00     0.185 HD
ENDBRANCH   9  13
BRANCH  10  20
HETATM   20  O3  UNL     1      45.939  15.756   3.310  1.00  0.00    -0.338 OA
BRANCH  20  21
HETATM   21  C2  UNL     1      46.997  16.601   3.411  1.00  0.00     0.288 C 
BRANCH  21  22
HETATM   22  C1  UNL     1      47.434  17.133   4.695  1.00  0.00     0.198 C 
HETATM   23  O1  UNL     1      46.589  17.232   5.675  1.00  0.00    -0.646 OA
HETATM   24  O2  UNL     1      48.706  17.565   4.991  1.00  0.00    -0.646 OA
ENDBRANCH  21  22
ENDBRANCH  20  21
ENDBRANCH  10  20
ENDBRANCH   1   7
BRANCH   5  25
HETATM   25  N5  UNL     1      48.893   9.183   0.927  1.00  0.00    -0.385 N 
ATOM     26  H5  UNL     1      49.621   9.880   1.086  1.00  0.00     0.160 HD
BRANCH  25  27
HETATM   27  C12 UNL     1      49.274   7.786   0.935  1.00  0.00     0.084 C 
HETATM   28  C13 UNL     1      48.972   7.226   2.328  1.00  0.00     0.040 C 
HETATM   29  C14 UNL     1      49.993   7.747   3.313  1.00  0.00     0.109 C 
HETATM   30  N6  UNL     1      51.314   7.221   3.014  1.00  0.00    -0.210 NA
HETATM   31  C22 UNL     1      51.298   6.604   1.699  1.00  0.00     0.109 C 
HETATM   32  C23 UNL     1      50.771   7.646   0.717  1.00  0.00     0.040 C 
BRANCH  30  33
HETATM   33  S2  UNL     1      51.777   5.999   4.136  1.00  0.00     0.215 S 
HETATM   34  O4  UNL     1      52.458   4.897   3.377  1.00  0.00    -0.211 OA
HETATM   35  O5  UNL     1      52.775   6.592   5.089  1.00  0.00    -0.211 OA
BRANCH  33  36
HETATM   36  C15 UNL     1      50.371   5.356   5.012  1.00  0.00     0.196 C 
BRANCH  36  37
HETATM   37  C16 UNL     1      50.677   4.043   5.611  1.00  0.00    -0.043 A 
HETATM   38  C17 UNL     1      50.025   2.929   5.106  1.00  0.00     0.008 A 
HETATM   39  C18 UNL     1      50.291   1.688   5.645  1.00  0.00     0.001 A 
HETATM   40  C19 UNL     1      51.183   1.483   6.678  1.00  0.00     0.000 A 
HETATM   41  C20 UNL     1      51.839   2.610   7.184  1.00  0.00     0.001 A 
HETATM   42  C21 UNL     1      51.570   3.852   6.640  1.00  0.00     0.008 A 
ENDBRANCH  36  37
ENDBRANCH  33  36
ENDBRANCH  30  33
ENDBRANCH  25  27
ENDBRANCH   5  25
TORSDOF 10
ENDMDL
