MODEL 19
REMARK VINA RESULT: -8.792488135      2.649      3.313
REMARK  10 active torsions:
REMARK  status: ('A' for Active; 'I' for Inactive)
REMARK    1  A    between atoms: C1_2  and  C2_4 
REMARK    2  A    between atoms: C2_4  and  O3_5 
REMARK    3  A    between atoms: O3_5  and  C3_6 
REMARK    4  A    between atoms: C4_7  and  C5_8 
REMARK    5  A    between atoms: C6_16  and  C7_17 
REMARK    6  A    between atoms: C11_21  and  N5_22 
REMARK    7  A    between atoms: N5_22  and  C12_24 
REMARK    8  A    between atoms: N6_27  and  S2_28 
REMARK    9  A    between atoms: S2_28  and  C15_31 
REMARK   10  A    between atoms: C15_31  and  C16_32 
ROOT
HETATM    1  C7  UNL     1      45.616  11.169  -0.311  1.00  0.00    -0.015 A 
HETATM    2  C8  UNL     1      45.316  10.800  -1.575  1.00  0.00     0.013 A 
HETATM    3  C9  UNL     1      45.551   9.510  -2.070  1.00  0.00     0.003 A 
HETATM    4  C10 UNL     1      46.111   8.575  -1.232  1.00  0.00     0.029 A 
HETATM    5  C11 UNL     1      46.434   8.906   0.066  1.00  0.00     0.029 A 
HETATM    6  C24 UNL     1      46.184  10.196   0.512  1.00  0.00     0.042 A 
ENDROOT
BRANCH   1   7
HETATM    7  C6  UNL     1      45.408  12.496   0.289  1.00  0.00     0.036 A 
HETATM    8  S1  UNL     1      44.541  13.810  -0.449  1.00  0.00    -0.081 SA
HETATM    9  C4  UNL     1      44.704  14.974   0.778  1.00  0.00     0.086 A 
HETATM   10  C3  UNL     1      45.421  14.321   1.733  1.00  0.00     0.109 A 
HETATM   11  C25 UNL     1      45.784  13.044   1.475  1.00  0.00     0.063 A 
HETATM   12 BR1  UNL     1      46.820  12.041   2.799  1.00  0.00    -0.047 Br
BRANCH   9  13
HETATM   13  C5  UNL     1      44.230  16.365   0.723  1.00  0.00     0.151 A 
HETATM   14  N1  UNL     1      43.787  17.105   1.730  1.00  0.00    -0.269 N 
HETATM   15  N2  UNL     1      43.436  18.299   1.236  1.00  0.00    -0.007 NA
ATOM     16  H1  UNL     1      43.725  16.816   2.706  1.00  0.00     0.185 HD
HETATM   17  N3  UNL     1      43.648  18.325  -0.068  1.00  0.00    -0.007 NA
HETATM   18  N4  UNL     1      44.139  17.127  -0.376  1.00  0.00    -0.269 N 
ATOM     19  H4  UNL     1      44.407  16.831  -1.315  1.00  0.00     0.185 HD
ENDBRANCH   9  13
BRANCH  10  20
HETATM   20  O3  UNL     1      45.753  14.978   2.946  1.00  0.00    -0.338 OA
BRANCH  20  21
HETATM   21  C2  UNL     1      46.733  15.889   3.175  1.00  0.00     0.288 C 
BRANCH  21  22
HETATM   22  C1  UNL     1      46.528  17.030   4.058  1.00  0.00     0.198 C 
HETATM   23  O1  UNL     1      45.333  17.323   4.470  1.00  0.00    -0.646 OA
HETATM   24  O2  UNL     1      47.514  17.871   4.520  1.00  0.00    -0.646 OA
ENDBRANCH  21  22
ENDBRANCH  20  21
ENDBRANCH  10  20
ENDBRANCH   1   7
BRANCH   5  25
HETATM   25  N5  UNL     1      47.026   7.929   0.922  1.00  0.00    -0.385 N 
ATOM     26  H5  UNL     1      46.544   7.037   1.037  1.00  0.00     0.160 HD
BRANCH  25  27
HETATM   27  C12 UNL     1      48.269   8.128   1.637  1.00  0.00     0.084 C 
HETATM   28  C13 UNL     1      49.202   6.966   1.286  1.00  0.00     0.040 C 
HETATM   29  C14 UNL     1      48.733   5.712   1.989  1.00  0.00     0.109 C 
HETATM   30  N6  UNL     1      48.878   5.843   3.428  1.00  0.00    -0.210 NA
HETATM   31  C22 UNL     1      49.145   7.231   3.759  1.00  0.00     0.109 C 
HETATM   32  C23 UNL     1      48.031   8.067   3.136  1.00  0.00     0.040 C 
BRANCH  30  33
HETATM   33  S2  UNL     1      50.210   4.922   4.015  1.00  0.00     0.215 S 
HETATM   34  O4  UNL     1      51.458   5.420   3.347  1.00  0.00    -0.211 OA
HETATM   35  O5  UNL     1      50.340   5.174   5.490  1.00  0.00    -0.211 OA
BRANCH  33  36
HETATM   36  C15 UNL     1      49.994   3.188   3.687  1.00  0.00     0.196 C 
BRANCH  36  37
HETATM   37  C16 UNL     1      50.604   2.369   4.753  1.00  0.00    -0.043 A 
HETATM   38  C17 UNL     1      51.968   2.133   4.693  1.00  0.00     0.008 A 
HETATM   39  C18 UNL     1      52.566   1.372   5.674  1.00  0.00     0.001 A 
HETATM   40  C19 UNL     1      51.876   0.819   6.733  1.00  0.00     0.000 A 
HETATM   41  C20 UNL     1      50.499   1.060   6.791  1.00  0.00     0.001 A 
HETATM   42  C21 UNL     1      49.904   1.824   5.804  1.00  0.00     0.008 A 
ENDBRANCH  36  37
ENDBRANCH  33  36
ENDBRANCH  30  33
ENDBRANCH  25  27
ENDBRANCH   5  25
TORSDOF 10
ENDMDL
