MODEL 20
REMARK VINA RESULT: -8.689262524      2.716      3.277
REMARK  10 active torsions:
REMARK  status: ('A' for Active; 'I' for Inactive)
REMARK    1  A    between atoms: C1_2  and  C2_4 
REMARK    2  A    between atoms: C2_4  and  O3_5 
REMARK    3  A    between atoms: O3_5  and  C3_6 
REMARK    4  A    between atoms: C4_7  and  C5_8 
REMARK    5  A    between atoms: C6_16  and  C7_17 
REMARK    6  A    between atoms: C11_21  and  N5_22 
REMARK    7  A    between atoms: N5_22  and  C12_24 
REMARK    8  A    between atoms: N6_27  and  S2_28 
REMARK    9  A    between atoms: S2_28  and  C15_31 
REMARK   10  A    between atoms: C15_31  and  C16_32 
ROOT
HETATM    1  C7  UNL     1      45.819  11.020  -0.208  1.00  0.00    -0.015 A 
HETATM    2  C8  UNL     1      45.624  10.607  -1.479  1.00  0.00     0.013 A 
HETATM    3  C9  UNL     1      45.929   9.311  -1.917  1.00  0.00     0.003 A 
HETATM    4  C10 UNL     1      46.450   8.416  -1.012  1.00  0.00     0.029 A 
HETATM    5  C11 UNL     1      46.666   8.792   0.296  1.00  0.00     0.029 A 
HETATM    6  C24 UNL     1      46.349  10.087   0.684  1.00  0.00     0.042 A 
ENDROOT
BRANCH   1   7
HETATM    7  C6  UNL     1      45.532  12.356   0.335  1.00  0.00     0.036 A 
HETATM    8  S1  UNL     1      44.640  13.605  -0.482  1.00  0.00    -0.081 SA
HETATM    9  C4  UNL     1      44.704  14.816   0.707  1.00  0.00     0.086 A 
HETATM   10  C3  UNL     1      45.410  14.229   1.711  1.00  0.00     0.109 A 
HETATM   11  C25 UNL     1      45.836  12.960   1.514  1.00  0.00     0.063 A 
HETATM   12 BR1  UNL     1      46.860  12.051   2.912  1.00  0.00    -0.047 Br
BRANCH   9  13
HETATM   13  C5  UNL     1      44.175  16.183   0.584  1.00  0.00     0.151 A 
HETATM   14  N1  UNL     1      44.285  16.999  -0.455  1.00  0.00    -0.269 N 
HETATM   15  N2  UNL     1      43.681  18.150  -0.136  1.00  0.00    -0.007 NA
ATOM     16  H1  UNL     1      44.747  16.787  -1.339  1.00  0.00     0.185 HD
HETATM   17  N3  UNL     1      43.191  18.076   1.089  1.00  0.00    -0.007 NA
HETATM   18  N4  UNL     1      43.500  16.858   1.526  1.00  0.00    -0.269 N 
ATOM     19  H4  UNL     1      43.259  16.489   2.447  1.00  0.00     0.185 HD
ENDBRANCH   9  13
BRANCH  10  20
HETATM   20  O3  UNL     1      45.666  14.942   2.911  1.00  0.00    -0.338 OA
BRANCH  20  21
HETATM   21  C2  UNL     1      46.598  15.901   3.145  1.00  0.00     0.288 C 
BRANCH  21  22
HETATM   22  C1  UNL     1      46.366  16.978   4.098  1.00  0.00     0.198 C 
HETATM   23  O1  UNL     1      47.285  17.871   4.301  1.00  0.00    -0.646 OA
HETATM   24  O2  UNL     1      45.223  17.154   4.843  1.00  0.00    -0.646 OA
ENDBRANCH  21  22
ENDBRANCH  20  21
ENDBRANCH  10  20
ENDBRANCH   1   7
BRANCH   5  25
HETATM   25  N5  UNL     1      47.218   7.857   1.222  1.00  0.00    -0.385 N 
ATOM     26  H5  UNL     1      46.825   6.915   1.244  1.00  0.00     0.160 HD
BRANCH  25  27
HETATM   27  C12 UNL     1      48.301   8.164   2.132  1.00  0.00     0.084 C 
HETATM   28  C13 UNL     1      49.595   8.227   1.315  1.00  0.00     0.040 C 
HETATM   29  C14 UNL     1      50.014   6.828   0.925  1.00  0.00     0.109 C 
HETATM   30  N6  UNL     1      50.389   6.056   2.098  1.00  0.00    -0.210 NA
HETATM   31  C22 UNL     1      49.965   6.763   3.293  1.00  0.00     0.109 C 
HETATM   32  C23 UNL     1      48.473   7.046   3.146  1.00  0.00     0.040 C 
BRANCH  30  33
HETATM   33  S2  UNL     1      52.097   5.864   2.208  1.00  0.00     0.215 S 
HETATM   34  O4  UNL     1      52.705   6.297   0.905  1.00  0.00    -0.211 OA
HETATM   35  O5  UNL     1      52.603   6.781   3.284  1.00  0.00    -0.211 OA
BRANCH  33  36
HETATM   36  C15 UNL     1      52.539   4.178   2.555  1.00  0.00     0.196 C 
BRANCH  36  37
HETATM   37  C16 UNL     1      52.338   3.862   3.982  1.00  0.00    -0.043 A 
HETATM   38  C17 UNL     1      51.068   3.490   4.395  1.00  0.00     0.008 A 
HETATM   39  C18 UNL     1      50.850   3.189   5.722  1.00  0.00     0.001 A 
HETATM   40  C19 UNL     1      51.838   3.236   6.684  1.00  0.00     0.000 A 
HETATM   41  C20 UNL     1      53.118   3.611   6.264  1.00  0.00     0.001 A 
HETATM   42  C21 UNL     1      53.332   3.912   4.932  1.00  0.00     0.008 A 
ENDBRANCH  36  37
ENDBRANCH  33  36
ENDBRANCH  30  33
ENDBRANCH  25  27
ENDBRANCH   5  25
TORSDOF 10
ENDMDL
