MODEL 5
REMARK VINA RESULT: -6.724805440      5.016      7.552
REMARK  2 active torsions:
REMARK  status: ('A' for Active; 'I' for Inactive)
REMARK    1  A    between atoms: N1_4  and  C3_5 
REMARK    2  A    between atoms: C5_8  and  C6_9 
ROOT
HETATM    1  C3  UNL     1      31.832 -31.946   0.453  1.00  0.00     0.076 A 
HETATM    2  C4  UNL     1      32.955 -31.924   1.233  1.00  0.00     0.082 A 
HETATM    3  S1  UNL     1      34.053 -31.039   0.288  1.00  0.00    -0.097 SA
HETATM    4  C5  UNL     1      33.049 -30.714  -1.090  1.00  0.00     0.039 A 
HETATM    5  C12 UNL     1      31.886 -31.324  -0.736  1.00  0.00     0.080 A 
HETATM    6 CL1  UNL     1      30.467 -31.298  -1.829  1.00  0.00    -0.080 Cl
ENDROOT
BRANCH   1   7
HETATM    7  N1  UNL     1      30.661 -32.637   0.963  1.00  0.00    -0.248 N 
HETATM    8  C2  UNL     1      30.037 -33.844   0.461  1.00  0.00     0.247 C 
HETATM    9  C1  UNL     1      29.439 -34.565   1.593  1.00  0.00     0.251 C 
HETATM   10  O1  UNL     1      29.415 -35.823   1.677  1.00  0.00    -0.271 OA
HETATM   11  N2  UNL     1      28.891 -33.704   2.576  1.00  0.00    -0.235 N 
HETATM   12  S2  UNL     1      29.686 -32.188   2.336  1.00  0.00     0.328 S 
ATOM     13  H2  UNL     1      28.182 -33.929   3.274  1.00  0.00     0.183 HD
HETATM   14  O2  UNL     1      28.752 -31.093   1.991  1.00  0.00    -0.182 OA
HETATM   15  O3  UNL     1      30.546 -31.891   3.525  1.00  0.00    -0.182 OA
ENDBRANCH   1   7
BRANCH   4  16
HETATM   16  C6  UNL     1      33.488 -29.962  -2.257  1.00  0.00    -0.017 A 
HETATM   17  C7  UNL     1      32.741 -29.060  -2.960  1.00  0.00     0.013 A 
HETATM   18  C8  UNL     1      33.257 -28.395  -4.061  1.00  0.00     0.001 A 
HETATM   19  C9  UNL     1      34.540 -28.613  -4.494  1.00  0.00     0.000 A 
HETATM   20  C10 UNL     1      35.313 -29.521  -3.801  1.00  0.00     0.001 A 
HETATM   21  C11 UNL     1      34.791 -30.176  -2.709  1.00  0.00     0.013 A 
ENDBRANCH   4  16
TORSDOF 2
ENDMDL
