MODEL 3
REMARK VINA RESULT: -7.316992286      4.369      7.181
REMARK  2 active torsions:
REMARK  status: ('A' for Active; 'I' for Inactive)
REMARK    1  A    between atoms: N1_4  and  C3_5 
REMARK    2  A    between atoms: C5_8  and  C6_9 
ROOT
HETATM    1  C3  UNL     1      32.221 -31.216  -0.516  1.00  0.00     0.076 A 
HETATM    2  C4  UNL     1      33.358 -31.457   0.204  1.00  0.00     0.082 A 
HETATM    3  S1  UNL     1      34.546 -30.627  -0.680  1.00  0.00    -0.097 SA
HETATM    4  C5  UNL     1      33.560 -29.987  -1.956  1.00  0.00     0.039 A 
HETATM    5  C12 UNL     1      32.330 -30.462  -1.621  1.00  0.00     0.080 A 
HETATM    6 CL1  UNL     1      30.898 -30.092  -2.631  1.00  0.00    -0.080 Cl
ENDROOT
BRANCH   1   7
HETATM    7  N1  UNL     1      30.976 -31.790  -0.035  1.00  0.00    -0.248 N 
HETATM    8  C2  UNL     1      30.351 -33.038  -0.423  1.00  0.00     0.247 C 
HETATM    9  C1  UNL     1      29.613 -33.568   0.732  1.00  0.00     0.251 C 
HETATM   10  O1  UNL     1      29.525 -34.799   0.991  1.00  0.00    -0.271 OA
HETATM   11  N2  UNL     1      29.012 -32.556   1.522  1.00  0.00    -0.235 N 
HETATM   12  S2  UNL     1      29.894 -31.117   1.153  1.00  0.00     0.328 S 
ATOM     13  H2  UNL     1      28.229 -32.657   2.168  1.00  0.00     0.183 HD
HETATM   14  O2  UNL     1      29.047 -30.056   0.561  1.00  0.00    -0.182 OA
HETATM   15  O3  UNL     1      30.646 -30.676   2.369  1.00  0.00    -0.182 OA
ENDBRANCH   1   7
BRANCH   4  16
HETATM   16  C6  UNL     1      34.070 -29.164  -3.044  1.00  0.00    -0.017 A 
HETATM   17  C7  UNL     1      33.667 -27.895  -3.349  1.00  0.00     0.013 A 
HETATM   18  C8  UNL     1      34.220 -27.195  -4.410  1.00  0.00     0.001 A 
HETATM   19  C9  UNL     1      35.195 -27.746  -5.201  1.00  0.00     0.000 A 
HETATM   20  C10 UNL     1      35.619 -29.027  -4.912  1.00  0.00     0.001 A 
HETATM   21  C11 UNL     1      35.063 -29.712  -3.857  1.00  0.00     0.013 A 
ENDBRANCH   4  16
TORSDOF 2
ENDMDL
