MODEL 1
REMARK VINA RESULT: -8.451719550      0.000      0.000
REMARK  2 active torsions:
REMARK  status: ('A' for Active; 'I' for Inactive)
REMARK    1  A    between atoms: N1_4  and  C3_5 
REMARK    2  A    between atoms: C5_8  and  C6_9 
ROOT
HETATM    1  C3  UNL     1      34.070 -29.638  -2.393  1.00  0.00     0.076 A 
HETATM    2  C4  UNL     1      35.218 -29.850  -1.682  1.00  0.00     0.082 A 
HETATM    3  S1  UNL     1      34.716 -30.928  -0.470  1.00  0.00    -0.097 SA
HETATM    4  C5  UNL     1      33.043 -31.086  -0.901  1.00  0.00     0.039 A 
HETATM    5  C12 UNL     1      32.959 -30.274  -1.990  1.00  0.00     0.080 A 
HETATM    6 CL1  UNL     1      31.407 -30.061  -2.857  1.00  0.00    -0.080 Cl
ENDROOT
BRANCH   1   7
HETATM    7  N1  UNL     1      34.132 -28.742  -3.535  1.00  0.00    -0.248 N 
HETATM    8  C2  UNL     1      33.601 -27.400  -3.658  1.00  0.00     0.247 C 
HETATM    9  C1  UNL     1      34.465 -26.638  -4.569  1.00  0.00     0.251 C 
HETATM   10  O1  UNL     1      34.721 -25.413  -4.418  1.00  0.00    -0.271 OA
HETATM   11  N2  UNL     1      34.980 -27.420  -5.634  1.00  0.00    -0.235 N 
HETATM   12  S2  UNL     1      34.875 -29.054  -5.081  1.00  0.00     0.328 S 
ATOM     13  H2  UNL     1      35.335 -27.090  -6.531  1.00  0.00     0.183 HD
HETATM   14  O2  UNL     1      34.004 -29.897  -5.930  1.00  0.00    -0.182 OA
HETATM   15  O3  UNL     1      36.257 -29.603  -4.906  1.00  0.00    -0.182 OA
ENDBRANCH   1   7
BRANCH   4  16
HETATM   16  C6  UNL     1      32.091 -31.919  -0.179  1.00  0.00    -0.017 A 
HETATM   17  C7  UNL     1      30.973 -32.502  -0.703  1.00  0.00     0.013 A 
HETATM   18  C8  UNL     1      30.130 -33.281   0.074  1.00  0.00     0.001 A 
HETATM   19  C9  UNL     1      30.381 -33.500   1.405  1.00  0.00     0.000 A 
HETATM   20  C10 UNL     1      31.505 -32.921   1.957  1.00  0.00     0.001 A 
HETATM   21  C11 UNL     1      32.335 -32.150   1.175  1.00  0.00     0.013 A 
ENDBRANCH   4  16
TORSDOF 2
ENDMDL
