MODEL 2
REMARK VINA RESULT: -7.323071307      4.159      7.090
REMARK  2 active torsions:
REMARK  status: ('A' for Active; 'I' for Inactive)
REMARK    1  A    between atoms: N1_4  and  C3_5 
REMARK    2  A    between atoms: C5_8  and  C6_9 
ROOT
HETATM    1  C3  UNL     1      32.508 -31.011  -0.725  1.00  0.00     0.076 A 
HETATM    2  C4  UNL     1      33.658 -31.285  -0.038  1.00  0.00     0.082 A 
HETATM    3  S1  UNL     1      34.842 -30.479  -0.949  1.00  0.00    -0.097 SA
HETATM    4  C5  UNL     1      33.838 -29.805  -2.194  1.00  0.00     0.039 A 
HETATM    5  C12 UNL     1      32.606 -30.252  -1.828  1.00  0.00     0.080 A 
HETATM    6 CL1  UNL     1      31.157 -29.838  -2.796  1.00  0.00    -0.080 Cl
ENDROOT
BRANCH   1   7
HETATM    7  N1  UNL     1      31.262 -31.557  -0.215  1.00  0.00    -0.248 N 
HETATM    8  C2  UNL     1      30.689 -32.866  -0.452  1.00  0.00     0.247 C 
HETATM    9  C1  UNL     1      29.923 -33.261   0.738  1.00  0.00     0.251 C 
HETATM   10  O1  UNL     1      29.860 -34.449   1.158  1.00  0.00    -0.271 OA
HETATM   11  N2  UNL     1      29.262 -32.174   1.363  1.00  0.00    -0.235 N 
HETATM   12  S2  UNL     1      30.116 -30.768   0.833  1.00  0.00     0.328 S 
ATOM     13  H2  UNL     1      28.458 -32.213   1.989  1.00  0.00     0.183 HD
HETATM   14  O2  UNL     1      29.263 -29.825   0.075  1.00  0.00    -0.182 OA
HETATM   15  O3  UNL     1      30.807 -30.143   2.005  1.00  0.00    -0.182 OA
ENDBRANCH   1   7
BRANCH   4  16
HETATM   16  C6  UNL     1      34.339 -28.987  -3.289  1.00  0.00    -0.017 A 
HETATM   17  C7  UNL     1      35.175 -29.402  -4.286  1.00  0.00     0.013 A 
HETATM   18  C8  UNL     1      35.594 -28.539  -5.286  1.00  0.00     0.001 A 
HETATM   19  C9  UNL     1      35.189 -27.229  -5.318  1.00  0.00     0.000 A 
HETATM   20  C10 UNL     1      34.344 -26.786  -4.321  1.00  0.00     0.001 A 
HETATM   21  C11 UNL     1      33.934 -27.652  -3.334  1.00  0.00     0.013 A 
ENDBRANCH   4  16
TORSDOF 2
ENDMDL
