MODEL 7
REMARK VINA RESULT: -5.760769690      7.286      8.627
REMARK  3 active torsions:
REMARK  status: ('A' for Active; 'I' for Inactive)
REMARK    1  A    between atoms: C2_2  and  O1_3 
REMARK    2  A    between atoms: C2_2  and  C3_8 
REMARK    3  A    between atoms: O1_3  and  P1_4 
ROOT
HETATM    1  C1  UNL     1      37.848  57.087  16.214  1.00  0.00     0.059 C 
HETATM    2  C2  UNL     1      38.343  55.880  16.343  1.00  0.00     0.149 C 
ENDROOT
BRANCH   2   3
HETATM    3  O1  UNL     1      37.848  54.959  17.268  1.00  0.00    -0.234 OA
BRANCH   3   4
HETATM    4  P1  UNL     1      36.858  53.644  16.804  1.00  0.00     0.427 P 
HETATM    5  O2  UNL     1      37.678  52.385  16.977  1.00  0.00    -0.617 OA
HETATM    6  O3  UNL     1      36.363  53.753  15.198  1.00  0.00    -0.617 OA
HETATM    7  O4  UNL     1      35.482  53.548  17.810  1.00  0.00    -0.617 OA
ENDBRANCH   3   4
ENDBRANCH   2   3
BRANCH   2   8
HETATM    8  C3  UNL     1      39.452  55.489  15.483  1.00  0.00     0.233 C 
HETATM    9  O5  UNL     1      39.280  54.934  14.365  1.00  0.00    -0.642 OA
HETATM   10  O6  UNL     1      40.745  55.722  15.883  1.00  0.00    -0.642 OA
ENDBRANCH   2   8
TORSDOF 3
ENDMDL
