MODEL 13
REMARK VINA RESULT: -5.720468916      7.389      8.670
REMARK  3 active torsions:
REMARK  status: ('A' for Active; 'I' for Inactive)
REMARK    1  A    between atoms: C2_2  and  O1_3 
REMARK    2  A    between atoms: C2_2  and  C3_8 
REMARK    3  A    between atoms: O1_3  and  P1_4 
ROOT
HETATM    1  C1  UNL     1      37.962  57.231  16.200  1.00  0.00     0.059 C 
HETATM    2  C2  UNL     1      38.440  56.022  16.368  1.00  0.00     0.149 C 
ENDROOT
BRANCH   2   3
HETATM    3  O1  UNL     1      37.939  55.142  17.329  1.00  0.00    -0.234 OA
BRANCH   3   4
HETATM    4  P1  UNL     1      36.894  53.850  16.925  1.00  0.00     0.427 P 
HETATM    5  O2  UNL     1      36.388  54.108  15.523  1.00  0.00    -0.617 OA
HETATM    6  O3  UNL     1      35.576  53.745  17.968  1.00  0.00    -0.617 OA
HETATM    7  O4  UNL     1      37.742  52.368  16.942  1.00  0.00    -0.617 OA
ENDBRANCH   3   4
ENDBRANCH   2   3
BRANCH   2   8
HETATM    8  C3  UNL     1      39.536  55.584  15.514  1.00  0.00     0.233 C 
HETATM    9  O5  UNL     1      40.745  55.747  15.827  1.00  0.00    -0.642 OA
HETATM   10  O6  UNL     1      39.269  54.968  14.316  1.00  0.00    -0.642 OA
ENDBRANCH   2   8
TORSDOF 3
ENDMDL
