MODEL 5
REMARK VINA RESULT: -5.786725481      0.237      1.463
REMARK  3 active torsions:
REMARK  status: ('A' for Active; 'I' for Inactive)
REMARK    1  A    between atoms: C2_2  and  O1_3 
REMARK    2  A    between atoms: C2_2  and  C3_8 
REMARK    3  A    between atoms: O1_3  and  P1_4 
ROOT
HETATM    1  C1  UNL     1      34.925  50.764  21.277  1.00  0.00     0.059 C 
HETATM    2  C2  UNL     1      33.646  51.052  21.274  1.00  0.00     0.149 C 
ENDROOT
BRANCH   2   3
HETATM    3  O1  UNL     1      32.872  51.025  20.112  1.00  0.00    -0.234 OA
BRANCH   3   4
HETATM    4  P1  UNL     1      32.592  49.583  19.238  1.00  0.00     0.427 P 
HETATM    5  O2  UNL     1      32.913  48.430  20.163  1.00  0.00    -0.617 OA
HETATM    6  O3  UNL     1      33.565  49.467  17.868  1.00  0.00    -0.617 OA
HETATM    7  O4  UNL     1      30.953  49.476  18.771  1.00  0.00    -0.617 OA
ENDBRANCH   3   4
ENDBRANCH   2   3
BRANCH   2   8
HETATM    8  C3  UNL     1      33.012  51.413  22.535  1.00  0.00     0.233 C 
HETATM    9  O5  UNL     1      31.788  51.698  22.621  1.00  0.00    -0.642 OA
HETATM   10  O6  UNL     1      33.755  51.451  23.690  1.00  0.00    -0.642 OA
ENDBRANCH   2   8
TORSDOF 3
ENDMDL
