MODEL 8
REMARK VINA RESULT: -5.760081432      7.242      8.505
REMARK  3 active torsions:
REMARK  status: ('A' for Active; 'I' for Inactive)
REMARK    1  A    between atoms: C2_2  and  O1_3 
REMARK    2  A    between atoms: C2_2  and  C3_8 
REMARK    3  A    between atoms: O1_3  and  P1_4 
ROOT
HETATM    1  C1  UNL     1      37.634  56.730  16.205  1.00  0.00     0.059 C 
HETATM    2  C2  UNL     1      38.419  55.727  16.512  1.00  0.00     0.149 C 
ENDROOT
BRANCH   2   3
HETATM    3  O1  UNL     1      38.305  55.021  17.711  1.00  0.00    -0.234 OA
BRANCH   3   4
HETATM    4  P1  UNL     1      37.327  53.626  17.857  1.00  0.00     0.427 P 
HETATM    5  O2  UNL     1      37.406  53.175  19.299  1.00  0.00    -0.617 OA
HETATM    6  O3  UNL     1      37.852  52.371  16.865  1.00  0.00    -0.617 OA
HETATM    7  O4  UNL     1      35.702  53.994  17.483  1.00  0.00    -0.617 OA
ENDBRANCH   3   4
ENDBRANCH   2   3
BRANCH   2   8
HETATM    8  C3  UNL     1      39.450  55.335  15.559  1.00  0.00     0.233 C 
HETATM    9  O5  UNL     1      39.208  54.608  14.560  1.00  0.00    -0.642 OA
HETATM   10  O6  UNL     1      40.744  55.761  15.735  1.00  0.00    -0.642 OA
ENDBRANCH   2   8
TORSDOF 3
ENDMDL
