MODEL 1
REMARK VINA RESULT: -6.016046913      0.000      0.000
REMARK  3 active torsions:
REMARK  status: ('A' for Active; 'I' for Inactive)
REMARK    1  A    between atoms: C2_2  and  O1_3 
REMARK    2  A    between atoms: C2_2  and  C3_8 
REMARK    3  A    between atoms: O1_3  and  P1_4 
ROOT
HETATM    1  C1  UNL     1      34.734  51.096  21.036  1.00  0.00     0.059 C 
HETATM    2  C2  UNL     1      33.434  51.196  21.171  1.00  0.00     0.149 C 
ENDROOT
BRANCH   2   3
HETATM    3  O1  UNL     1      32.550  51.012  20.106  1.00  0.00    -0.234 OA
BRANCH   3   4
HETATM    4  P1  UNL     1      32.491  49.556  19.212  1.00  0.00     0.427 P 
HETATM    5  O2  UNL     1      31.066  49.382  18.736  1.00  0.00    -0.617 OA
HETATM    6  O3  UNL     1      32.922  48.219  20.140  1.00  0.00    -0.617 OA
HETATM    7  O4  UNL     1      33.519  49.649  17.851  1.00  0.00    -0.617 OA
ENDBRANCH   3   4
ENDBRANCH   2   3
BRANCH   2   8
HETATM    8  C3  UNL     1      32.895  51.510  22.488  1.00  0.00     0.233 C 
HETATM    9  O5  UNL     1      31.683  51.798  22.673  1.00  0.00    -0.642 OA
HETATM   10  O6  UNL     1      33.719  51.499  23.586  1.00  0.00    -0.642 OA
ENDBRANCH   2   8
TORSDOF 3
ENDMDL
