MODEL 2
REMARK VINA RESULT: -6.009319556      0.060      1.008
REMARK  3 active torsions:
REMARK  status: ('A' for Active; 'I' for Inactive)
REMARK    1  A    between atoms: C2_2  and  O1_3 
REMARK    2  A    between atoms: C2_2  and  C3_8 
REMARK    3  A    between atoms: O1_3  and  P1_4 
ROOT
HETATM    1  C1  UNL     1      34.769  51.117  20.981  1.00  0.00     0.059 C 
HETATM    2  C2  UNL     1      33.474  51.191  21.167  1.00  0.00     0.149 C 
ENDROOT
BRANCH   2   3
HETATM    3  O1  UNL     1      32.553  51.012  20.133  1.00  0.00    -0.234 OA
BRANCH   3   4
HETATM    4  P1  UNL     1      32.498  49.579  19.201  1.00  0.00     0.427 P 
HETATM    5  O2  UNL     1      31.068  49.401  18.741  1.00  0.00    -0.617 OA
HETATM    6  O3  UNL     1      32.958  48.223  20.087  1.00  0.00    -0.617 OA
HETATM    7  O4  UNL     1      33.505  49.720  17.829  1.00  0.00    -0.617 OA
ENDBRANCH   3   4
ENDBRANCH   2   3
BRANCH   2   8
HETATM    8  C3  UNL     1      32.980  51.471  22.509  1.00  0.00     0.233 C 
HETATM    9  O5  UNL     1      33.728  51.458  23.523  1.00  0.00    -0.642 OA
HETATM   10  O6  UNL     1      31.653  51.763  22.705  1.00  0.00    -0.642 OA
ENDBRANCH   2   8
TORSDOF 3
ENDMDL
