MODEL 14
REMARK VINA RESULT: -10.062354999      6.984      8.569
REMARK  5 active torsions:
REMARK  status: ('A' for Active; 'I' for Inactive)
REMARK    1  A    between atoms: C3_4  and  N2_5 
REMARK       I    between atoms: N2_5  and  C4_7 
REMARK    2  A    between atoms: C4_7  and  C5_9 
REMARK       I    between atoms: N3_24  and  C19_25 
REMARK    3  A    between atoms: C19_25  and  C20_27 
REMARK    4  A    between atoms: C20_27  and  C21_28 
REMARK    5  A    between atoms: C21_28  and  N4_29 
ROOT
HETATM    1  N1  UNL     1      27.433   9.400  29.512  1.00  0.00    -0.191 NA
HETATM    2  C1  UNL     1      27.051  10.396  29.006  1.00  0.00     0.103 C 
HETATM    3  C2  UNL     1      26.615  11.666  28.369  1.00  0.00     0.086 A 
HETATM    4  C3  UNL     1      25.522  12.331  28.801  1.00  0.00     0.098 A 
HETATM    5  S1  UNL     1      25.551  13.756  27.761  1.00  0.00    -0.073 SA
HETATM    6  C15 UNL     1      26.922  13.410  26.862  1.00  0.00     0.011 A 
HETATM    7  C16 UNL     1      27.353  12.209  27.364  1.00  0.00    -0.018 A 
HETATM    8  C17 UNL     1      28.627  11.731  26.674  1.00  0.00     0.061 C 
HETATM    9  C18 UNL     1      29.612  12.886  26.800  1.00  0.00     0.131 C 
HETATM   10  N3  UNL     1      29.077  14.020  26.099  1.00  0.00    -0.347 N 
HETATM   11  C19 UNL     1      29.865  15.118  25.761  1.00  0.00     0.221 C 
HETATM   12  O2  UNL     1      29.318  16.078  25.126  1.00  0.00    -0.273 OA
HETATM   13  C27 UNL     1      27.675  14.063  25.731  1.00  0.00     0.172 C 
ENDROOT
BRANCH   4  14
HETATM   14  N2  UNL     1      24.445  12.053  29.685  1.00  0.00    -0.316 N 
HETATM   15  C4  UNL     1      24.431  11.951  31.076  1.00  0.00     0.257 C 
HETATM   16  O1  UNL     1      25.460  12.102  31.730  1.00  0.00    -0.267 OA
ATOM     17  H2  UNL     1      23.543  11.905  29.232  1.00  0.00     0.169 HD
BRANCH  15  18
HETATM   18  C5  UNL     1      23.134  11.639  31.715  1.00  0.00     0.043 A 
HETATM   19  C6  UNL     1      22.450  12.727  32.248  1.00  0.00     0.018 A 
HETATM   20  C7  UNL     1      21.282  12.515  32.925  1.00  0.00     0.002 A 
HETATM   21  C8  UNL     1      20.772  11.245  33.085  1.00  0.00     0.012 A 
HETATM   22  C9  UNL     1      21.443  10.140  32.555  1.00  0.00    -0.025 A 
HETATM   23  C10 UNL     1      20.920   8.881  32.694  1.00  0.00     0.012 A 
HETATM   24  C14 UNL     1      22.626  10.390  31.876  1.00  0.00    -0.010 A 
HETATM   25  C11 UNL     1      21.592   7.822  32.139  1.00  0.00     0.001 A 
HETATM   26  C12 UNL     1      22.769   8.043  31.461  1.00  0.00     0.001 A 
HETATM   27  C13 UNL     1      23.303   9.306  31.315  1.00  0.00     0.013 A 
ENDBRANCH  15  18
ENDBRANCH   4  14
BRANCH  11  28
HETATM   28  C20 UNL     1      31.301  15.169  26.131  1.00  0.00     0.133 C 
BRANCH  28  29
HETATM   29  C21 UNL     1      31.957  16.065  25.091  1.00  0.00     0.281 C 
BRANCH  29  30
HETATM   30  N4  UNL     1      32.587  17.207  25.617  1.00  0.00     0.088 N 
HETATM   31  C22 UNL     1      32.929  17.111  27.047  1.00  0.00     0.272 C 
HETATM   32  C23 UNL     1      33.951  18.159  27.315  1.00  0.00     0.030 C 
HETATM   33  C24 UNL     1      33.735  19.484  26.695  1.00  0.00     0.003 C 
HETATM   34  C25 UNL     1      32.607  19.645  25.751  1.00  0.00     0.030 C 
HETATM   35  C26 UNL     1      31.795  18.398  25.497  1.00  0.00     0.272 C 
ENDBRANCH  29  30
ENDBRANCH  28  29
ENDBRANCH  11  28
TORSDOF 5
ENDMDL
