MODEL 11
REMARK VINA RESULT: -10.319906087      1.470      1.565
REMARK  5 active torsions:
REMARK  status: ('A' for Active; 'I' for Inactive)
REMARK    1  A    between atoms: C3_4  and  N2_5 
REMARK       I    between atoms: N2_5  and  C4_7 
REMARK    2  A    between atoms: C4_7  and  C5_9 
REMARK       I    between atoms: N3_24  and  C19_25 
REMARK    3  A    between atoms: C19_25  and  C20_27 
REMARK    4  A    between atoms: C20_27  and  C21_28 
REMARK    5  A    between atoms: C21_28  and  N4_29 
ROOT
HETATM    1  N1  UNL     1      21.325   6.359  32.035  1.00  0.00    -0.191 NA
HETATM    2  C1  UNL     1      21.863   7.373  31.759  1.00  0.00     0.103 C 
HETATM    3  C2  UNL     1      22.582   8.626  31.408  1.00  0.00     0.086 A 
HETATM    4  C3  UNL     1      22.385   9.769  32.100  1.00  0.00     0.098 A 
HETATM    5  S1  UNL     1      23.531  10.852  31.309  1.00  0.00    -0.073 SA
HETATM    6  C15 UNL     1      24.165   9.798  30.171  1.00  0.00     0.011 A 
HETATM    7  C16 UNL     1      23.499   8.621  30.404  1.00  0.00    -0.018 A 
HETATM    8  C17 UNL     1      23.963   7.514  29.463  1.00  0.00     0.061 C 
HETATM    9  C18 UNL     1      25.477   7.455  29.624  1.00  0.00     0.131 C 
HETATM   10  N3  UNL     1      26.029   8.712  29.203  1.00  0.00    -0.347 N 
HETATM   11  C19 UNL     1      27.388   8.869  28.931  1.00  0.00     0.221 C 
HETATM   12  O2  UNL     1      27.796  10.013  28.548  1.00  0.00    -0.273 OA
HETATM   13  C27 UNL     1      25.180   9.878  29.060  1.00  0.00     0.172 C 
ENDROOT
BRANCH   4  14
HETATM   14  N2  UNL     1      21.459  10.218  33.078  1.00  0.00    -0.316 N 
HETATM   15  C4  UNL     1      21.115  11.516  33.457  1.00  0.00     0.257 C 
HETATM   16  O1  UNL     1      21.643  12.490  32.926  1.00  0.00    -0.267 OA
ATOM     17  H2  UNL     1      20.970   9.478  33.581  1.00  0.00     0.169 HD
BRANCH  15  18
HETATM   18  C5  UNL     1      20.105  11.659  34.528  1.00  0.00     0.043 A 
HETATM   19  C6  UNL     1      20.318  10.882  35.662  1.00  0.00     0.018 A 
HETATM   20  C7  UNL     1      19.390  10.896  36.665  1.00  0.00     0.002 A 
HETATM   21  C8  UNL     1      18.253  11.667  36.572  1.00  0.00     0.012 A 
HETATM   22  C9  UNL     1      18.021  12.456  35.443  1.00  0.00    -0.025 A 
HETATM   23  C10 UNL     1      16.901  13.241  35.364  1.00  0.00     0.012 A 
HETATM   24  C14 UNL     1      18.981  12.417  34.443  1.00  0.00    -0.010 A 
HETATM   25  C11 UNL     1      16.719  14.022  34.252  1.00  0.00     0.001 A 
HETATM   26  C12 UNL     1      17.656  14.001  33.245  1.00  0.00     0.001 A 
HETATM   27  C13 UNL     1      18.787  13.215  33.314  1.00  0.00     0.013 A 
ENDBRANCH  15  18
ENDBRANCH   4  14
BRANCH  11  28
HETATM   28  C20 UNL     1      28.331   7.734  29.085  1.00  0.00     0.133 C 
BRANCH  28  29
HETATM   29  C21 UNL     1      29.720   8.353  29.054  1.00  0.00     0.281 C 
BRANCH  29  30
HETATM   30  N4  UNL     1      30.772   7.425  28.970  1.00  0.00     0.088 N 
HETATM   31  C22 UNL     1      31.326   7.251  27.616  1.00  0.00     0.272 C 
HETATM   32  C23 UNL     1      32.664   6.619  27.777  1.00  0.00     0.030 C 
HETATM   33  C24 UNL     1      32.777   5.525  28.767  1.00  0.00     0.003 C 
HETATM   34  C25 UNL     1      31.607   5.223  29.621  1.00  0.00     0.030 C 
HETATM   35  C26 UNL     1      30.402   6.106  29.399  1.00  0.00     0.272 C 
ENDBRANCH  29  30
ENDBRANCH  28  29
ENDBRANCH  11  28
TORSDOF 5
ENDMDL
