MODEL 16
REMARK VINA RESULT: -10.007159590      7.570      9.104
REMARK  5 active torsions:
REMARK  status: ('A' for Active; 'I' for Inactive)
REMARK    1  A    between atoms: C3_4  and  N2_5 
REMARK       I    between atoms: N2_5  and  C4_7 
REMARK    2  A    between atoms: C4_7  and  C5_9 
REMARK       I    between atoms: N3_24  and  C19_25 
REMARK    3  A    between atoms: C19_25  and  C20_27 
REMARK    4  A    between atoms: C20_27  and  C21_28 
REMARK    5  A    between atoms: C21_28  and  N4_29 
ROOT
HETATM    1  N1  UNL     1      27.591  10.013  29.100  1.00  0.00    -0.191 NA
HETATM    2  C1  UNL     1      27.142  11.005  28.644  1.00  0.00     0.103 C 
HETATM    3  C2  UNL     1      26.619  12.274  28.071  1.00  0.00     0.086 A 
HETATM    4  C3  UNL     1      25.509  12.865  28.563  1.00  0.00     0.098 A 
HETATM    5  S1  UNL     1      25.430  14.325  27.577  1.00  0.00    -0.073 SA
HETATM    6  C15 UNL     1      26.786  14.084  26.621  1.00  0.00     0.011 A 
HETATM    7  C16 UNL     1      27.294  12.890  27.064  1.00  0.00    -0.018 A 
HETATM    8  C17 UNL     1      28.566  12.505  26.315  1.00  0.00     0.061 C 
HETATM    9  C18 UNL     1      29.494  13.705  26.453  1.00  0.00     0.131 C 
HETATM   10  N3  UNL     1      28.879  14.833  25.813  1.00  0.00    -0.347 N 
HETATM   11  C19 UNL     1      29.598  15.983  25.491  1.00  0.00     0.221 C 
HETATM   12  O2  UNL     1      28.981  16.935  24.911  1.00  0.00    -0.273 OA
HETATM   13  C27 UNL     1      27.465  14.816  25.492  1.00  0.00     0.172 C 
ENDROOT
BRANCH   4  14
HETATM   14  N2  UNL     1      24.479  12.499  29.469  1.00  0.00    -0.316 N 
HETATM   15  C4  UNL     1      24.524  12.320  30.852  1.00  0.00     0.257 C 
HETATM   16  O1  UNL     1      25.572  12.474  31.475  1.00  0.00    -0.267 OA
ATOM     17  H2  UNL     1      23.565  12.342  29.044  1.00  0.00     0.169 HD
BRANCH  15  18
HETATM   18  C5  UNL     1      23.265  11.926  31.522  1.00  0.00     0.043 A 
HETATM   19  C6  UNL     1      22.534  12.965  32.087  1.00  0.00     0.018 A 
HETATM   20  C7  UNL     1      21.400  12.678  32.792  1.00  0.00     0.002 A 
HETATM   21  C8  UNL     1      20.969  11.379  32.948  1.00  0.00     0.012 A 
HETATM   22  C9  UNL     1      21.688  10.321  32.386  1.00  0.00    -0.025 A 
HETATM   23  C10 UNL     1      21.243   9.032  32.523  1.00  0.00     0.012 A 
HETATM   24  C14 UNL     1      22.835  10.648  31.679  1.00  0.00    -0.010 A 
HETATM   25  C11 UNL     1      21.959   8.021  31.936  1.00  0.00     0.001 A 
HETATM   26  C12 UNL     1      23.102   8.318  31.230  1.00  0.00     0.001 A 
HETATM   27  C13 UNL     1      23.558   9.611  31.087  1.00  0.00     0.013 A 
ENDBRANCH  15  18
ENDBRANCH   4  14
BRANCH  11  28
HETATM   28  C20 UNL     1      31.041  16.096  25.816  1.00  0.00     0.133 C 
BRANCH  28  29
HETATM   29  C21 UNL     1      31.714  16.542  24.528  1.00  0.00     0.281 C 
BRANCH  29  30
HETATM   30  N4  UNL     1      32.346  17.796  24.602  1.00  0.00     0.088 N 
HETATM   31  C22 UNL     1      32.039  18.562  25.823  1.00  0.00     0.272 C 
HETATM   32  C23 UNL     1      33.095  19.602  25.953  1.00  0.00     0.030 C 
HETATM   33  C24 UNL     1      33.500  20.310  24.719  1.00  0.00     0.003 C 
HETATM   34  C25 UNL     1      32.937  19.854  23.428  1.00  0.00     0.030 C 
HETATM   35  C26 UNL     1      32.008  18.668  23.513  1.00  0.00     0.272 C 
ENDBRANCH  29  30
ENDBRANCH  28  29
ENDBRANCH  11  28
TORSDOF 5
ENDMDL
