MODEL 3
REMARK VINA RESULT: -11.091842257      0.815      1.078
REMARK  5 active torsions:
REMARK  status: ('A' for Active; 'I' for Inactive)
REMARK    1  A    between atoms: C3_4  and  N2_5 
REMARK       I    between atoms: N2_5  and  C4_7 
REMARK    2  A    between atoms: C4_7  and  C5_9 
REMARK       I    between atoms: N3_24  and  C19_25 
REMARK    3  A    between atoms: C19_25  and  C20_27 
REMARK    4  A    between atoms: C20_27  and  C21_28 
REMARK    5  A    between atoms: C21_28  and  N4_29 
ROOT
HETATM    1  N1  UNL     1      21.123   6.029  32.663  1.00  0.00    -0.191 NA
HETATM    2  C1  UNL     1      21.602   7.011  32.216  1.00  0.00     0.103 C 
HETATM    3  C2  UNL     1      22.246   8.226  31.651  1.00  0.00     0.086 A 
HETATM    4  C3  UNL     1      22.041   9.447  32.189  1.00  0.00     0.098 A 
HETATM    5  S1  UNL     1      23.093  10.447  31.186  1.00  0.00    -0.073 SA
HETATM    6  C15 UNL     1      23.703   9.265  30.167  1.00  0.00     0.011 A 
HETATM    7  C16 UNL     1      23.103   8.111  30.601  1.00  0.00    -0.018 A 
HETATM    8  C17 UNL     1      23.557   6.899  29.794  1.00  0.00     0.061 C 
HETATM    9  C18 UNL     1      25.079   6.914  29.866  1.00  0.00     0.131 C 
HETATM   10  N3  UNL     1      25.553   8.117  29.241  1.00  0.00    -0.347 N 
HETATM   11  C19 UNL     1      26.885   8.279  28.866  1.00  0.00     0.221 C 
HETATM   12  O2  UNL     1      27.223   9.371  28.303  1.00  0.00    -0.273 OA
HETATM   13  C27 UNL     1      24.649   9.223  28.993  1.00  0.00     0.172 C 
ENDROOT
BRANCH   4  14
HETATM   14  N2  UNL     1      21.156   9.998  33.153  1.00  0.00    -0.316 N 
HETATM   15  C4  UNL     1      21.013  11.315  33.590  1.00  0.00     0.257 C 
HETATM   16  O1  UNL     1      21.721  12.211  33.136  1.00  0.00    -0.267 OA
ATOM     17  H2  UNL     1      20.526   9.327  33.593  1.00  0.00     0.169 HD
BRANCH  15  18
HETATM   18  C5  UNL     1      19.989  11.574  34.626  1.00  0.00     0.043 A 
HETATM   19  C6  UNL     1      20.140  10.862  35.811  1.00  0.00     0.018 A 
HETATM   20  C7  UNL     1      19.193  10.984  36.788  1.00  0.00     0.002 A 
HETATM   21  C8  UNL     1      18.097  11.800  36.620  1.00  0.00     0.012 A 
HETATM   22  C9  UNL     1      17.928  12.526  35.438  1.00  0.00    -0.025 A 
HETATM   23  C10 UNL     1      16.850  13.357  35.283  1.00  0.00     0.012 A 
HETATM   24  C14 UNL     1      18.906  12.378  34.466  1.00  0.00    -0.010 A 
HETATM   25  C11 UNL     1      16.729  14.073  34.120  1.00  0.00     0.001 A 
HETATM   26  C12 UNL     1      17.685  13.943  33.139  1.00  0.00     0.001 A 
HETATM   27  C13 UNL     1      18.774  13.111  33.284  1.00  0.00     0.013 A 
ENDBRANCH  15  18
ENDBRANCH   4  14
BRANCH  11  28
HETATM   28  C20 UNL     1      27.883   7.209  29.115  1.00  0.00     0.133 C 
BRANCH  28  29
HETATM   29  C21 UNL     1      27.964   6.419  27.818  1.00  0.00     0.281 C 
BRANCH  29  30
HETATM   30  N4  UNL     1      28.987   6.830  26.946  1.00  0.00     0.088 N 
HETATM   31  C22 UNL     1      28.514   7.335  25.645  1.00  0.00     0.272 C 
HETATM   32  C23 UNL     1      29.634   8.119  25.057  1.00  0.00     0.030 C 
HETATM   33  C24 UNL     1      30.993   7.547  25.176  1.00  0.00     0.003 C 
HETATM   34  C25 UNL     1      31.171   6.318  25.980  1.00  0.00     0.030 C 
HETATM   35  C26 UNL     1      29.918   5.784  26.629  1.00  0.00     0.272 C 
ENDBRANCH  29  30
ENDBRANCH  28  29
ENDBRANCH  11  28
TORSDOF 5
ENDMDL
