MODEL 2
REMARK VINA RESULT: -11.222624642      1.247      1.852
REMARK  5 active torsions:
REMARK  status: ('A' for Active; 'I' for Inactive)
REMARK    1  A    between atoms: C3_4  and  N2_5 
REMARK       I    between atoms: N2_5  and  C4_7 
REMARK    2  A    between atoms: C4_7  and  C5_9 
REMARK       I    between atoms: N3_24  and  C19_25 
REMARK    3  A    between atoms: C19_25  and  C20_27 
REMARK    4  A    between atoms: C20_27  and  C21_28 
REMARK    5  A    between atoms: C21_28  and  N4_29 
ROOT
HETATM    1  N1  UNL     1      20.918   5.743  33.048  1.00  0.00    -0.191 NA
HETATM    2  C1  UNL     1      21.394   6.668  32.489  1.00  0.00     0.103 C 
HETATM    3  C2  UNL     1      22.035   7.809  31.784  1.00  0.00     0.086 A 
HETATM    4  C3  UNL     1      21.884   9.079  32.216  1.00  0.00     0.098 A 
HETATM    5  S1  UNL     1      22.905   9.955  31.076  1.00  0.00    -0.073 SA
HETATM    6  C15 UNL     1      23.437   8.671  30.141  1.00  0.00     0.011 A 
HETATM    7  C16 UNL     1      22.835   7.577  30.709  1.00  0.00    -0.018 A 
HETATM    8  C17 UNL     1      23.222   6.285  29.997  1.00  0.00     0.061 C 
HETATM    9  C18 UNL     1      24.746   6.267  29.993  1.00  0.00     0.131 C 
HETATM   10  N3  UNL     1      25.213   7.395  29.238  1.00  0.00    -0.347 N 
HETATM   11  C19 UNL     1      26.528   7.488  28.785  1.00  0.00     0.221 C 
HETATM   12  O2  UNL     1      26.860   8.515  28.108  1.00  0.00    -0.273 OA
HETATM   13  C27 UNL     1      24.321   8.497  28.932  1.00  0.00     0.172 C 
ENDROOT
BRANCH   4  14
HETATM   14  N2  UNL     1      21.060   9.738  33.166  1.00  0.00    -0.316 N 
HETATM   15  C4  UNL     1      20.987  11.089  33.506  1.00  0.00     0.257 C 
HETATM   16  O1  UNL     1      21.713  11.917  32.960  1.00  0.00    -0.267 OA
ATOM     17  H2  UNL     1      20.422   9.130  33.680  1.00  0.00     0.169 HD
BRANCH  15  18
HETATM   18  C5  UNL     1      20.017  11.469  34.556  1.00  0.00     0.043 A 
HETATM   19  C6  UNL     1      20.176  10.831  35.781  1.00  0.00     0.018 A 
HETATM   20  C7  UNL     1      19.274  11.066  36.779  1.00  0.00     0.002 A 
HETATM   21  C8  UNL     1      18.213  11.925  36.592  1.00  0.00     0.012 A 
HETATM   22  C9  UNL     1      18.036  12.578  35.369  1.00  0.00    -0.025 A 
HETATM   23  C10 UNL     1      16.994  13.450  35.195  1.00  0.00     0.012 A 
HETATM   24  C14 UNL     1      18.969  12.315  34.378  1.00  0.00    -0.010 A 
HETATM   25  C11 UNL     1      16.866  14.092  33.990  1.00  0.00     0.001 A 
HETATM   26  C12 UNL     1      17.777  13.848  32.989  1.00  0.00     0.001 A 
HETATM   27  C13 UNL     1      18.829  12.972  33.154  1.00  0.00     0.013 A 
ENDBRANCH  15  18
ENDBRANCH   4  14
BRANCH  11  28
HETATM   28  C20 UNL     1      27.514   6.420  29.083  1.00  0.00     0.133 C 
BRANCH  28  29
HETATM   29  C21 UNL     1      28.797   6.846  28.388  1.00  0.00     0.281 C 
BRANCH  29  30
HETATM   30  N4  UNL     1      29.805   7.308  29.252  1.00  0.00     0.088 N 
HETATM   31  C22 UNL     1      30.399   8.599  28.863  1.00  0.00     0.272 C 
HETATM   32  C23 UNL     1      31.082   9.138  30.070  1.00  0.00     0.030 C 
HETATM   33  C24 UNL     1      31.864   8.183  30.885  1.00  0.00     0.003 C 
HETATM   34  C25 UNL     1      31.807   6.746  30.534  1.00  0.00     0.030 C 
HETATM   35  C26 UNL     1      30.913   6.402  29.368  1.00  0.00     0.272 C 
ENDBRANCH  29  30
ENDBRANCH  28  29
ENDBRANCH  11  28
TORSDOF 5
ENDMDL
