MODEL 1
REMARK VINA RESULT: -11.608648648      0.000      0.000
REMARK  5 active torsions:
REMARK  status: ('A' for Active; 'I' for Inactive)
REMARK    1  A    between atoms: C3_4  and  N2_5 
REMARK       I    between atoms: N2_5  and  C4_7 
REMARK    2  A    between atoms: C4_7  and  C5_9 
REMARK       I    between atoms: N3_24  and  C19_25 
REMARK    3  A    between atoms: C19_25  and  C20_27 
REMARK    4  A    between atoms: C20_27  and  C21_28 
REMARK    5  A    between atoms: C21_28  and  N4_29 
ROOT
HETATM    1  N1  UNL     1      20.869   5.763  33.120  1.00  0.00    -0.191 NA
HETATM    2  C1  UNL     1      21.346   6.687  32.561  1.00  0.00     0.103 C 
HETATM    3  C2  UNL     1      21.988   7.827  31.854  1.00  0.00     0.086 A 
HETATM    4  C3  UNL     1      21.828   9.099  32.279  1.00  0.00     0.098 A 
HETATM    5  S1  UNL     1      22.855   9.973  31.142  1.00  0.00    -0.073 SA
HETATM    6  C15 UNL     1      23.401   8.686  30.219  1.00  0.00     0.011 A 
HETATM    7  C16 UNL     1      22.798   7.592  30.788  1.00  0.00    -0.018 A 
HETATM    8  C17 UNL     1      23.196   6.298  30.085  1.00  0.00     0.061 C 
HETATM    9  C18 UNL     1      24.720   6.287  30.094  1.00  0.00     0.131 C 
HETATM   10  N3  UNL     1      25.189   7.413  29.337  1.00  0.00    -0.347 N 
HETATM   11  C19 UNL     1      26.507   7.508  28.894  1.00  0.00     0.221 C 
HETATM   12  O2  UNL     1      26.840   8.533  28.215  1.00  0.00    -0.273 OA
HETATM   13  C27 UNL     1      24.295   8.509  29.018  1.00  0.00     0.172 C 
ENDROOT
BRANCH   4  14
HETATM   14  N2  UNL     1      20.994   9.759  33.219  1.00  0.00    -0.316 N 
HETATM   15  C4  UNL     1      20.953  11.103  33.593  1.00  0.00     0.257 C 
HETATM   16  O1  UNL     1      21.723  11.920  33.094  1.00  0.00    -0.267 OA
ATOM     17  H2  UNL     1      20.320   9.159  33.694  1.00  0.00     0.169 HD
BRANCH  15  18
HETATM   18  C5  UNL     1      19.960  11.486  34.620  1.00  0.00     0.043 A 
HETATM   19  C6  UNL     1      20.095  10.855  35.852  1.00  0.00     0.018 A 
HETATM   20  C7  UNL     1      19.172  11.095  36.830  1.00  0.00     0.002 A 
HETATM   21  C8  UNL     1      18.114  11.950  36.616  1.00  0.00     0.012 A 
HETATM   22  C9  UNL     1      17.962  12.596  35.386  1.00  0.00    -0.025 A 
HETATM   23  C10 UNL     1      16.922  13.465  35.184  1.00  0.00     0.012 A 
HETATM   24  C14 UNL     1      18.915  12.329  34.415  1.00  0.00    -0.010 A 
HETATM   25  C11 UNL     1      16.818  14.101  33.974  1.00  0.00     0.001 A 
HETATM   26  C12 UNL     1      17.751  13.853  32.993  1.00  0.00     0.001 A 
HETATM   27  C13 UNL     1      18.800  12.980  33.185  1.00  0.00     0.013 A 
ENDBRANCH  15  18
ENDBRANCH   4  14
BRANCH  11  28
HETATM   28  C20 UNL     1      27.495   6.446  29.206  1.00  0.00     0.133 C 
BRANCH  28  29
HETATM   29  C21 UNL     1      28.835   6.985  28.732  1.00  0.00     0.281 C 
BRANCH  29  30
HETATM   30  N4  UNL     1      29.495   6.171  27.795  1.00  0.00     0.088 N 
HETATM   31  C22 UNL     1      29.210   6.505  26.388  1.00  0.00     0.272 C 
HETATM   32  C23 UNL     1      30.290   5.885  25.573  1.00  0.00     0.030 C 
HETATM   33  C24 UNL     1      30.704   4.512  25.936  1.00  0.00     0.003 C 
HETATM   34  C25 UNL     1      30.125   3.900  27.153  1.00  0.00     0.030 C 
HETATM   35  C26 UNL     1      29.171   4.778  27.925  1.00  0.00     0.272 C 
ENDBRANCH  29  30
ENDBRANCH  28  29
ENDBRANCH  11  28
TORSDOF 5
ENDMDL
