MODEL 12
REMARK VINA RESULT: -10.135105002      6.556      8.088
REMARK  5 active torsions:
REMARK  status: ('A' for Active; 'I' for Inactive)
REMARK    1  A    between atoms: C3_4  and  N2_5 
REMARK       I    between atoms: N2_5  and  C4_7 
REMARK    2  A    between atoms: C4_7  and  C5_9 
REMARK       I    between atoms: N3_24  and  C19_25 
REMARK    3  A    between atoms: C19_25  and  C20_27 
REMARK    4  A    between atoms: C20_27  and  C21_28 
REMARK    5  A    between atoms: C21_28  and  N4_29 
ROOT
HETATM    1  N1  UNL     1      28.119   8.320  29.493  1.00  0.00    -0.191 NA
HETATM    2  C1  UNL     1      27.584   9.315  29.151  1.00  0.00     0.103 C 
HETATM    3  C2  UNL     1      26.953  10.590  28.721  1.00  0.00     0.086 A 
HETATM    4  C3  UNL     1      25.831  11.056  29.311  1.00  0.00     0.098 A 
HETATM    5  S1  UNL     1      25.610  12.590  28.469  1.00  0.00    -0.073 SA
HETATM    6  C15 UNL     1      26.930  12.531  27.439  1.00  0.00     0.011 A 
HETATM    7  C16 UNL     1      27.537  11.340  27.747  1.00  0.00    -0.018 A 
HETATM    8  C17 UNL     1      28.793  11.113  26.913  1.00  0.00     0.061 C 
HETATM    9  C18 UNL     1      29.647  12.357  27.123  1.00  0.00     0.131 C 
HETATM   10  N3  UNL     1      28.928  13.493  26.617  1.00  0.00    -0.347 N 
HETATM   11  C19 UNL     1      29.554  14.715  26.373  1.00  0.00     0.221 C 
HETATM   12  O2  UNL     1      28.849  15.669  25.911  1.00  0.00    -0.273 OA
HETATM   13  C27 UNL     1      27.505  13.407  26.355  1.00  0.00     0.172 C 
ENDROOT
BRANCH   4  14
HETATM   14  N2  UNL     1      24.873  10.539  30.222  1.00  0.00    -0.316 N 
HETATM   15  C4  UNL     1      23.537  10.193  30.018  1.00  0.00     0.257 C 
HETATM   16  O1  UNL     1      23.013  10.325  28.914  1.00  0.00    -0.267 OA
ATOM     17  H2  UNL     1      25.213  10.399  31.174  1.00  0.00     0.169 HD
BRANCH  15  18
HETATM   18  C5  UNL     1      22.787   9.680  31.185  1.00  0.00     0.043 A 
HETATM   19  C6  UNL     1      22.748   8.296  31.313  1.00  0.00     0.018 A 
HETATM   20  C7  UNL     1      22.011   7.739  32.320  1.00  0.00     0.002 A 
HETATM   21  C8  UNL     1      21.310   8.525  33.208  1.00  0.00     0.012 A 
HETATM   22  C9  UNL     1      21.339   9.918  33.098  1.00  0.00    -0.025 A 
HETATM   23  C10 UNL     1      20.662  10.698  33.998  1.00  0.00     0.012 A 
HETATM   24  C14 UNL     1      22.095  10.449  32.065  1.00  0.00    -0.010 A 
HETATM   25  C11 UNL     1      20.733  12.061  33.875  1.00  0.00     0.001 A 
HETATM   26  C12 UNL     1      21.475  12.614  32.858  1.00  0.00     0.001 A 
HETATM   27  C13 UNL     1      22.161  11.839  31.947  1.00  0.00     0.013 A 
ENDBRANCH  15  18
ENDBRANCH   4  14
BRANCH  11  28
HETATM   28  C20 UNL     1      31.001  14.898  26.646  1.00  0.00     0.133 C 
BRANCH  28  29
HETATM   29  C21 UNL     1      31.567  15.565  25.403  1.00  0.00     0.281 C 
BRANCH  29  30
HETATM   30  N4  UNL     1      32.138  16.831  25.628  1.00  0.00     0.088 N 
HETATM   31  C22 UNL     1      32.613  17.051  27.005  1.00  0.00     0.272 C 
HETATM   32  C23 UNL     1      33.557  18.200  26.955  1.00  0.00     0.030 C 
HETATM   33  C24 UNL     1      33.169  19.354  26.115  1.00  0.00     0.003 C 
HETATM   34  C25 UNL     1      31.952  19.241  25.281  1.00  0.00     0.030 C 
HETATM   35  C26 UNL     1      31.235  17.915  25.362  1.00  0.00     0.272 C 
ENDBRANCH  29  30
ENDBRANCH  28  29
ENDBRANCH  11  28
TORSDOF 5
ENDMDL
