MODEL 14
REMARK VINA RESULT: -5.129517635      2.015      3.622
REMARK  2 active torsions:
REMARK  status: ('A' for Active; 'I' for Inactive)
REMARK    1  A    between atoms: P1_2  and  O4_5 
REMARK    2  A    between atoms: O4_5  and  P2_6 
ROOT
HETATM    1  O4  UNL     1     -23.168   1.707  59.216  1.00  0.00    -0.166 OA
ENDROOT
BRANCH   1   2
HETATM    2  P1  UNL     1     -22.802   0.166  59.734  1.00  0.00     0.432 P 
HETATM    3  O1  UNL     1     -23.706  -0.279  60.834  1.00  0.00    -0.616 OA
HETATM    4  O2  UNL     1     -23.021  -0.900  58.421  1.00  0.00    -0.616 OA
HETATM    5  O3  UNL     1     -21.171   0.107  60.143  1.00  0.00    -0.616 OA
ENDBRANCH   1   2
BRANCH   1   6
HETATM    6  P2  UNL     1     -23.160   2.852  60.443  1.00  0.00     0.432 P 
HETATM    7  O5  UNL     1     -22.702   2.316  61.761  1.00  0.00    -0.616 OA
HETATM    8  O6  UNL     1     -24.737   3.496  60.524  1.00  0.00    -0.616 OA
HETATM    9  O7  UNL     1     -22.137   4.132  59.982  1.00  0.00    -0.616 OA
ENDBRANCH   1   6
TORSDOF 2
ENDMDL
