MODEL 16
REMARK VINA RESULT: -5.103241771      1.679      3.524
REMARK  2 active torsions:
REMARK  status: ('A' for Active; 'I' for Inactive)
REMARK    1  A    between atoms: P1_2  and  O4_5 
REMARK    2  A    between atoms: O4_5  and  P2_6 
ROOT
HETATM    1  O4  UNL     1     -22.692   1.449  60.083  1.00  0.00    -0.166 OA
ENDROOT
BRANCH   1   2
HETATM    2  P1  UNL     1     -23.933   0.353  59.891  1.00  0.00     0.432 P 
HETATM    3  O1  UNL     1     -24.827   0.721  58.755  1.00  0.00    -0.616 OA
HETATM    4  O2  UNL     1     -23.247  -1.168  59.537  1.00  0.00    -0.616 OA
HETATM    5  O3  UNL     1     -24.744   0.194  61.356  1.00  0.00    -0.616 OA
ENDBRANCH   1   2
BRANCH   1   6
HETATM    6  P2  UNL     1     -23.195   2.946  60.650  1.00  0.00     0.432 P 
HETATM    7  O5  UNL     1     -24.605   3.282  60.288  1.00  0.00    -0.616 OA
HETATM    8  O6  UNL     1     -22.086   4.095  60.050  1.00  0.00    -0.616 OA
HETATM    9  O7  UNL     1     -23.039   2.963  62.345  1.00  0.00    -0.616 OA
ENDBRANCH   1   6
TORSDOF 2
ENDMDL
