MODEL 12
REMARK VINA RESULT: -5.175410997      1.720      2.666
REMARK  2 active torsions:
REMARK  status: ('A' for Active; 'I' for Inactive)
REMARK    1  A    between atoms: P1_2  and  O4_5 
REMARK    2  A    between atoms: O4_5  and  P2_6 
ROOT
HETATM    1  O4  UNL     1     -24.428   1.313  60.350  1.00  0.00    -0.166 OA
ENDROOT
BRANCH   1   2
HETATM    2  P1  UNL     1     -23.767   2.128  59.055  1.00  0.00     0.432 P 
HETATM    3  O1  UNL     1     -22.984   1.219  58.169  1.00  0.00    -0.616 OA
HETATM    4  O2  UNL     1     -25.044   2.778  58.131  1.00  0.00    -0.616 OA
HETATM    5  O3  UNL     1     -22.874   3.430  59.637  1.00  0.00    -0.616 OA
ENDBRANCH   1   2
BRANCH   1   6
HETATM    6  P2  UNL     1     -23.296   0.824  61.489  1.00  0.00     0.432 P 
HETATM    7  O5  UNL     1     -21.998   0.386  60.895  1.00  0.00    -0.616 OA
HETATM    8  O6  UNL     1     -24.030  -0.410  62.411  1.00  0.00    -0.616 OA
HETATM    9  O7  UNL     1     -23.008   2.119  62.556  1.00  0.00    -0.616 OA
ENDBRANCH   1   6
TORSDOF 2
ENDMDL
