MODEL 16
REMARK VINA RESULT: -6.303151577      2.995      4.729
REMARK  5 active torsions:
REMARK  status: ('A' for Active; 'I' for Inactive)
REMARK    1  A    between atoms: P1_2  and  C1_5 
REMARK    2  A    between atoms: C1_5  and  O4_6 
REMARK    3  A    between atoms: C1_5  and  C2_8 
REMARK    4  A    between atoms: C1_5  and  P2_16 
REMARK    5  A    between atoms: C2_8  and  C3_9 
ROOT
HETATM    1  C1  UNL     1     -16.350   7.736  14.013  1.00  0.00     0.289 C 
ENDROOT
BRANCH   1   2
HETATM    2  P1  UNL     1     -16.886   9.250  14.899  1.00  0.00     0.310 P 
HETATM    3  O1  UNL     1     -16.030  10.428  14.505  1.00  0.00    -0.637 OA
HETATM    4  O2  UNL     1     -18.494   9.517  14.445  1.00  0.00    -0.637 OA
HETATM    5  O3  UNL     1     -16.838   8.935  16.547  1.00  0.00    -0.637 OA
ENDBRANCH   1   2
BRANCH   1   6
HETATM    6  O4  UNL     1     -16.225   6.724  14.937  1.00  0.00    -0.365 OA
ATOM      7  H4  UNL     1     -16.880   6.858  15.612  1.00  0.00     0.212 HD
ENDBRANCH   1   6
BRANCH   1   8
HETATM    8  C2  UNL     1     -17.437   7.428  13.036  1.00  0.00     0.108 C 
BRANCH   8   9
HETATM    9  C3  UNL     1     -18.138   6.171  13.262  1.00  0.00    -0.038 A 
HETATM   10  C4  UNL     1     -17.510   4.999  12.886  1.00  0.00     0.010 A 
HETATM   11  C5  UNL     1     -18.108   3.762  13.065  1.00  0.00     0.018 A 
HETATM   12  C6  UNL     1     -19.353   3.703  13.630  1.00  0.00     0.087 A 
HETATM   13  N1  UNL     1     -19.949   4.842  13.988  1.00  0.00    -0.375 N 
HETATM   14  C7  UNL     1     -19.388   6.052  13.823  1.00  0.00     0.094 A 
ATOM     15  H1  UNL     1     -20.877   4.793  14.408  1.00  0.00     0.164 HD
ENDBRANCH   8   9
ENDBRANCH   1   8
BRANCH   1  16
HETATM   16  P2  UNL     1     -14.782   8.143  13.210  1.00  0.00     0.310 P 
HETATM   17  O5  UNL     1     -15.012   8.966  11.952  1.00  0.00    -0.637 OA
HETATM   18  O6  UNL     1     -13.774   9.001  14.225  1.00  0.00    -0.637 OA
HETATM   19  O7  UNL     1     -13.960   6.750  12.713  1.00  0.00    -0.637 OA
ENDBRANCH   1  16
TORSDOF 5
ENDMDL
