MODEL 10
REMARK VINA RESULT: -6.492746471      2.147      2.837
REMARK  5 active torsions:
REMARK  status: ('A' for Active; 'I' for Inactive)
REMARK    1  A    between atoms: P1_2  and  C1_5 
REMARK    2  A    between atoms: C1_5  and  O4_6 
REMARK    3  A    between atoms: C1_5  and  C2_8 
REMARK    4  A    between atoms: C1_5  and  P2_16 
REMARK    5  A    between atoms: C2_8  and  C3_9 
ROOT
HETATM    1  C1  UNL     1     -15.869   4.059  13.310  1.00  0.00     0.289 C 
ENDROOT
BRANCH   1   2
HETATM    2  P1  UNL     1     -14.217   3.339  12.970  1.00  0.00     0.310 P 
HETATM    3  O1  UNL     1     -14.314   1.844  12.793  1.00  0.00    -0.637 OA
HETATM    4  O2  UNL     1     -13.672   4.063  11.542  1.00  0.00    -0.637 OA
HETATM    5  O3  UNL     1     -13.188   3.779  14.222  1.00  0.00    -0.637 OA
ENDBRANCH   1   2
BRANCH   1   6
HETATM    6  O4  UNL     1     -15.885   4.488  14.618  1.00  0.00    -0.365 OA
ATOM      7  H4  UNL     1     -16.712   4.930  14.772  1.00  0.00     0.212 HD
ENDBRANCH   1   6
BRANCH   1   8
HETATM    8  C2  UNL     1     -16.012   5.214  12.372  1.00  0.00     0.108 C 
BRANCH   8   9
HETATM    9  C3  UNL     1     -16.598   6.415  12.951  1.00  0.00    -0.038 A 
HETATM   10  C4  UNL     1     -15.749   7.347  13.515  1.00  0.00     0.010 A 
HETATM   11  C5  UNL     1     -16.226   8.516  14.087  1.00  0.00     0.018 A 
HETATM   12  C6  UNL     1     -17.574   8.749  14.092  1.00  0.00     0.087 A 
HETATM   13  N1  UNL     1     -18.383   7.840  13.545  1.00  0.00    -0.375 N 
HETATM   14  C7  UNL     1     -17.943   6.701  12.986  1.00  0.00     0.094 A 
ATOM     15  H1  UNL     1     -19.388   8.019  13.552  1.00  0.00     0.164 HD
ENDBRANCH   8   9
ENDBRANCH   1   8
BRANCH   1  16
HETATM   16  P2  UNL     1     -17.072   2.748  12.993  1.00  0.00     0.310 P 
HETATM   17  O5  UNL     1     -18.494   3.259  13.166  1.00  0.00    -0.637 OA
HETATM   18  O6  UNL     1     -16.919   2.131  11.450  1.00  0.00    -0.637 OA
HETATM   19  O7  UNL     1     -16.899   1.469  14.086  1.00  0.00    -0.637 OA
ENDBRANCH   1  16
TORSDOF 5
ENDMDL
