MODEL 7
REMARK VINA RESULT: -6.641097009      2.442      3.168
REMARK  5 active torsions:
REMARK  status: ('A' for Active; 'I' for Inactive)
REMARK    1  A    between atoms: P1_2  and  C1_5 
REMARK    2  A    between atoms: C1_5  and  O4_6 
REMARK    3  A    between atoms: C1_5  and  C2_8 
REMARK    4  A    between atoms: C1_5  and  P2_16 
REMARK    5  A    between atoms: C2_8  and  C3_9 
ROOT
HETATM    1  C1  UNL     1     -15.897   3.951  13.284  1.00  0.00     0.289 C 
ENDROOT
BRANCH   1   2
HETATM    2  P1  UNL     1     -14.275   3.311  12.715  1.00  0.00     0.310 P 
HETATM    3  O1  UNL     1     -14.249   1.804  12.767  1.00  0.00    -0.637 OA
HETATM    4  O2  UNL     1     -14.091   3.845  11.120  1.00  0.00    -0.637 OA
HETATM    5  O3  UNL     1     -13.078   4.014  13.658  1.00  0.00    -0.637 OA
ENDBRANCH   1   2
BRANCH   1   6
HETATM    6  O4  UNL     1     -15.768   4.328  14.601  1.00  0.00    -0.365 OA
ATOM      7  H4  UNL     1     -14.924   4.024  14.913  1.00  0.00     0.212 HD
ENDBRANCH   1   6
BRANCH   1   8
HETATM    8  C2  UNL     1     -16.195   5.133  12.421  1.00  0.00     0.108 C 
BRANCH   8   9
HETATM    9  C3  UNL     1     -16.291   6.406  13.123  1.00  0.00    -0.038 A 
HETATM   10  C4  UNL     1     -17.520   6.777  13.633  1.00  0.00     0.010 A 
HETATM   11  C5  UNL     1     -17.695   7.972  14.313  1.00  0.00     0.018 A 
HETATM   12  C6  UNL     1     -16.622   8.803  14.482  1.00  0.00     0.087 A 
HETATM   13  N1  UNL     1     -15.441   8.433  13.983  1.00  0.00    -0.375 N 
HETATM   14  C7  UNL     1     -15.247   7.281  13.321  1.00  0.00     0.094 A 
ATOM     15  H1  UNL     1     -14.644   9.056  14.111  1.00  0.00     0.164 HD
ENDBRANCH   8   9
ENDBRANCH   1   8
BRANCH   1  16
HETATM   16  P2  UNL     1     -17.083   2.605  13.059  1.00  0.00     0.310 P 
HETATM   17  O5  UNL     1     -18.507   3.086  13.297  1.00  0.00    -0.637 OA
HETATM   18  O6  UNL     1     -16.997   1.957  11.524  1.00  0.00    -0.637 OA
HETATM   19  O7  UNL     1     -16.821   1.355  14.168  1.00  0.00    -0.637 OA
ENDBRANCH   1  16
TORSDOF 5
ENDMDL
