MODEL 8
REMARK VINA RESULT: -6.617067801      2.399      2.944
REMARK  5 active torsions:
REMARK  status: ('A' for Active; 'I' for Inactive)
REMARK    1  A    between atoms: P1_2  and  C1_5 
REMARK    2  A    between atoms: C1_5  and  O4_6 
REMARK    3  A    between atoms: C1_5  and  C2_8 
REMARK    4  A    between atoms: C1_5  and  P2_16 
REMARK    5  A    between atoms: C2_8  and  C3_9 
ROOT
HETATM    1  C1  UNL     1     -15.878   3.960  13.350  1.00  0.00     0.289 C 
ENDROOT
BRANCH   1   2
HETATM    2  P1  UNL     1     -14.254   3.283  12.834  1.00  0.00     0.310 P 
HETATM    3  O1  UNL     1     -14.294   1.775  12.792  1.00  0.00    -0.637 OA
HETATM    4  O2  UNL     1     -13.954   3.903  11.289  1.00  0.00    -0.637 OA
HETATM    5  O3  UNL     1     -13.086   3.871  13.885  1.00  0.00    -0.637 OA
ENDBRANCH   1   2
BRANCH   1   6
HETATM    6  O4  UNL     1     -15.775   4.362  14.662  1.00  0.00    -0.365 OA
ATOM      7  H4  UNL     1     -14.900   4.705  14.797  1.00  0.00     0.212 HD
ENDBRANCH   1   6
BRANCH   1   8
HETATM    8  C2  UNL     1     -16.136   5.130  12.456  1.00  0.00     0.108 C 
BRANCH   8   9
HETATM    9  C3  UNL     1     -16.323   6.403  13.139  1.00  0.00    -0.038 A 
HETATM   10  C4  UNL     1     -17.601   6.746  13.536  1.00  0.00     0.010 A 
HETATM   11  C5  UNL     1     -17.865   7.939  14.191  1.00  0.00     0.018 A 
HETATM   12  C6  UNL     1     -16.830   8.797  14.449  1.00  0.00     0.087 A 
HETATM   13  N1  UNL     1     -15.601   8.453  14.059  1.00  0.00    -0.375 N 
HETATM   14  C7  UNL     1     -15.322   7.303  13.424  1.00  0.00     0.094 A 
ATOM     15  H1  UNL     1     -14.834   9.096  14.254  1.00  0.00     0.164 HD
ENDBRANCH   8   9
ENDBRANCH   1   8
BRANCH   1  16
HETATM   16  P2  UNL     1     -17.081   2.629  13.122  1.00  0.00     0.310 P 
HETATM   17  O5  UNL     1     -17.015   2.069  11.710  1.00  0.00    -0.637 OA
HETATM   18  O6  UNL     1     -16.828   1.378  14.197  1.00  0.00    -0.637 OA
HETATM   19  O7  UNL     1     -18.666   3.183  13.331  1.00  0.00    -0.637 OA
ENDBRANCH   1  16
TORSDOF 5
ENDMDL
