MODEL 2
REMARK VINA RESULT: -7.146998192      0.712      1.437
REMARK  8 active torsions:
REMARK  status: ('A' for Active; 'I' for Inactive)
REMARK    1  A    between atoms: N5_13  and  C6_14 
REMARK    2  A    between atoms: C7_16  and  C8_17 
REMARK    3  A    between atoms: C8_17  and  O2_18 
REMARK    4  A    between atoms: O2_18  and  P1_19 
REMARK    5  A    between atoms: P1_19  and  O5_22 
REMARK    6  A    between atoms: O5_22  and  P2_23 
REMARK    7  A    between atoms: C9_27  and  O9_28 
REMARK    8  A    between atoms: C10_30  and  O10_31 
ROOT
HETATM    1  C6  UNL     1      19.828  21.407  56.325  1.00  0.00     0.262 C 
HETATM    2  O1  UNL     1      19.719  20.621  55.197  1.00  0.00    -0.353 OA
HETATM    3  C7  UNL     1      20.085  19.342  55.497  1.00  0.00     0.180 C 
HETATM    4  C9  UNL     1      20.079  19.214  57.001  1.00  0.00     0.182 C 
HETATM    5  C10 UNL     1      20.596  20.620  57.339  1.00  0.00     0.198 C 
ENDROOT
BRANCH   1   6
HETATM    6  N5  UNL     1      18.523  21.806  56.742  1.00  0.00    -0.297 N 
HETATM    7  C3  UNL     1      17.402  21.902  56.007  1.00  0.00     0.142 A 
HETATM    8  N3  UNL     1      17.151  21.669  54.720  1.00  0.00    -0.336 N 
HETATM    9  C4  UNL     1      16.376  22.323  56.807  1.00  0.00     0.119 A 
HETATM   10  C2  UNL     1      15.920  21.841  54.204  1.00  0.00     0.183 A 
ATOM     11  H3  UNL     1      17.908  21.354  54.113  1.00  0.00     0.168 HD
HETATM   12  N2  UNL     1      14.907  22.251  54.970  1.00  0.00    -0.339 N 
HETATM   13  C1  UNL     1      15.119  22.494  56.266  1.00  0.00     0.148 A 
ATOM     14  H2  UNL     1      13.978  22.377  54.569  1.00  0.00     0.167 HD
HETATM   15  N1  UNL     1      14.093  22.931  57.134  1.00  0.00    -0.080 NA
HETATM   16  N4  UNL     1      16.879  22.481  58.025  1.00  0.00    -0.346 N 
HETATM   17  C5  UNL     1      18.167  22.172  57.987  1.00  0.00     0.188 A 
ATOM     18  H4  UNL     1      16.362  22.789  58.849  1.00  0.00     0.167 HD
ENDBRANCH   1   6
BRANCH   5  19
HETATM   19  O10 UNL     1      21.942  20.635  56.953  1.00  0.00    -0.388 OA
ATOM     20  H10 UNL     1      22.001  20.210  56.106  1.00  0.00     0.210 HD
ENDBRANCH   5  19
BRANCH   3  21
HETATM   21  C8  UNL     1      19.291  18.274  54.816  1.00  0.00     0.216 C 
BRANCH  21  22
HETATM   22  O2  UNL     1      19.508  18.182  53.466  1.00  0.00    -0.287 OA
BRANCH  22  23
HETATM   23  P1  UNL     1      18.049  18.626  52.692  1.00  0.00     0.418 P 
HETATM   24  O3  UNL     1      18.202  20.037  52.188  1.00  0.00    -0.624 OA
HETATM   25  O4  UNL     1      16.760  18.604  53.773  1.00  0.00    -0.624 OA
BRANCH  23  26
HETATM   26  O5  UNL     1      17.788  17.592  51.405  1.00  0.00    -0.173 OA
BRANCH  26  27
HETATM   27  P2  UNL     1      18.598  18.033  50.011  1.00  0.00     0.431 P 
HETATM   28  O6  UNL     1      20.044  18.399  50.284  1.00  0.00    -0.616 OA
HETATM   29  O7  UNL     1      17.893  19.377  49.254  1.00  0.00    -0.616 OA
HETATM   30  O8  UNL     1      18.510  16.720  48.925  1.00  0.00    -0.616 OA
ENDBRANCH  26  27
ENDBRANCH  23  26
ENDBRANCH  22  23
ENDBRANCH  21  22
ENDBRANCH   3  21
BRANCH   4  31
HETATM   31  O9  UNL     1      20.915  18.231  57.474  1.00  0.00    -0.390 OA
ATOM     32  H9  UNL     1      20.884  18.126  58.418  1.00  0.00     0.210 HD
ENDBRANCH   4  31
TORSDOF 8
ENDMDL
