MODEL 10
REMARK VINA RESULT: -6.405530751      2.658      4.824
REMARK  8 active torsions:
REMARK  status: ('A' for Active; 'I' for Inactive)
REMARK    1  A    between atoms: N5_13  and  C6_14 
REMARK    2  A    between atoms: C7_16  and  C8_17 
REMARK    3  A    between atoms: C8_17  and  O2_18 
REMARK    4  A    between atoms: O2_18  and  P1_19 
REMARK    5  A    between atoms: P1_19  and  O5_22 
REMARK    6  A    between atoms: O5_22  and  P2_23 
REMARK    7  A    between atoms: C9_27  and  O9_28 
REMARK    8  A    between atoms: C10_30  and  O10_31 
ROOT
HETATM    1  C6  UNL     1      16.765  19.992  54.790  1.00  0.00     0.262 C 
HETATM    2  O1  UNL     1      16.654  18.939  53.906  1.00  0.00    -0.353 OA
HETATM    3  C7  UNL     1      16.544  19.421  52.635  1.00  0.00     0.180 C 
HETATM    4  C9  UNL     1      16.979  20.866  52.664  1.00  0.00     0.182 C 
HETATM    5  C10 UNL     1      16.407  21.236  54.039  1.00  0.00     0.198 C 
ENDROOT
BRANCH   1   6
HETATM    6  N5  UNL     1      18.075  19.992  55.354  1.00  0.00    -0.297 N 
HETATM    7  C3  UNL     1      18.510  20.617  56.461  1.00  0.00     0.142 A 
HETATM    8  N3  UNL     1      17.897  21.400  57.348  1.00  0.00    -0.336 N 
HETATM    9  C4  UNL     1      19.838  20.346  56.637  1.00  0.00     0.119 A 
HETATM   10  C2  UNL     1      18.559  21.920  58.397  1.00  0.00     0.183 A 
ATOM     11  H3  UNL     1      16.906  21.608  57.229  1.00  0.00     0.168 HD
HETATM   12  N2  UNL     1      19.856  21.666  58.584  1.00  0.00    -0.339 N 
HETATM   13  C1  UNL     1      20.505  20.886  57.717  1.00  0.00     0.148 A 
ATOM     14  H2  UNL     1      20.347  22.066  59.384  1.00  0.00     0.167 HD
HETATM   15  N1  UNL     1      21.877  20.576  57.853  1.00  0.00    -0.080 NA
HETATM   16  N4  UNL     1      20.205  19.557  55.634  1.00  0.00    -0.346 N 
HETATM   17  C5  UNL     1      19.147  19.344  54.865  1.00  0.00     0.188 A 
ATOM     18  H4  UNL     1      21.140  19.180  55.483  1.00  0.00     0.167 HD
ENDBRANCH   1   6
BRANCH   5  19
HETATM   19  O10 UNL     1      15.015  21.248  53.884  1.00  0.00    -0.388 OA
ATOM     20  H10 UNL     1      14.679  20.444  54.260  1.00  0.00     0.210 HD
ENDBRANCH   5  19
BRANCH   3  21
HETATM   21  C8  UNL     1      17.246  18.620  51.585  1.00  0.00     0.216 C 
BRANCH  21  22
HETATM   22  O2  UNL     1      18.580  18.903  51.455  1.00  0.00    -0.287 OA
BRANCH  22  23
HETATM   23  P1  UNL     1      18.980  18.685  49.806  1.00  0.00     0.418 P 
HETATM   24  O3  UNL     1      18.776  17.232  49.467  1.00  0.00    -0.624 OA
HETATM   25  O4  UNL     1      20.596  19.057  49.521  1.00  0.00    -0.624 OA
BRANCH  23  26
HETATM   26  O5  UNL     1      17.961  19.631  48.878  1.00  0.00    -0.173 OA
BRANCH  26  27
HETATM   27  P2  UNL     1      18.423  21.235  48.793  1.00  0.00     0.431 P 
HETATM   28  O6  UNL     1      19.390  21.490  47.652  1.00  0.00    -0.616 OA
HETATM   29  O7  UNL     1      19.195  21.760  50.208  1.00  0.00    -0.616 OA
HETATM   30  O8  UNL     1      17.009  22.170  48.595  1.00  0.00    -0.616 OA
ENDBRANCH  26  27
ENDBRANCH  23  26
ENDBRANCH  22  23
ENDBRANCH  21  22
ENDBRANCH   3  21
BRANCH   4  31
HETATM   31  O9  UNL     1      16.432  21.626  51.657  1.00  0.00    -0.390 OA
ATOM     32  H9  UNL     1      15.810  21.153  51.117  1.00  0.00     0.210 HD
ENDBRANCH   4  31
TORSDOF 8
ENDMDL
