MODEL 1
REMARK VINA RESULT: -7.180532062      0.000      0.000
REMARK  8 active torsions:
REMARK  status: ('A' for Active; 'I' for Inactive)
REMARK    1  A    between atoms: N5_13  and  C6_14 
REMARK    2  A    between atoms: C7_16  and  C8_17 
REMARK    3  A    between atoms: C8_17  and  O2_18 
REMARK    4  A    between atoms: O2_18  and  P1_19 
REMARK    5  A    between atoms: P1_19  and  O5_22 
REMARK    6  A    between atoms: O5_22  and  P2_23 
REMARK    7  A    between atoms: C9_27  and  O9_28 
REMARK    8  A    between atoms: C10_30  and  O10_31 
ROOT
HETATM    1  C6  UNL     1      19.714  21.614  56.355  1.00  0.00     0.262 C 
HETATM    2  O1  UNL     1      19.734  20.718  55.307  1.00  0.00    -0.353 OA
HETATM    3  C7  UNL     1      20.189  19.511  55.749  1.00  0.00     0.180 C 
HETATM    4  C9  UNL     1      20.112  19.526  57.257  1.00  0.00     0.182 C 
HETATM    5  C10 UNL     1      20.489  20.997  57.477  1.00  0.00     0.198 C 
ENDROOT
BRANCH   1   6
HETATM    6  N5  UNL     1      18.360  21.933  56.670  1.00  0.00    -0.297 N 
HETATM    7  C3  UNL     1      17.294  21.961  55.852  1.00  0.00     0.142 A 
HETATM    8  N3  UNL     1      17.157  21.714  54.550  1.00  0.00    -0.336 N 
HETATM    9  C4  UNL     1      16.187  22.318  56.569  1.00  0.00     0.119 A 
HETATM   10  C2  UNL     1      15.961  21.810  53.942  1.00  0.00     0.183 A 
ATOM     11  H3  UNL     1      17.975  21.445  54.004  1.00  0.00     0.168 HD
HETATM   12  N2  UNL     1      14.869  22.158  54.626  1.00  0.00    -0.339 N 
HETATM   13  C1  UNL     1      14.966  22.414  55.933  1.00  0.00     0.148 A 
ATOM     14  H2  UNL     1      13.968  22.228  54.155  1.00  0.00     0.167 HD
HETATM   15  N1  UNL     1      13.853  22.787  56.719  1.00  0.00    -0.080 NA
HETATM   16  N4  UNL     1      16.585  22.507  57.822  1.00  0.00    -0.346 N 
HETATM   17  C5  UNL     1      17.888  22.276  57.882  1.00  0.00     0.188 A 
ATOM     18  H4  UNL     1      15.989  22.782  58.602  1.00  0.00     0.167 HD
ENDBRANCH   1   6
BRANCH   5  19
HETATM   19  O10 UNL     1      21.848  21.096  57.153  1.00  0.00    -0.388 OA
ATOM     20  H10 UNL     1      22.112  20.267  56.772  1.00  0.00     0.210 HD
ENDBRANCH   5  19
BRANCH   3  21
HETATM   21  C8  UNL     1      19.526  18.316  55.141  1.00  0.00     0.216 C 
BRANCH  21  22
HETATM   22  O2  UNL     1      19.672  18.218  53.782  1.00  0.00    -0.287 OA
BRANCH  22  23
HETATM   23  P1  UNL     1      18.120  18.424  53.094  1.00  0.00     0.418 P 
HETATM   24  O3  UNL     1      17.137  18.622  54.218  1.00  0.00    -0.624 OA
HETATM   25  O4  UNL     1      17.650  17.053  52.239  1.00  0.00    -0.624 OA
BRANCH  23  26
HETATM   26  O5  UNL     1      18.142  19.780  52.116  1.00  0.00    -0.173 OA
BRANCH  26  27
HETATM   27  P2  UNL     1      18.573  19.460  50.533  1.00  0.00     0.431 P 
HETATM   28  O6  UNL     1      17.419  18.887  49.733  1.00  0.00    -0.616 OA
HETATM   29  O7  UNL     1      19.841  18.341  50.423  1.00  0.00    -0.616 OA
HETATM   30  O8  UNL     1      19.110  20.924  49.840  1.00  0.00    -0.616 OA
ENDBRANCH  26  27
ENDBRANCH  23  26
ENDBRANCH  22  23
ENDBRANCH  21  22
ENDBRANCH   3  21
BRANCH   4  31
HETATM   31  O9  UNL     1      21.000  18.670  57.863  1.00  0.00    -0.390 OA
ATOM     32  H9  UNL     1      20.797  18.492  58.773  1.00  0.00     0.210 HD
ENDBRANCH   4  31
TORSDOF 8
ENDMDL
