MODEL 3
REMARK VINA RESULT: -6.870560918      2.576      4.806
REMARK  8 active torsions:
REMARK  status: ('A' for Active; 'I' for Inactive)
REMARK    1  A    between atoms: N5_13  and  C6_14 
REMARK    2  A    between atoms: C7_16  and  C8_17 
REMARK    3  A    between atoms: C8_17  and  O2_18 
REMARK    4  A    between atoms: O2_18  and  P1_19 
REMARK    5  A    between atoms: P1_19  and  O5_22 
REMARK    6  A    between atoms: O5_22  and  P2_23 
REMARK    7  A    between atoms: C9_27  and  O9_28 
REMARK    8  A    between atoms: C10_30  and  O10_31 
ROOT
HETATM    1  C6  UNL     1      16.852  20.576  54.998  1.00  0.00     0.262 C 
HETATM    2  O1  UNL     1      16.904  19.324  54.420  1.00  0.00    -0.353 OA
HETATM    3  C7  UNL     1      16.739  19.440  53.072  1.00  0.00     0.180 C 
HETATM    4  C9  UNL     1      16.960  20.890  52.714  1.00  0.00     0.182 C 
HETATM    5  C10 UNL     1      16.327  21.519  53.962  1.00  0.00     0.198 C 
ENDROOT
BRANCH   1   6
HETATM    6  N5  UNL     1      18.143  20.908  55.508  1.00  0.00    -0.297 N 
HETATM    7  C3  UNL     1      19.182  20.091  55.751  1.00  0.00     0.142 A 
HETATM    8  N3  UNL     1      19.344  18.778  55.603  1.00  0.00    -0.336 N 
HETATM    9  C4  UNL     1      20.227  20.827  56.236  1.00  0.00     0.119 A 
HETATM   10  C2  UNL     1      20.503  18.174  55.922  1.00  0.00     0.183 A 
ATOM     11  H3  UNL     1      18.572  18.217  55.241  1.00  0.00     0.168 HD
HETATM   12  N2  UNL     1      21.534  18.877  56.397  1.00  0.00    -0.339 N 
HETATM   13  C1  UNL     1      21.411  20.197  56.559  1.00  0.00     0.148 A 
ATOM     14  H2  UNL     1      22.408  18.410  56.635  1.00  0.00     0.167 HD
HETATM   15  N1  UNL     1      22.459  21.002  57.057  1.00  0.00    -0.080 NA
HETATM   16  N4  UNL     1      19.817  22.089  56.287  1.00  0.00    -0.346 N 
HETATM   17  C5  UNL     1      18.567  22.138  55.851  1.00  0.00     0.188 A 
ATOM     18  H4  UNL     1      20.370  22.884  56.608  1.00  0.00     0.167 HD
ENDBRANCH   1   6
BRANCH   5  19
HETATM   19  O10 UNL     1      14.950  21.293  53.847  1.00  0.00    -0.388 OA
ATOM     20  H10 UNL     1      14.540  22.125  53.643  1.00  0.00     0.210 HD
ENDBRANCH   5  19
BRANCH   3  21
HETATM   21  C8  UNL     1      17.559  18.501  52.245  1.00  0.00     0.216 C 
BRANCH  21  22
HETATM   22  O2  UNL     1      18.746  19.026  51.803  1.00  0.00    -0.287 OA
BRANCH  22  23
HETATM   23  P1  UNL     1      18.872  18.647  50.140  1.00  0.00     0.418 P 
HETATM   24  O3  UNL     1      18.516  17.194  49.967  1.00  0.00    -0.624 OA
HETATM   25  O4  UNL     1      20.448  18.857  49.590  1.00  0.00    -0.624 OA
BRANCH  23  26
HETATM   26  O5  UNL     1      17.793  19.599  49.289  1.00  0.00    -0.173 OA
BRANCH  26  27
HETATM   27  P2  UNL     1      18.368  21.132  48.954  1.00  0.00     0.431 P 
HETATM   28  O6  UNL     1      19.316  21.139  47.771  1.00  0.00    -0.616 OA
HETATM   29  O7  UNL     1      19.217  21.802  50.259  1.00  0.00    -0.616 OA
HETATM   30  O8  UNL     1      17.019  22.131  48.643  1.00  0.00    -0.616 OA
ENDBRANCH  26  27
ENDBRANCH  23  26
ENDBRANCH  22  23
ENDBRANCH  21  22
ENDBRANCH   3  21
BRANCH   4  31
HETATM   31  O9  UNL     1      16.321  21.276  51.560  1.00  0.00    -0.390 OA
ATOM     32  H9  UNL     1      15.682  21.967  51.692  1.00  0.00     0.210 HD
ENDBRANCH   4  31
TORSDOF 8
ENDMDL
