MODEL 4
REMARK VINA RESULT: -6.712672748      1.104      1.770
REMARK  8 active torsions:
REMARK  status: ('A' for Active; 'I' for Inactive)
REMARK    1  A    between atoms: N5_13  and  C6_14 
REMARK    2  A    between atoms: C7_16  and  C8_17 
REMARK    3  A    between atoms: C8_17  and  O2_18 
REMARK    4  A    between atoms: O2_18  and  P1_19 
REMARK    5  A    between atoms: P1_19  and  O5_22 
REMARK    6  A    between atoms: O5_22  and  P2_23 
REMARK    7  A    between atoms: C9_27  and  O9_28 
REMARK    8  A    between atoms: C10_30  and  O10_31 
ROOT
HETATM    1  C6  UNL     1      19.903  21.620  56.676  1.00  0.00     0.262 C 
HETATM    2  O1  UNL     1      19.902  20.879  55.513  1.00  0.00    -0.353 OA
HETATM    3  C7  UNL     1      20.280  19.599  55.790  1.00  0.00     0.180 C 
HETATM    4  C9  UNL     1      20.165  19.408  57.283  1.00  0.00     0.182 C 
HETATM    5  C10 UNL     1      20.615  20.811  57.714  1.00  0.00     0.198 C 
ENDROOT
BRANCH   1   6
HETATM    6  N5  UNL     1      18.560  21.969  57.008  1.00  0.00    -0.297 N 
HETATM    7  C3  UNL     1      17.485  22.020  56.203  1.00  0.00     0.142 A 
HETATM    8  N3  UNL     1      17.326  21.776  54.904  1.00  0.00    -0.336 N 
HETATM    9  C4  UNL     1      16.395  22.401  56.934  1.00  0.00     0.119 A 
HETATM   10  C2  UNL     1      16.124  21.899  54.310  1.00  0.00     0.183 A 
ATOM     11  H3  UNL     1      18.131  21.490  54.347  1.00  0.00     0.168 HD
HETATM   12  N2  UNL     1      15.049  22.270  55.009  1.00  0.00    -0.339 N 
HETATM   13  C1  UNL     1      15.169  22.523  56.314  1.00  0.00     0.148 A 
ATOM     14  H2  UNL     1      14.144  22.360  54.549  1.00  0.00     0.167 HD
HETATM   15  N1  UNL     1      14.074  22.921  57.114  1.00  0.00    -0.080 NA
HETATM   16  N4  UNL     1      16.813  22.581  58.182  1.00  0.00    -0.346 N 
HETATM   17  C5  UNL     1      18.112  22.321  58.226  1.00  0.00     0.188 A 
ATOM     18  H4  UNL     1      16.234  22.869  58.970  1.00  0.00     0.167 HD
ENDBRANCH   1   6
BRANCH   5  19
HETATM   19  O10 UNL     1      21.985  20.877  57.432  1.00  0.00    -0.388 OA
ATOM     20  H10 UNL     1      22.449  20.534  58.187  1.00  0.00     0.210 HD
ENDBRANCH   5  19
BRANCH   3  21
HETATM   21  C8  UNL     1      19.570  18.540  55.008  1.00  0.00     0.216 C 
BRANCH  21  22
HETATM   22  O2  UNL     1      18.262  18.831  54.719  1.00  0.00    -0.287 OA
BRANCH  22  23
HETATM   23  P1  UNL     1      18.121  18.863  53.015  1.00  0.00     0.418 P 
HETATM   24  O3  UNL     1      19.013  17.787  52.455  1.00  0.00    -0.624 OA
HETATM   25  O4  UNL     1      18.642  20.337  52.392  1.00  0.00    -0.624 OA
BRANCH  23  26
HETATM   26  O5  UNL     1      16.531  18.551  52.603  1.00  0.00    -0.173 OA
BRANCH  26  27
HETATM   27  P2  UNL     1      16.123  19.057  51.063  1.00  0.00     0.431 P 
HETATM   28  O6  UNL     1      17.168  18.662  50.037  1.00  0.00    -0.616 OA
HETATM   29  O7  UNL     1      15.957  20.741  50.960  1.00  0.00    -0.616 OA
HETATM   30  O8  UNL     1      14.614  18.362  50.674  1.00  0.00    -0.616 OA
ENDBRANCH  26  27
ENDBRANCH  23  26
ENDBRANCH  22  23
ENDBRANCH  21  22
ENDBRANCH   3  21
BRANCH   4  31
HETATM   31  O9  UNL     1      20.990  18.427  57.779  1.00  0.00    -0.390 OA
ATOM     32  H9  UNL     1      21.123  18.479  58.718  1.00  0.00     0.210 HD
ENDBRANCH   4  31
TORSDOF 8
ENDMDL
