MODEL 1
REMARK VINA RESULT: -11.667857816      0.000      0.000
REMARK  8 active torsions:
REMARK  status: ('A' for Active; 'I' for Inactive)
REMARK    1  A    between atoms: C3_3  and  O1_4 
REMARK    2  A    between atoms: C6_8  and  C7_9 
REMARK    3  A    between atoms: C15_17  and  C17_19 
REMARK    4  A    between atoms: C17_19  and  C18_20 
REMARK    5  A    between atoms: C18_20  and  C19_21 
REMARK    6  A    between atoms: C19_21  and  C20_22 
REMARK    7  A    between atoms: C20_22  and  O2_25 
REMARK    8  A    between atoms: C27_31  and  O3_32 
ROOT
HETATM    1  C7  UNL     1      60.588   5.480  -3.629  1.00  0.00     0.003 C 
HETATM    2  C8  UNL     1      61.245   5.129  -4.703  1.00  0.00    -0.075 C 
HETATM    3  C9  UNL     1      62.417   5.861  -5.228  1.00  0.00     0.034 C 
HETATM    4  C10 UNL     1      63.565   4.887  -5.246  1.00  0.00     0.005 C 
HETATM    5  C11 UNL     1      63.260   3.577  -5.951  1.00  0.00     0.015 C 
HETATM    6  C12 UNL     1      62.031   2.913  -5.492  1.00  0.00    -0.013 C 
HETATM    7  C13 UNL     1      62.169   2.446  -4.043  1.00  0.00     0.021 C 
HETATM    8  C14 UNL     1      61.398   1.892  -6.311  1.00  0.00    -0.069 C 
HETATM    9  C15 UNL     1      61.744   1.036  -7.231  1.00  0.00    -0.081 C 
HETATM   10  C16 UNL     1      60.688   0.132  -7.827  1.00  0.00     0.043 C 
HETATM   11  C23 UNL     1      59.923   1.905  -5.852  1.00  0.00     0.036 C 
HETATM   12  C24 UNL     1      59.781   3.132  -4.988  1.00  0.00     0.014 C 
HETATM   13  C25 UNL     1      60.904   3.962  -5.533  1.00  0.00     0.027 C 
ENDROOT
BRANCH   1  14
HETATM   14  C6  UNL     1      60.934   6.627  -2.828  1.00  0.00     0.003 C 
HETATM   15  C5  UNL     1      61.422   6.565  -1.608  1.00  0.00    -0.074 C 
HETATM   16  C4  UNL     1      61.673   5.290  -0.917  1.00  0.00     0.070 C 
HETATM   17  C26 UNL     1      61.721   7.857  -0.910  1.00  0.00     0.070 C 
HETATM   18  C3  UNL     1      60.728   5.147   0.286  1.00  0.00     0.152 C 
HETATM   19  C2  UNL     1      60.649   6.509   0.899  1.00  0.00    -0.032 C 
HETATM   20  C1  UNL     1      59.653   6.716   1.758  1.00  0.00     0.019 C 
HETATM   21  C27 UNL     1      61.610   7.590   0.590  1.00  0.00     0.152 C 
BRANCH  18  22
HETATM   22  O1  UNL     1      61.309   4.290   1.205  1.00  0.00    -0.391 OA
ATOM     23  H1  UNL     1      60.745   4.245   1.969  1.00  0.00     0.210 HD
ENDBRANCH  18  22
BRANCH  21  24
HETATM   24  O3  UNL     1      61.228   8.734   1.276  1.00  0.00    -0.391 OA
ATOM     25  H3  UNL     1      62.005   9.149   1.632  1.00  0.00     0.210 HD
ENDBRANCH  21  24
ENDBRANCH   1  14
BRANCH   9  26
HETATM   26  C17 UNL     1      63.137   0.906  -7.689  1.00  0.00     0.034 C 
BRANCH  26  27
HETATM   27  C18 UNL     1      63.835  -0.107  -6.742  1.00  0.00     0.007 C 
BRANCH  27  28
HETATM   28  C19 UNL     1      65.287   0.314  -6.602  1.00  0.00     0.037 C 
BRANCH  28  29
HETATM   29  C20 UNL     1      66.172  -0.842  -6.239  1.00  0.00     0.051 C 
HETATM   30  C21 UNL     1      67.569  -0.446  -5.907  1.00  0.00     0.045 C 
HETATM   31  C22 UNL     1      65.534  -1.597  -5.101  1.00  0.00     0.045 C 
BRANCH  29  32
HETATM   32  O2  UNL     1      66.184  -1.709  -7.351  1.00  0.00    -0.391 OA
ATOM     33  H2  UNL     1      67.094  -1.923  -7.521  1.00  0.00     0.210 HD
ENDBRANCH  29  32
ENDBRANCH  28  29
ENDBRANCH  27  28
ENDBRANCH  26  27
ENDBRANCH   9  26
TORSDOF 8
ENDMDL
