MODEL 5
REMARK VINA RESULT: -9.078605050      1.287      1.614
REMARK  8 active torsions:
REMARK  status: ('A' for Active; 'I' for Inactive)
REMARK    1  A    between atoms: C3_3  and  O1_4 
REMARK    2  A    between atoms: C6_8  and  C7_9 
REMARK    3  A    between atoms: C15_17  and  C17_19 
REMARK    4  A    between atoms: C17_19  and  C18_20 
REMARK    5  A    between atoms: C18_20  and  C19_21 
REMARK    6  A    between atoms: C19_21  and  C20_22 
REMARK    7  A    between atoms: C20_22  and  O2_25 
REMARK    8  A    between atoms: C27_31  and  O3_32 
ROOT
HETATM    1  C7  UNL     1      60.608   6.109  -3.299  1.00  0.00     0.003 C 
HETATM    2  C8  UNL     1      61.258   6.062  -4.432  1.00  0.00    -0.075 C 
HETATM    3  C9  UNL     1      62.251   7.073  -4.855  1.00  0.00     0.034 C 
HETATM    4  C10 UNL     1      63.552   6.344  -5.063  1.00  0.00     0.005 C 
HETATM    5  C11 UNL     1      63.449   5.130  -5.969  1.00  0.00     0.015 C 
HETATM    6  C12 UNL     1      62.386   4.185  -5.598  1.00  0.00    -0.013 C 
HETATM    7  C13 UNL     1      62.683   3.527  -4.250  1.00  0.00     0.021 C 
HETATM    8  C14 UNL     1      61.903   3.208  -6.560  1.00  0.00    -0.069 C 
HETATM    9  C15 UNL     1      62.347   2.589  -7.618  1.00  0.00    -0.081 C 
HETATM   10  C16 UNL     1      61.439   1.611  -8.331  1.00  0.00     0.043 C 
HETATM   11  C23 UNL     1      60.477   2.874  -6.070  1.00  0.00     0.036 C 
HETATM   12  C24 UNL     1      60.164   3.899  -5.011  1.00  0.00     0.014 C 
HETATM   13  C25 UNL     1      61.088   4.999  -5.437  1.00  0.00     0.027 C 
ENDROOT
BRANCH   1  14
HETATM   14  C6  UNL     1      60.786   7.157  -2.327  1.00  0.00     0.003 C 
HETATM   15  C5  UNL     1      61.258   6.977  -1.113  1.00  0.00    -0.074 C 
HETATM   16  C4  UNL     1      61.665   5.656  -0.607  1.00  0.00     0.070 C 
HETATM   17  C26 UNL     1      61.371   8.176  -0.223  1.00  0.00     0.070 C 
HETATM   18  C3  UNL     1      60.728   5.213   0.527  1.00  0.00     0.152 C 
HETATM   19  C2  UNL     1      60.459   6.446   1.330  1.00  0.00    -0.032 C 
HETATM   20  C1  UNL     1      59.431   6.391   2.174  1.00  0.00     0.019 C 
HETATM   21  C27 UNL     1      61.272   7.676   1.217  1.00  0.00     0.152 C 
BRANCH  18  22
HETATM   22  O1  UNL     1      61.403   4.310   1.331  1.00  0.00    -0.391 OA
ATOM     23  H1  UNL     1      61.513   3.501   0.844  1.00  0.00     0.210 HD
ENDBRANCH  18  22
BRANCH  21  24
HETATM   24  O3  UNL     1      60.731   8.645   2.049  1.00  0.00    -0.391 OA
ATOM     25  H3  UNL     1      61.332   8.799   2.768  1.00  0.00     0.210 HD
ENDBRANCH  21  24
ENDBRANCH   1  14
BRANCH   9  26
HETATM   26  C17 UNL     1      63.713   2.795  -8.124  1.00  0.00     0.034 C 
BRANCH  26  27
HETATM   27  C18 UNL     1      64.457   1.439  -7.991  1.00  0.00     0.007 C 
BRANCH  27  28
HETATM   28  C19 UNL     1      64.798   1.238  -6.525  1.00  0.00     0.037 C 
BRANCH  28  29
HETATM   29  C20 UNL     1      64.199  -0.024  -5.978  1.00  0.00     0.051 C 
HETATM   30  C21 UNL     1      63.291  -0.719  -6.933  1.00  0.00     0.045 C 
HETATM   31  C22 UNL     1      65.316  -0.930  -5.528  1.00  0.00     0.045 C 
BRANCH  29  32
HETATM   32  O2  UNL     1      63.474   0.339  -4.824  1.00  0.00    -0.391 OA
ATOM     33  H2  UNL     1      62.896  -0.388  -4.625  1.00  0.00     0.210 HD
ENDBRANCH  29  32
ENDBRANCH  28  29
ENDBRANCH  27  28
ENDBRANCH  26  27
ENDBRANCH   9  26
TORSDOF 8
ENDMDL
