MODEL 10
REMARK VINA RESULT: -8.472998053      1.767      8.618
REMARK  8 active torsions:
REMARK  status: ('A' for Active; 'I' for Inactive)
REMARK    1  A    between atoms: C3_3  and  O1_4 
REMARK    2  A    between atoms: C6_8  and  C7_9 
REMARK    3  A    between atoms: C15_17  and  C17_19 
REMARK    4  A    between atoms: C17_19  and  C18_20 
REMARK    5  A    between atoms: C18_20  and  C19_21 
REMARK    6  A    between atoms: C19_21  and  C20_22 
REMARK    7  A    between atoms: C20_22  and  O2_25 
REMARK    8  A    between atoms: C27_31  and  O3_32 
ROOT
HETATM    1  C7  UNL     1      61.374   4.314  -6.563  1.00  0.00     0.003 C 
HETATM    2  C8  UNL     1      60.625   4.582  -5.526  1.00  0.00    -0.075 C 
HETATM    3  C9  UNL     1      59.520   3.716  -5.062  1.00  0.00     0.034 C 
HETATM    4  C10 UNL     1      59.846   3.318  -3.647  1.00  0.00     0.005 C 
HETATM    5  C11 UNL     1      60.173   4.483  -2.731  1.00  0.00     0.015 C 
HETATM    6  C12 UNL     1      61.199   5.397  -3.255  1.00  0.00    -0.013 C 
HETATM    7  C13 UNL     1      62.557   4.701  -3.349  1.00  0.00     0.021 C 
HETATM    8  C14 UNL     1      61.337   6.738  -2.709  1.00  0.00    -0.069 C 
HETATM    9  C15 UNL     1      61.080   7.360  -1.593  1.00  0.00    -0.081 C 
HETATM   10  C16 UNL     1      61.410   8.832  -1.481  1.00  0.00     0.043 C 
HETATM   11  C23 UNL     1      62.004   7.539  -3.848  1.00  0.00     0.036 C 
HETATM   12  C24 UNL     1      61.947   6.642  -5.059  1.00  0.00     0.014 C 
HETATM   13  C25 UNL     1      60.778   5.782  -4.686  1.00  0.00     0.027 C 
ENDROOT
BRANCH   1  14
HETATM   14  C6  UNL     1      61.210   3.137  -7.376  1.00  0.00     0.003 C 
HETATM   15  C5  UNL     1      61.391   1.905  -6.951  1.00  0.00    -0.074 C 
HETATM   16  C4  UNL     1      61.789   1.592  -5.568  1.00  0.00     0.070 C 
HETATM   17  C26 UNL     1      61.186   0.791  -7.931  1.00  0.00     0.070 C 
HETATM   18  C3  UNL     1      63.198   0.982  -5.550  1.00  0.00     0.152 C 
HETATM   19  C2  UNL     1      63.259   0.073  -6.736  1.00  0.00    -0.032 C 
HETATM   20  C1  UNL     1      64.470  -0.326  -7.117  1.00  0.00     0.019 C 
HETATM   21  C27 UNL     1      62.055  -0.377  -7.469  1.00  0.00     0.152 C 
BRANCH  18  22
HETATM   22  O1  UNL     1      63.332   0.213  -4.406  1.00  0.00    -0.391 OA
ATOM     23  H1  UNL     1      64.239   0.253  -4.123  1.00  0.00     0.210 HD
ENDBRANCH  18  22
BRANCH  21  24
HETATM   24  O3  UNL     1      62.456  -1.160  -8.542  1.00  0.00    -0.391 OA
ATOM     25  H3  UNL     1      62.781  -1.988  -8.210  1.00  0.00     0.210 HD
ENDBRANCH  21  24
ENDBRANCH   1  14
BRANCH   9  26
HETATM   26  C17 UNL     1      60.502   6.667  -0.430  1.00  0.00     0.034 C 
BRANCH  26  27
HETATM   27  C18 UNL     1      61.644   5.840   0.220  1.00  0.00     0.007 C 
BRANCH  27  28
HETATM   28  C19 UNL     1      62.444   6.773   1.111  1.00  0.00     0.037 C 
BRANCH  28  29
HETATM   29  C20 UNL     1      62.012   6.685   2.546  1.00  0.00     0.051 C 
HETATM   30  C21 UNL     1      63.146   6.593   3.508  1.00  0.00     0.045 C 
HETATM   31  C22 UNL     1      61.128   7.867   2.854  1.00  0.00     0.045 C 
BRANCH  29  32
HETATM   32  O2  UNL     1      61.210   5.531   2.657  1.00  0.00    -0.391 OA
ATOM     33  H2  UNL     1      61.276   5.239   3.559  1.00  0.00     0.210 HD
ENDBRANCH  29  32
ENDBRANCH  28  29
ENDBRANCH  27  28
ENDBRANCH  26  27
ENDBRANCH   9  26
TORSDOF 8
ENDMDL
