MODEL 6
REMARK VINA RESULT: -9.021105521      1.177      1.459
REMARK  8 active torsions:
REMARK  status: ('A' for Active; 'I' for Inactive)
REMARK    1  A    between atoms: C3_3  and  O1_4 
REMARK    2  A    between atoms: C6_8  and  C7_9 
REMARK    3  A    between atoms: C15_17  and  C17_19 
REMARK    4  A    between atoms: C17_19  and  C18_20 
REMARK    5  A    between atoms: C18_20  and  C19_21 
REMARK    6  A    between atoms: C19_21  and  C20_22 
REMARK    7  A    between atoms: C20_22  and  O2_25 
REMARK    8  A    between atoms: C27_31  and  O3_32 
ROOT
HETATM    1  C7  UNL     1      60.512   4.813  -3.629  1.00  0.00     0.003 C 
HETATM    2  C8  UNL     1      61.283   4.773  -4.683  1.00  0.00    -0.075 C 
HETATM    3  C9  UNL     1      61.868   5.970  -5.323  1.00  0.00     0.034 C 
HETATM    4  C10 UNL     1      63.363   5.800  -5.281  1.00  0.00     0.005 C 
HETATM    5  C11 UNL     1      63.856   4.475  -5.834  1.00  0.00     0.015 C 
HETATM    6  C12 UNL     1      63.189   3.295  -5.264  1.00  0.00    -0.013 C 
HETATM    7  C13 UNL     1      63.521   3.140  -3.780  1.00  0.00     0.021 C 
HETATM    8  C14 UNL     1      63.252   2.014  -5.949  1.00  0.00    -0.069 C 
HETATM    9  C15 UNL     1      64.041   1.400  -6.786  1.00  0.00    -0.081 C 
HETATM   10  C16 UNL     1      63.681   0.005  -7.246  1.00  0.00     0.043 C 
HETATM   11  C23 UNL     1      62.005   1.256  -5.441  1.00  0.00     0.036 C 
HETATM   12  C24 UNL     1      61.182   2.283  -4.706  1.00  0.00     0.014 C 
HETATM   13  C25 UNL     1      61.671   3.531  -5.375  1.00  0.00     0.027 C 
ENDROOT
BRANCH   1  14
HETATM   14  C6  UNL     1      60.141   6.036  -2.966  1.00  0.00     0.003 C 
HETATM   15  C5  UNL     1      60.752   6.528  -1.910  1.00  0.00    -0.074 C 
HETATM   16  C4  UNL     1      61.907   5.866  -1.281  1.00  0.00     0.070 C 
HETATM   17  C26 UNL     1      60.233   7.811  -1.336  1.00  0.00     0.070 C 
HETATM   18  C3  UNL     1      61.532   5.375   0.126  1.00  0.00     0.152 C 
HETATM   19  C2  UNL     1      60.677   6.452   0.713  1.00  0.00    -0.032 C 
HETATM   20  C1  UNL     1      59.971   6.127   1.793  1.00  0.00     0.019 C 
HETATM   21  C27 UNL     1      60.597   7.817   0.147  1.00  0.00     0.152 C 
BRANCH  18  22
HETATM   22  O1  UNL     1      62.688   5.278   0.882  1.00  0.00    -0.391 OA
ATOM     23  H1  UNL     1      62.777   4.379   1.178  1.00  0.00     0.210 HD
ENDBRANCH  18  22
BRANCH  21  24
HETATM   24  O3  UNL     1      59.680   8.551   0.886  1.00  0.00    -0.391 OA
ATOM     25  H3  UNL     1      60.067   9.392   1.101  1.00  0.00     0.210 HD
ENDBRANCH  21  24
ENDBRANCH   1  14
BRANCH   9  26
HETATM   26  C17 UNL     1      65.284   2.017  -7.278  1.00  0.00     0.034 C 
BRANCH  26  27
HETATM   27  C18 UNL     1      66.432   1.009  -6.999  1.00  0.00     0.007 C 
BRANCH  27  28
HETATM   28  C19 UNL     1      65.931   0.005  -5.977  1.00  0.00     0.037 C 
BRANCH  28  29
HETATM   29  C20 UNL     1      66.656  -1.305  -6.075  1.00  0.00     0.051 C 
HETATM   30  C21 UNL     1      68.126  -1.162  -6.272  1.00  0.00     0.045 C 
HETATM   31  C22 UNL     1      66.346  -2.119  -4.846  1.00  0.00     0.045 C 
BRANCH  29  32
HETATM   32  O2  UNL     1      66.102  -1.992  -7.175  1.00  0.00    -0.391 OA
ATOM     33  H2  UNL     1      66.046  -2.907  -6.924  1.00  0.00     0.210 HD
ENDBRANCH  29  32
ENDBRANCH  28  29
ENDBRANCH  27  28
ENDBRANCH  26  27
ENDBRANCH   9  26
TORSDOF 8
ENDMDL
