MODEL 9
REMARK VINA RESULT: -8.646987960      1.508      8.668
REMARK  8 active torsions:
REMARK  status: ('A' for Active; 'I' for Inactive)
REMARK    1  A    between atoms: C3_3  and  O1_4 
REMARK    2  A    between atoms: C6_8  and  C7_9 
REMARK    3  A    between atoms: C15_17  and  C17_19 
REMARK    4  A    between atoms: C17_19  and  C18_20 
REMARK    5  A    between atoms: C18_20  and  C19_21 
REMARK    6  A    between atoms: C19_21  and  C20_22 
REMARK    7  A    between atoms: C20_22  and  O2_25 
REMARK    8  A    between atoms: C27_31  and  O3_32 
ROOT
HETATM    1  C7  UNL     1      64.351   1.184  -6.851  1.00  0.00     0.003 C 
HETATM    2  C8  UNL     1      63.984   1.949  -5.857  1.00  0.00    -0.075 C 
HETATM    3  C9  UNL     1      64.927   2.723  -5.022  1.00  0.00     0.034 C 
HETATM    4  C10 UNL     1      64.540   4.172  -5.158  1.00  0.00     0.005 C 
HETATM    5  C11 UNL     1      63.072   4.453  -4.893  1.00  0.00     0.015 C 
HETATM    6  C12 UNL     1      62.144   3.601  -5.652  1.00  0.00    -0.013 C 
HETATM    7  C13 UNL     1      62.238   3.889  -7.151  1.00  0.00     0.021 C 
HETATM    8  C14 UNL     1      60.759   3.465  -5.232  1.00  0.00    -0.069 C 
HETATM    9  C15 UNL     1      59.878   4.154  -4.563  1.00  0.00    -0.081 C 
HETATM   10  C16 UNL     1      58.492   3.581  -4.367  1.00  0.00     0.043 C 
HETATM   11  C23 UNL     1      60.319   2.108  -5.825  1.00  0.00     0.036 C 
HETATM   12  C24 UNL     1      61.585   1.452  -6.314  1.00  0.00     0.014 C 
HETATM   13  C25 UNL     1      62.586   2.140  -5.436  1.00  0.00     0.027 C 
ENDROOT
BRANCH   1  14
HETATM   14  C6  UNL     1      65.724   1.006  -7.249  1.00  0.00     0.003 C 
HETATM   15  C5  UNL     1      66.397  -0.117  -7.129  1.00  0.00    -0.074 C 
HETATM   16  C4  UNL     1      65.806  -1.340  -6.563  1.00  0.00     0.070 C 
HETATM   17  C26 UNL     1      67.824  -0.129  -7.586  1.00  0.00     0.070 C 
HETATM   18  C3  UNL     1      66.490  -1.692  -5.233  1.00  0.00     0.152 C 
HETATM   19  C2  UNL     1      67.942  -1.401  -5.440  1.00  0.00    -0.032 C 
HETATM   20  C1  UNL     1      68.693  -1.323  -4.343  1.00  0.00     0.019 C 
HETATM   21  C27 UNL     1      68.544  -1.206  -6.777  1.00  0.00     0.152 C 
BRANCH  18  22
HETATM   22  O1  UNL     1      66.347  -3.050  -5.008  1.00  0.00    -0.391 OA
ATOM     23  H1  UNL     1      65.577  -3.183  -4.465  1.00  0.00     0.210 HD
ENDBRANCH  18  22
BRANCH  21  24
HETATM   24  O3  UNL     1      69.888  -0.901  -6.619  1.00  0.00    -0.391 OA
ATOM     25  H3  UNL     1      70.040  -0.652  -5.715  1.00  0.00     0.210 HD
ENDBRANCH  21  24
ENDBRANCH   1  14
BRANCH   9  26
HETATM   26  C17 UNL     1      60.185   5.484  -4.012  1.00  0.00     0.034 C 
BRANCH  26  27
HETATM   27  C18 UNL     1      60.792   5.263  -2.600  1.00  0.00     0.007 C 
BRANCH  27  28
HETATM   28  C19 UNL     1      61.426   6.570  -2.158  1.00  0.00     0.037 C 
BRANCH  28  29
HETATM   29  C20 UNL     1      61.076   6.911  -0.739  1.00  0.00     0.051 C 
HETATM   30  C21 UNL     1      60.844   5.718   0.123  1.00  0.00     0.045 C 
HETATM   31  C22 UNL     1      62.162   7.791  -0.175  1.00  0.00     0.045 C 
BRANCH  29  32
HETATM   32  O2  UNL     1      59.900   7.688  -0.788  1.00  0.00    -0.391 OA
ATOM     33  H2  UNL     1      60.175   8.598  -0.789  1.00  0.00     0.210 HD
ENDBRANCH  29  32
ENDBRANCH  28  29
ENDBRANCH  27  28
ENDBRANCH  26  27
ENDBRANCH   9  26
TORSDOF 8
ENDMDL
