MODEL 3
REMARK VINA RESULT: -9.778988011      1.072      1.291
REMARK  8 active torsions:
REMARK  status: ('A' for Active; 'I' for Inactive)
REMARK    1  A    between atoms: C3_3  and  O1_4 
REMARK    2  A    between atoms: C6_8  and  C7_9 
REMARK    3  A    between atoms: C15_17  and  C17_19 
REMARK    4  A    between atoms: C17_19  and  C18_20 
REMARK    5  A    between atoms: C18_20  and  C19_21 
REMARK    6  A    between atoms: C19_21  and  C20_22 
REMARK    7  A    between atoms: C20_22  and  O2_25 
REMARK    8  A    between atoms: C27_31  and  O3_32 
ROOT
HETATM    1  C7  UNL     1      60.550   5.137  -3.254  1.00  0.00     0.003 C 
HETATM    2  C8  UNL     1      60.857   4.957  -4.511  1.00  0.00    -0.075 C 
HETATM    3  C9  UNL     1      61.628   5.928  -5.318  1.00  0.00     0.034 C 
HETATM    4  C10 UNL     1      62.859   5.209  -5.802  1.00  0.00     0.005 C 
HETATM    5  C11 UNL     1      62.579   3.885  -6.490  1.00  0.00     0.015 C 
HETATM    6  C12 UNL     1      61.721   2.971  -5.721  1.00  0.00    -0.013 C 
HETATM    7  C13 UNL     1      62.424   2.502  -4.447  1.00  0.00     0.021 C 
HETATM    8  C14 UNL     1      61.046   1.866  -6.381  1.00  0.00    -0.069 C 
HETATM    9  C15 UNL     1      61.210   1.125  -7.440  1.00  0.00    -0.081 C 
HETATM   10  C16 UNL     1      60.199   0.041  -7.742  1.00  0.00     0.043 C 
HETATM   11  C23 UNL     1      59.838   1.565  -5.467  1.00  0.00     0.036 C 
HETATM   12  C24 UNL     1      59.775   2.713  -4.491  1.00  0.00     0.014 C 
HETATM   13  C25 UNL     1      60.475   3.769  -5.292  1.00  0.00     0.027 C 
ENDROOT
BRANCH   1  14
HETATM   14  C6  UNL     1      60.931   6.307  -2.505  1.00  0.00     0.003 C 
HETATM   15  C5  UNL     1      61.411   6.286  -1.280  1.00  0.00    -0.074 C 
HETATM   16  C4  UNL     1      61.616   5.037  -0.529  1.00  0.00     0.070 C 
HETATM   17  C26 UNL     1      61.751   7.598  -0.641  1.00  0.00     0.070 C 
HETATM   18  C3  UNL     1      60.662   4.981   0.674  1.00  0.00     0.152 C 
HETATM   19  C2  UNL     1      60.626   6.372   1.223  1.00  0.00    -0.032 C 
HETATM   20  C1  UNL     1      59.634   6.651   2.065  1.00  0.00     0.019 C 
HETATM   21  C27 UNL     1      61.624   7.405   0.869  1.00  0.00     0.152 C 
BRANCH  18  22
HETATM   22  O1  UNL     1      61.210   4.149   1.635  1.00  0.00    -0.391 OA
ATOM     23  H1  UNL     1      61.573   3.387   1.197  1.00  0.00     0.210 HD
ENDBRANCH  18  22
BRANCH  21  24
HETATM   24  O3  UNL     1      61.278   8.591   1.499  1.00  0.00    -0.391 OA
ATOM     25  H3  UNL     1      60.863   9.163   0.865  1.00  0.00     0.210 HD
ENDBRANCH  21  24
ENDBRANCH   1  14
BRANCH   9  26
HETATM   26  C17 UNL     1      62.364   1.295  -8.338  1.00  0.00     0.034 C 
BRANCH  26  27
HETATM   27  C18 UNL     1      63.375   0.166  -7.999  1.00  0.00     0.007 C 
BRANCH  27  28
HETATM   28  C19 UNL     1      64.221   0.637  -6.830  1.00  0.00     0.037 C 
BRANCH  28  29
HETATM   29  C20 UNL     1      65.548   1.176  -7.279  1.00  0.00     0.051 C 
HETATM   30  C21 UNL     1      65.449   2.148  -8.404  1.00  0.00     0.045 C 
HETATM   31  C22 UNL     1      66.247   1.784  -6.090  1.00  0.00     0.045 C 
BRANCH  29  32
HETATM   32  O2  UNL     1      66.318   0.067  -7.686  1.00  0.00    -0.391 OA
ATOM     33  H2  UNL     1      66.892   0.373  -8.379  1.00  0.00     0.210 HD
ENDBRANCH  29  32
ENDBRANCH  28  29
ENDBRANCH  27  28
ENDBRANCH  26  27
ENDBRANCH   9  26
TORSDOF 8
ENDMDL
