MODEL 2
REMARK VINA RESULT: -11.536138140      0.900      1.098
REMARK  8 active torsions:
REMARK  status: ('A' for Active; 'I' for Inactive)
REMARK    1  A    between atoms: C3_3  and  O1_4 
REMARK    2  A    between atoms: C6_8  and  C7_9 
REMARK    3  A    between atoms: C15_17  and  C17_19 
REMARK    4  A    between atoms: C17_19  and  C18_20 
REMARK    5  A    between atoms: C18_20  and  C19_21 
REMARK    6  A    between atoms: C19_21  and  C20_22 
REMARK    7  A    between atoms: C20_22  and  O2_25 
REMARK    8  A    between atoms: C27_31  and  O3_32 
ROOT
HETATM    1  C7  UNL     1      60.640   5.702  -3.684  1.00  0.00     0.003 C 
HETATM    2  C8  UNL     1      61.333   5.461  -4.766  1.00  0.00    -0.075 C 
HETATM    3  C9  UNL     1      62.443   6.314  -5.240  1.00  0.00     0.034 C 
HETATM    4  C10 UNL     1      63.669   5.443  -5.292  1.00  0.00     0.005 C 
HETATM    5  C11 UNL     1      63.483   4.148  -6.063  1.00  0.00     0.015 C 
HETATM    6  C12 UNL     1      62.312   3.360  -5.652  1.00  0.00    -0.013 C 
HETATM    7  C13 UNL     1      62.476   2.837  -4.225  1.00  0.00     0.021 C 
HETATM    8  C14 UNL     1      61.774   2.331  -6.527  1.00  0.00    -0.069 C 
HETATM    9  C15 UNL     1      62.199   1.554  -7.483  1.00  0.00    -0.081 C 
HETATM   10  C16 UNL     1      61.228   0.594  -8.135  1.00  0.00     0.043 C 
HETATM   11  C23 UNL     1      60.300   2.197  -6.085  1.00  0.00     0.036 C 
HETATM   12  C24 UNL     1      60.047   3.363  -5.165  1.00  0.00     0.014 C 
HETATM   13  C25 UNL     1      61.099   4.311  -5.656  1.00  0.00     0.027 C 
ENDROOT
BRANCH   1  14
HETATM   14  C6  UNL     1      60.881   6.832  -2.825  1.00  0.00     0.003 C 
HETATM   15  C5  UNL     1      61.375   6.753  -1.609  1.00  0.00    -0.074 C 
HETATM   16  C4  UNL     1      61.744   5.473  -0.983  1.00  0.00     0.070 C 
HETATM   17  C26 UNL     1      61.556   8.029  -0.844  1.00  0.00     0.070 C 
HETATM   18  C3  UNL     1      60.819   5.182   0.209  1.00  0.00     0.152 C 
HETATM   19  C2  UNL     1      60.616   6.498   0.891  1.00  0.00    -0.032 C 
HETATM   20  C1  UNL     1      59.608   6.567   1.757  1.00  0.00     0.019 C 
HETATM   21  C27 UNL     1      61.473   7.677   0.640  1.00  0.00     0.152 C 
BRANCH  18  22
HETATM   22  O1  UNL     1      61.479   4.336   1.084  1.00  0.00    -0.391 OA
ATOM     23  H1  UNL     1      61.570   3.487   0.667  1.00  0.00     0.210 HD
ENDBRANCH  18  22
BRANCH  21  24
HETATM   24  O3  UNL     1      60.989   8.744   1.383  1.00  0.00    -0.391 OA
ATOM     25  H3  UNL     1      60.780   8.436   2.257  1.00  0.00     0.210 HD
ENDBRANCH  21  24
ENDBRANCH   1  14
BRANCH   9  26
HETATM   26  C17 UNL     1      63.601   1.565  -7.930  1.00  0.00     0.034 C 
BRANCH  26  27
HETATM   27  C18 UNL     1      64.397   0.657  -6.955  1.00  0.00     0.007 C 
BRANCH  27  28
HETATM   28  C19 UNL     1      65.762   1.288  -6.742  1.00  0.00     0.037 C 
BRANCH  28  29
HETATM   29  C20 UNL     1      66.817   0.258  -6.459  1.00  0.00     0.051 C 
HETATM   30  C21 UNL     1      66.291  -0.976  -5.813  1.00  0.00     0.045 C 
HETATM   31  C22 UNL     1      67.533  -0.061  -7.747  1.00  0.00     0.045 C 
BRANCH  29  32
HETATM   32  O2  UNL     1      67.759   0.868  -5.605  1.00  0.00    -0.391 OA
ATOM     33  H2  UNL     1      68.580   0.407  -5.731  1.00  0.00     0.210 HD
ENDBRANCH  29  32
ENDBRANCH  28  29
ENDBRANCH  27  28
ENDBRANCH  26  27
ENDBRANCH   9  26
TORSDOF 8
ENDMDL
