MODEL 4
REMARK VINA RESULT: -9.338191609      1.608      9.295
REMARK  8 active torsions:
REMARK  status: ('A' for Active; 'I' for Inactive)
REMARK    1  A    between atoms: C3_3  and  O1_4 
REMARK    2  A    between atoms: C6_8  and  C7_9 
REMARK    3  A    between atoms: C15_17  and  C17_19 
REMARK    4  A    between atoms: C17_19  and  C18_20 
REMARK    5  A    between atoms: C18_20  and  C19_21 
REMARK    6  A    between atoms: C19_21  and  C20_22 
REMARK    7  A    between atoms: C20_22  and  O2_25 
REMARK    8  A    between atoms: C27_31  and  O3_32 
ROOT
HETATM    1  C7  UNL     1      63.781   1.960  -6.450  1.00  0.00     0.003 C 
HETATM    2  C8  UNL     1      62.748   2.410  -5.789  1.00  0.00    -0.075 C 
HETATM    3  C9  UNL     1      61.737   1.542  -5.148  1.00  0.00     0.034 C 
HETATM    4  C10 UNL     1      61.743   1.877  -3.681  1.00  0.00     0.005 C 
HETATM    5  C11 UNL     1      61.598   3.358  -3.379  1.00  0.00     0.015 C 
HETATM    6  C12 UNL     1      62.540   4.221  -4.106  1.00  0.00    -0.013 C 
HETATM    7  C13 UNL     1      63.978   3.965  -3.655  1.00  0.00     0.021 C 
HETATM    8  C14 UNL     1      62.281   5.646  -4.238  1.00  0.00    -0.069 C 
HETATM    9  C15 UNL     1      61.629   6.575  -3.598  1.00  0.00    -0.081 C 
HETATM   10  C16 UNL     1      61.643   7.987  -4.140  1.00  0.00     0.043 C 
HETATM   11  C23 UNL     1      63.069   6.053  -5.503  1.00  0.00     0.036 C 
HETATM   12  C24 UNL     1      63.499   4.759  -6.145  1.00  0.00     0.014 C 
HETATM   13  C25 UNL     1      62.451   3.839  -5.596  1.00  0.00     0.027 C 
ENDROOT
BRANCH   1  14
HETATM   14  C6  UNL     1      64.056   0.557  -6.631  1.00  0.00     0.003 C 
HETATM   15  C5  UNL     1      65.204  -0.020  -6.351  1.00  0.00    -0.074 C 
HETATM   16  C4  UNL     1      66.355   0.721  -5.811  1.00  0.00     0.070 C 
HETATM   17  C26 UNL     1      65.326  -1.492  -6.607  1.00  0.00     0.070 C 
HETATM   18  C3  UNL     1      67.499   0.741  -6.836  1.00  0.00     0.152 C 
HETATM   19  C2  UNL     1      67.509  -0.622  -7.454  1.00  0.00    -0.032 C 
HETATM   20  C1  UNL     1      68.196  -0.755  -8.586  1.00  0.00     0.019 C 
HETATM   21  C27 UNL     1      66.804  -1.780  -6.863  1.00  0.00     0.152 C 
BRANCH  18  22
HETATM   22  O1  UNL     1      68.694   0.921  -6.162  1.00  0.00    -0.391 OA
ATOM     23  H1  UNL     1      69.059   0.065  -5.966  1.00  0.00     0.210 HD
ENDBRANCH  18  22
BRANCH  21  24
HETATM   24  O3  UNL     1      66.964  -2.873  -7.702  1.00  0.00    -0.391 OA
ATOM     25  H3  UNL     1      67.838  -2.846  -8.073  1.00  0.00     0.210 HD
ENDBRANCH  21  24
ENDBRANCH   1  14
BRANCH   9  26
HETATM   26  C17 UNL     1      60.901   6.295  -2.350  1.00  0.00     0.034 C 
BRANCH  26  27
HETATM   27  C18 UNL     1      60.932   7.596  -1.503  1.00  0.00     0.007 C 
BRANCH  27  28
HETATM   28  C19 UNL     1      61.675   7.294  -0.215  1.00  0.00     0.037 C 
BRANCH  28  29
HETATM   29  C20 UNL     1      60.748   7.228   0.964  1.00  0.00     0.051 C 
HETATM   30  C21 UNL     1      60.261   5.853   1.266  1.00  0.00     0.045 C 
HETATM   31  C22 UNL     1      61.443   7.836   2.156  1.00  0.00     0.045 C 
BRANCH  29  32
HETATM   32  O2  UNL     1      59.649   8.058   0.662  1.00  0.00    -0.391 OA
ATOM     33  H2  UNL     1      59.721   8.821   1.223  1.00  0.00     0.210 HD
ENDBRANCH  29  32
ENDBRANCH  28  29
ENDBRANCH  27  28
ENDBRANCH  26  27
ENDBRANCH   9  26
TORSDOF 8
ENDMDL
