MODEL 8
REMARK VINA RESULT: -10.217599424      5.921     10.967
REMARK  12 active torsions:
REMARK  status: ('A' for Active; 'I' for Inactive)
REMARK    1  A    between atoms: C2_2  and  C3_3 
REMARK    2  A    between atoms: C3_3  and  C4_4 
REMARK    3  A    between atoms: C4_4  and  C5_5 
REMARK    4  A    between atoms: C6_6  and  C7_7 
REMARK    5  A    between atoms: C14_14  and  O1_15 
REMARK    6  A    between atoms: C15_17  and  C16_18 
REMARK    7  A    between atoms: C16_18  and  C17_19 
REMARK    8  A    between atoms: C16_18  and  C19_21 
REMARK    9  A    between atoms: C23_25  and  N1_26 
REMARK   10  A    between atoms: N1_26  and  S1_28 
REMARK   11  A    between atoms: S1_28  and  C24_31 
REMARK   12  A    between atoms: C27_34  and  C28_35 
ROOT
HETATM    1  C16 UNL     1     -15.619  21.828  17.127  1.00  0.00    -0.029 C 
ENDROOT
BRANCH   1   2
HETATM    2  C15 UNL     1     -16.398  20.638  17.212  1.00  0.00     0.075 C 
HETATM    3  C14 UNL     1     -15.907  19.478  17.587  1.00  0.00     0.063 C 
HETATM    4  C13 UNL     1     -16.679  18.222  17.691  1.00  0.00     0.108 C 
HETATM    5  C4  UNL     1     -18.083  18.502  18.241  1.00  0.00     0.094 C 
HETATM    6  O5  UNL     1     -18.564  19.453  17.175  1.00  0.00    -0.301 OA
HETATM    7  C31 UNL     1     -17.864  20.610  16.985  1.00  0.00     0.297 C 
HETATM    8  O4  UNL     1     -18.378  21.704  16.612  1.00  0.00    -0.259 OA
BRANCH   3   9
HETATM    9  O1  UNL     1     -14.530  19.460  17.910  1.00  0.00    -0.364 OA
ATOM     10  H1  UNL     1     -13.954  18.879  17.427  1.00  0.00     0.217 HD
ENDBRANCH   3   9
BRANCH   5  11
HETATM   11  C3  UNL     1     -19.023  17.410  18.114  1.00  0.00     0.043 C 
BRANCH  11  12
HETATM   12  C2  UNL     1     -20.348  17.471  17.522  1.00  0.00    -0.001 C 
HETATM   13  C1  UNL     1     -21.461  16.660  18.102  1.00  0.00     0.005 C 
ENDBRANCH  11  12
ENDBRANCH   5  11
BRANCH   5  14
HETATM   14  C5  UNL     1     -18.068  19.350  19.434  1.00  0.00     0.013 C 
HETATM   15  C6  UNL     1     -19.255  19.874  20.070  1.00  0.00     0.010 C 
BRANCH  15  16
HETATM   16  C7  UNL     1     -20.315  19.149  20.734  1.00  0.00    -0.036 A 
HETATM   17  C8  UNL     1     -20.198  17.972  21.419  1.00  0.00     0.011 A 
HETATM   18  C9  UNL     1     -21.269  17.302  21.908  1.00  0.00     0.001 A 
HETATM   19  C10 UNL     1     -22.553  17.771  21.744  1.00  0.00     0.000 A 
HETATM   20  C11 UNL     1     -22.678  18.958  21.054  1.00  0.00     0.001 A 
HETATM   21  C12 UNL     1     -21.621  19.656  20.550  1.00  0.00     0.011 A 
ENDBRANCH  15  16
ENDBRANCH   5  14
ENDBRANCH   1   2
BRANCH   1  22
HETATM   22  C17 UNL     1     -14.549  21.955  16.125  1.00  0.00     0.036 C 
HETATM   23  C18 UNL     1     -14.773  21.419  14.768  1.00  0.00     0.010 C 
ENDBRANCH   1  22
BRANCH   1  24
HETATM   24  C19 UNL     1     -15.228  22.456  18.392  1.00  0.00    -0.027 A 
HETATM   25  C20 UNL     1     -15.586  21.994  19.640  1.00  0.00     0.012 A 
HETATM   26  C21 UNL     1     -15.235  22.634  20.816  1.00  0.00     0.003 A 
HETATM   27  C22 UNL     1     -14.499  23.782  20.752  1.00  0.00     0.030 A 
HETATM   28  C23 UNL     1     -14.104  24.305  19.506  1.00  0.00     0.043 A 
HETATM   29  C30 UNL     1     -14.471  23.642  18.379  1.00  0.00     0.042 A 
BRANCH  28  30
HETATM   30  N1  UNL     1     -13.415  25.539  19.545  1.00  0.00    -0.279 N 
ATOM     31  H1  UNL     1     -13.931  26.408  19.682  1.00  0.00     0.179 HD
BRANCH  30  32
HETATM   32  S1  UNL     1     -11.680  25.575  19.360  1.00  0.00     0.278 S 
HETATM   33  O2  UNL     1     -11.027  24.703  20.366  1.00  0.00    -0.199 OA
HETATM   34  O3  UNL     1     -11.164  26.964  19.473  1.00  0.00    -0.199 OA
BRANCH  32  35
HETATM   35  C24 UNL     1     -11.347  24.932  17.735  1.00  0.00     0.149 A 
HETATM   36  C25 UNL     1     -11.087  23.617  17.499  1.00  0.00     0.044 A 
HETATM   37  C26 UNL     1     -10.847  23.175  16.214  1.00  0.00     0.020 A 
HETATM   38  C27 UNL     1     -10.872  24.060  15.171  1.00  0.00     0.063 A 
HETATM   39  C29 UNL     1     -11.137  25.405  15.420  1.00  0.00     0.105 A 
HETATM   40  N2  UNL     1     -11.361  25.785  16.674  1.00  0.00    -0.355 N 
ATOM     41  H2  UNL     1     -11.553  26.771  16.852  1.00  0.00     0.166 HD
BRANCH  38  42
HETATM   42  C28 UNL     1     -10.633  23.633  13.760  1.00  0.00     0.418 C 
HETATM   43  F1  UNL     1      -9.956  24.660  13.125  1.00  0.00    -0.166 F 
HETATM   44  F2  UNL     1     -11.828  23.401  13.077  1.00  0.00    -0.166 F 
HETATM   45  F3  UNL     1      -9.918  22.472  13.751  1.00  0.00    -0.166 F 
ENDBRANCH  38  42
ENDBRANCH  32  35
ENDBRANCH  30  32
ENDBRANCH  28  30
ENDBRANCH   1  24
TORSDOF 12
ENDMDL
