MODEL 1
REMARK VINA RESULT: -11.606794425      0.000      0.000
REMARK  12 active torsions:
REMARK  status: ('A' for Active; 'I' for Inactive)
REMARK    1  A    between atoms: C2_2  and  C3_3 
REMARK    2  A    between atoms: C3_3  and  C4_4 
REMARK    3  A    between atoms: C4_4  and  C5_5 
REMARK    4  A    between atoms: C6_6  and  C7_7 
REMARK    5  A    between atoms: C14_14  and  O1_15 
REMARK    6  A    between atoms: C15_17  and  C16_18 
REMARK    7  A    between atoms: C16_18  and  C17_19 
REMARK    8  A    between atoms: C16_18  and  C19_21 
REMARK    9  A    between atoms: C23_25  and  N1_26 
REMARK   10  A    between atoms: N1_26  and  S1_28 
REMARK   11  A    between atoms: S1_28  and  C24_31 
REMARK   12  A    between atoms: C27_34  and  C28_35 
ROOT
HETATM    1  C16 UNL     1     -18.680  19.565  17.842  1.00  0.00    -0.029 C 
ENDROOT
BRANCH   1   2
HETATM    2  C15 UNL     1     -17.400  20.181  17.955  1.00  0.00     0.075 C 
HETATM    3  C14 UNL     1     -16.329  19.550  18.380  1.00  0.00     0.063 C 
HETATM    4  C13 UNL     1     -14.984  20.150  18.508  1.00  0.00     0.108 C 
HETATM    5  C4  UNL     1     -14.712  21.107  17.341  1.00  0.00     0.094 C 
HETATM    6  O5  UNL     1     -15.855  22.065  17.556  1.00  0.00    -0.301 OA
HETATM    7  C31 UNL     1     -17.127  21.569  17.506  1.00  0.00     0.297 C 
HETATM    8  O4  UNL     1     -18.133  22.217  17.098  1.00  0.00    -0.259 OA
BRANCH   3   9
HETATM    9  O1  UNL     1     -16.506  18.191  18.734  1.00  0.00    -0.364 OA
ATOM     10  H1  UNL     1     -16.350  17.523  18.076  1.00  0.00     0.217 HD
ENDBRANCH   3   9
BRANCH   5  11
HETATM   11  C3  UNL     1     -13.563  21.969  17.507  1.00  0.00     0.043 C 
BRANCH  11  12
HETATM   12  C2  UNL     1     -13.482  23.154  18.345  1.00  0.00    -0.001 C 
HETATM   13  C1  UNL     1     -12.199  23.914  18.436  1.00  0.00     0.005 C 
ENDBRANCH  11  12
ENDBRANCH   5  11
BRANCH   5  14
HETATM   14  C5  UNL     1     -15.034  20.521  16.038  1.00  0.00     0.013 C 
HETATM   15  C6  UNL     1     -14.951  21.237  14.786  1.00  0.00     0.010 C 
BRANCH  15  16
HETATM   16  C7  UNL     1     -13.779  21.772  14.132  1.00  0.00    -0.036 A 
HETATM   17  C8  UNL     1     -12.687  21.069  13.704  1.00  0.00     0.011 A 
HETATM   18  C9  UNL     1     -11.580  21.671  13.208  1.00  0.00     0.001 A 
HETATM   19  C10 UNL     1     -11.485  23.041  13.102  1.00  0.00     0.000 A 
HETATM   20  C11 UNL     1     -12.584  23.755  13.531  1.00  0.00     0.001 A 
HETATM   21  C12 UNL     1     -13.712  23.180  14.034  1.00  0.00     0.011 A 
ENDBRANCH  15  16
ENDBRANCH   5  14
ENDBRANCH   1   2
BRANCH   1  22
HETATM   22  C17 UNL     1     -19.358  19.020  19.029  1.00  0.00     0.036 C 
HETATM   23  C18 UNL     1     -19.603  19.908  20.183  1.00  0.00     0.010 C 
ENDBRANCH   1  22
BRANCH   1  24
HETATM   24  C19 UNL     1     -18.903  18.709  16.674  1.00  0.00    -0.027 A 
HETATM   25  C20 UNL     1     -17.948  18.412  15.726  1.00  0.00     0.012 A 
HETATM   26  C21 UNL     1     -18.202  17.633  14.611  1.00  0.00     0.003 A 
HETATM   27  C22 UNL     1     -19.457  17.127  14.426  1.00  0.00     0.030 A 
HETATM   28  C23 UNL     1     -20.476  17.397  15.359  1.00  0.00     0.043 A 
HETATM   29  C30 UNL     1     -20.180  18.166  16.439  1.00  0.00     0.042 A 
BRANCH  28  30
HETATM   30  N1  UNL     1     -21.758  16.895  15.035  1.00  0.00    -0.279 N 
ATOM     31  H1  UNL     1     -22.292  17.313  14.274  1.00  0.00     0.179 HD
BRANCH  30  32
HETATM   32  S1  UNL     1     -22.424  15.559  15.938  1.00  0.00     0.278 S 
HETATM   33  O2  UNL     1     -21.567  14.356  15.805  1.00  0.00    -0.199 OA
HETATM   34  O3  UNL     1     -23.808  15.254  15.489  1.00  0.00    -0.199 OA
BRANCH  32  35
HETATM   35  C24 UNL     1     -22.436  16.075  17.640  1.00  0.00     0.149 A 
HETATM   36  C25 UNL     1     -21.445  15.755  18.516  1.00  0.00     0.044 A 
HETATM   37  C26 UNL     1     -21.505  16.194  19.823  1.00  0.00     0.020 A 
HETATM   38  C27 UNL     1     -22.562  16.955  20.242  1.00  0.00     0.063 A 
HETATM   39  C29 UNL     1     -23.574  17.276  19.340  1.00  0.00     0.105 A 
HETATM   40  N2  UNL     1     -23.475  16.830  18.091  1.00  0.00    -0.355 N 
ATOM     41  H2  UNL     1     -24.219  17.067  17.435  1.00  0.00     0.166 HD
BRANCH  38  42
HETATM   42  C28 UNL     1     -22.668  17.467  21.640  1.00  0.00     0.418 C 
HETATM   43  F1  UNL     1     -21.828  16.698  22.428  1.00  0.00    -0.166 F 
HETATM   44  F2  UNL     1     -23.967  17.356  22.139  1.00  0.00    -0.166 F 
HETATM   45  F3  UNL     1     -22.324  18.786  21.670  1.00  0.00    -0.166 F 
ENDBRANCH  38  42
ENDBRANCH  32  35
ENDBRANCH  30  32
ENDBRANCH  28  30
ENDBRANCH   1  24
TORSDOF 12
ENDMDL
