MODEL 4
REMARK VINA RESULT: -10.849507789      6.253     11.020
REMARK  12 active torsions:
REMARK  status: ('A' for Active; 'I' for Inactive)
REMARK    1  A    between atoms: C2_2  and  C3_3 
REMARK    2  A    between atoms: C3_3  and  C4_4 
REMARK    3  A    between atoms: C4_4  and  C5_5 
REMARK    4  A    between atoms: C6_6  and  C7_7 
REMARK    5  A    between atoms: C14_14  and  O1_15 
REMARK    6  A    between atoms: C15_17  and  C16_18 
REMARK    7  A    between atoms: C16_18  and  C17_19 
REMARK    8  A    between atoms: C16_18  and  C19_21 
REMARK    9  A    between atoms: C23_25  and  N1_26 
REMARK   10  A    between atoms: N1_26  and  S1_28 
REMARK   11  A    between atoms: S1_28  and  C24_31 
REMARK   12  A    between atoms: C27_34  and  C28_35 
ROOT
HETATM    1  C16 UNL     1     -15.192  22.189  17.326  1.00  0.00    -0.029 C 
ENDROOT
BRANCH   1   2
HETATM    2  C15 UNL     1     -16.076  21.139  17.711  1.00  0.00     0.075 C 
HETATM    3  C14 UNL     1     -17.385  21.241  17.659  1.00  0.00     0.063 C 
HETATM    4  C13 UNL     1     -18.336  20.177  18.045  1.00  0.00     0.108 C 
HETATM    5  C4  UNL     1     -17.808  18.805  17.609  1.00  0.00     0.094 C 
HETATM    6  O5  UNL     1     -16.510  18.801  18.376  1.00  0.00    -0.301 OA
HETATM    7  C31 UNL     1     -15.606  19.789  18.110  1.00  0.00     0.297 C 
HETATM    8  O4  UNL     1     -14.351  19.649  18.182  1.00  0.00    -0.259 OA
BRANCH   3   9
HETATM    9  O1  UNL     1     -17.896  22.475  17.194  1.00  0.00    -0.364 OA
ATOM     10  H1  UNL     1     -17.505  22.871  16.423  1.00  0.00     0.217 HD
ENDBRANCH   3   9
BRANCH   5  11
HETATM   11  C3  UNL     1     -18.498  17.669  18.183  1.00  0.00     0.043 C 
BRANCH  11  12
HETATM   12  C2  UNL     1     -19.917  17.577  18.481  1.00  0.00    -0.001 C 
HETATM   13  C1  UNL     1     -20.669  16.332  18.142  1.00  0.00     0.005 C 
ENDBRANCH  11  12
ENDBRANCH   5  11
BRANCH   5  14
HETATM   14  C5  UNL     1     -17.351  18.786  16.219  1.00  0.00     0.013 C 
HETATM   15  C6  UNL     1     -17.617  17.710  15.293  1.00  0.00     0.010 C 
BRANCH  15  16
HETATM   16  C7  UNL     1     -18.889  17.271  14.764  1.00  0.00    -0.036 A 
HETATM   17  C8  UNL     1     -20.105  17.864  14.959  1.00  0.00     0.011 A 
HETATM   18  C9  UNL     1     -21.263  17.314  14.523  1.00  0.00     0.001 A 
HETATM   19  C10 UNL     1     -21.287  16.114  13.849  1.00  0.00     0.000 A 
HETATM   20  C11 UNL     1     -20.063  15.511  13.648  1.00  0.00     0.001 A 
HETATM   21  C12 UNL     1     -18.881  16.038  14.074  1.00  0.00     0.011 A 
ENDBRANCH  15  16
ENDBRANCH   5  14
ENDBRANCH   1   2
BRANCH   1  22
HETATM   22  C17 UNL     1     -14.281  22.022  16.182  1.00  0.00     0.036 C 
HETATM   23  C18 UNL     1     -14.811  21.469  14.921  1.00  0.00     0.010 C 
ENDBRANCH   1  22
BRANCH   1  24
HETATM   24  C19 UNL     1     -14.544  22.938  18.406  1.00  0.00    -0.027 A 
HETATM   25  C20 UNL     1     -15.148  23.279  19.596  1.00  0.00     0.012 A 
HETATM   26  C21 UNL     1     -14.522  24.025  20.579  1.00  0.00     0.003 A 
HETATM   27  C22 UNL     1     -13.241  24.452  20.374  1.00  0.00     0.030 A 
HETATM   28  C23 UNL     1     -12.570  24.136  19.177  1.00  0.00     0.043 A 
HETATM   29  C30 UNL     1     -13.225  23.401  18.241  1.00  0.00     0.042 A 
BRANCH  28  30
HETATM   30  N1  UNL     1     -11.279  24.692  19.029  1.00  0.00    -0.279 N 
ATOM     31  H1  UNL     1     -10.476  24.242  19.468  1.00  0.00     0.179 HD
BRANCH  30  32
HETATM   32  S1  UNL     1     -11.060  26.149  18.095  1.00  0.00     0.278 S 
HETATM   33  O2  UNL     1      -9.768  26.797  18.427  1.00  0.00    -0.199 OA
HETATM   34  O3  UNL     1     -12.182  27.097  18.321  1.00  0.00    -0.199 OA
BRANCH  32  35
HETATM   35  C24 UNL     1     -11.028  25.639  16.391  1.00  0.00     0.149 A 
HETATM   36  C25 UNL     1     -10.689  24.380  16.002  1.00  0.00     0.044 A 
HETATM   37  C26 UNL     1     -10.694  24.040  14.665  1.00  0.00     0.020 A 
HETATM   38  C27 UNL     1     -11.042  24.970  13.724  1.00  0.00     0.063 A 
HETATM   39  C29 UNL     1     -11.386  26.258  14.129  1.00  0.00     0.105 A 
HETATM   40  N2  UNL     1     -11.366  26.541  15.428  1.00  0.00    -0.355 N 
ATOM     41  H2  UNL     1     -11.617  27.485  15.719  1.00  0.00     0.166 HD
BRANCH  38  42
HETATM   42  C28 UNL     1     -11.077  24.651  12.266  1.00  0.00     0.418 C 
HETATM   43  F1  UNL     1      -9.766  24.547  11.832  1.00  0.00    -0.166 F 
HETATM   44  F2  UNL     1     -11.710  25.653  11.528  1.00  0.00    -0.166 F 
HETATM   45  F3  UNL     1     -11.769  23.493  12.069  1.00  0.00    -0.166 F 
ENDBRANCH  38  42
ENDBRANCH  32  35
ENDBRANCH  30  32
ENDBRANCH  28  30
ENDBRANCH   1  24
TORSDOF 12
ENDMDL
