MODEL 2
REMARK VINA RESULT: -11.392622661      6.007     10.776
REMARK  12 active torsions:
REMARK  status: ('A' for Active; 'I' for Inactive)
REMARK    1  A    between atoms: C2_2  and  C3_3 
REMARK    2  A    between atoms: C3_3  and  C4_4 
REMARK    3  A    between atoms: C4_4  and  C5_5 
REMARK    4  A    between atoms: C6_6  and  C7_7 
REMARK    5  A    between atoms: C14_14  and  O1_15 
REMARK    6  A    between atoms: C15_17  and  C16_18 
REMARK    7  A    between atoms: C16_18  and  C17_19 
REMARK    8  A    between atoms: C16_18  and  C19_21 
REMARK    9  A    between atoms: C23_25  and  N1_26 
REMARK   10  A    between atoms: N1_26  and  S1_28 
REMARK   11  A    between atoms: S1_28  and  C24_31 
REMARK   12  A    between atoms: C27_34  and  C28_35 
ROOT
HETATM    1  C16 UNL     1     -15.418  22.076  17.391  1.00  0.00    -0.029 C 
ENDROOT
BRANCH   1   2
HETATM    2  C15 UNL     1     -16.297  21.010  17.741  1.00  0.00     0.075 C 
HETATM    3  C14 UNL     1     -17.606  21.096  17.658  1.00  0.00     0.063 C 
HETATM    4  C13 UNL     1     -18.552  20.015  18.007  1.00  0.00     0.108 C 
HETATM    5  C4  UNL     1     -17.995  18.655  17.569  1.00  0.00     0.094 C 
HETATM    6  O5  UNL     1     -16.717  18.660  18.367  1.00  0.00    -0.301 OA
HETATM    7  C31 UNL     1     -15.819  19.662  18.136  1.00  0.00     0.297 C 
HETATM    8  O4  UNL     1     -14.564  19.538  18.238  1.00  0.00    -0.259 OA
BRANCH   3   9
HETATM    9  O1  UNL     1     -18.121  22.329  17.195  1.00  0.00    -0.364 OA
ATOM     10  H1  UNL     1     -17.654  22.791  16.508  1.00  0.00     0.217 HD
ENDBRANCH   3   9
BRANCH   5  11
HETATM   11  C3  UNL     1     -18.683  17.504  18.111  1.00  0.00     0.043 C 
BRANCH  11  12
HETATM   12  C2  UNL     1     -20.075  17.440  18.521  1.00  0.00    -0.001 C 
HETATM   13  C1  UNL     1     -20.905  16.254  18.155  1.00  0.00     0.005 C 
ENDBRANCH  11  12
ENDBRANCH   5  11
BRANCH   5  14
HETATM   14  C5  UNL     1     -17.503  18.659  16.190  1.00  0.00     0.013 C 
HETATM   15  C6  UNL     1     -17.730  17.590  15.245  1.00  0.00     0.010 C 
BRANCH  15  16
HETATM   16  C7  UNL     1     -18.982  17.139  14.680  1.00  0.00    -0.036 A 
HETATM   17  C8  UNL     1     -20.216  17.693  14.877  1.00  0.00     0.011 A 
HETATM   18  C9  UNL     1     -21.352  17.131  14.402  1.00  0.00     0.001 A 
HETATM   19  C10 UNL     1     -21.335  15.956  13.684  1.00  0.00     0.000 A 
HETATM   20  C11 UNL     1     -20.092  15.393  13.481  1.00  0.00     0.001 A 
HETATM   21  C12 UNL     1     -18.931  15.933  13.945  1.00  0.00     0.011 A 
ENDBRANCH  15  16
ENDBRANCH   5  14
ENDBRANCH   1   2
BRANCH   1  22
HETATM   22  C17 UNL     1     -14.395  21.895  16.349  1.00  0.00     0.036 C 
HETATM   23  C18 UNL     1     -14.810  21.413  15.016  1.00  0.00     0.010 C 
ENDBRANCH   1  22
BRANCH   1  24
HETATM   24  C19 UNL     1     -14.905  22.899  18.489  1.00  0.00    -0.027 A 
HETATM   25  C20 UNL     1     -15.171  22.681  19.824  1.00  0.00     0.012 A 
HETATM   26  C21 UNL     1     -14.704  23.502  20.835  1.00  0.00     0.003 A 
HETATM   27  C22 UNL     1     -13.943  24.588  20.510  1.00  0.00     0.030 A 
HETATM   28  C23 UNL     1     -13.638  24.866  19.164  1.00  0.00     0.043 A 
HETATM   29  C30 UNL     1     -14.117  24.031  18.205  1.00  0.00     0.042 A 
BRANCH  28  30
HETATM   30  N1  UNL     1     -12.913  26.056  18.929  1.00  0.00    -0.279 N 
ATOM     31  H1  UNL     1     -13.397  26.953  18.907  1.00  0.00     0.179 HD
BRANCH  30  32
HETATM   32  S1  UNL     1     -11.188  25.990  18.676  1.00  0.00     0.278 S 
HETATM   33  O2  UNL     1     -10.521  25.279  19.793  1.00  0.00    -0.199 OA
HETATM   34  O3  UNL     1     -10.622  27.355  18.525  1.00  0.00    -0.199 OA
BRANCH  32  35
HETATM   35  C24 UNL     1     -10.948  25.062  17.177  1.00  0.00     0.149 A 
HETATM   36  C25 UNL     1     -10.538  23.764  17.168  1.00  0.00     0.044 A 
HETATM   37  C26 UNL     1     -10.380  23.093  15.972  1.00  0.00     0.020 A 
HETATM   38  C27 UNL     1     -10.637  23.732  14.790  1.00  0.00     0.063 A 
HETATM   39  C29 UNL     1     -11.053  25.062  14.807  1.00  0.00     0.105 A 
HETATM   40  N2  UNL     1     -11.191  25.668  15.982  1.00  0.00    -0.355 N 
ATOM     41  H2  UNL     1     -11.494  26.642  15.989  1.00  0.00     0.166 HD
BRANCH  38  42
HETATM   42  C28 UNL     1     -10.495  23.049  13.470  1.00  0.00     0.418 C 
HETATM   43  F1  UNL     1     -10.158  24.015  12.538  1.00  0.00    -0.166 F 
HETATM   44  F2  UNL     1     -11.686  22.442  13.067  1.00  0.00    -0.166 F 
HETATM   45  F3  UNL     1      -9.544  22.076  13.560  1.00  0.00    -0.166 F 
ENDBRANCH  38  42
ENDBRANCH  32  35
ENDBRANCH  30  32
ENDBRANCH  28  30
ENDBRANCH   1  24
TORSDOF 12
ENDMDL
