MODEL 4
REMARK VINA RESULT: -10.554104610      7.399     13.013
REMARK  12 active torsions:
REMARK  status: ('A' for Active; 'I' for Inactive)
REMARK    1  A    between atoms: C2_2  and  C3_3 
REMARK    2  A    between atoms: C3_3  and  C4_4 
REMARK    3  A    between atoms: C4_4  and  C5_5 
REMARK    4  A    between atoms: C6_6  and  C7_7 
REMARK    5  A    between atoms: C14_14  and  O1_15 
REMARK    6  A    between atoms: C15_17  and  C16_18 
REMARK    7  A    between atoms: C16_18  and  C17_19 
REMARK    8  A    between atoms: C16_18  and  C19_21 
REMARK    9  A    between atoms: C23_25  and  N1_26 
REMARK   10  A    between atoms: N1_26  and  S1_28 
REMARK   11  A    between atoms: S1_28  and  C24_31 
REMARK   12  A    between atoms: C27_34  and  C28_35 
ROOT
HETATM    1  C16 UNL     1      13.832  20.846  18.104  1.00  0.00    -0.029 C 
ENDROOT
BRANCH   1   2
HETATM    2  C15 UNL     1      12.682  20.053  17.827  1.00  0.00     0.075 C 
HETATM    3  C14 UNL     1      12.590  18.779  18.136  1.00  0.00     0.063 C 
HETATM    4  C13 UNL     1      11.416  17.921  17.869  1.00  0.00     0.108 C 
HETATM    5  C4  UNL     1      10.119  18.705  18.101  1.00  0.00     0.094 C 
HETATM    6  O5  UNL     1      10.334  19.812  17.100  1.00  0.00    -0.301 OA
HETATM    7  C31 UNL     1      11.432  20.611  17.253  1.00  0.00     0.297 C 
HETATM    8  O4  UNL     1      11.478  21.833  16.932  1.00  0.00    -0.259 OA
BRANCH   3   9
HETATM    9  O1  UNL     1      13.718  18.210  18.773  1.00  0.00    -0.364 OA
ATOM     10  H1  UNL     1      13.825  18.334  19.709  1.00  0.00     0.217 HD
ENDBRANCH   3   9
BRANCH   5  11
HETATM   11  C3  UNL     1       8.919  18.074  17.596  1.00  0.00     0.043 C 
BRANCH  11  12
HETATM   12  C2  UNL     1       8.652  16.648  17.531  1.00  0.00    -0.001 C 
HETATM   13  C1  UNL     1       7.462  16.081  18.234  1.00  0.00     0.005 C 
ENDBRANCH  11  12
ENDBRANCH   5  11
BRANCH   5  14
HETATM   14  C5  UNL     1      10.111  19.430  19.373  1.00  0.00     0.013 C 
HETATM   15  C6  UNL     1       8.943  19.586  20.210  1.00  0.00     0.010 C 
BRANCH  15  16
HETATM   16  C7  UNL     1       8.198  18.567  20.913  1.00  0.00    -0.036 A 
HETATM   17  C8  UNL     1       6.886  18.628  21.294  1.00  0.00     0.011 A 
HETATM   18  C9  UNL     1       6.303  17.672  22.056  1.00  0.00     0.001 A 
HETATM   19  C10 UNL     1       7.000  16.570  22.497  1.00  0.00     0.000 A 
HETATM   20  C11 UNL     1       8.324  16.503  22.115  1.00  0.00     0.001 A 
HETATM   21  C12 UNL     1       8.940  17.446  21.349  1.00  0.00     0.011 A 
ENDBRANCH  15  16
ENDBRANCH   5  14
ENDBRANCH   1   2
BRANCH   1  22
HETATM   22  C17 UNL     1      13.744  22.010  19.000  1.00  0.00     0.036 C 
HETATM   23  C18 UNL     1      14.220  21.879  20.392  1.00  0.00     0.010 C 
ENDBRANCH   1  22
BRANCH   1  24
HETATM   24  C19 UNL     1      14.736  21.118  16.983  1.00  0.00    -0.027 A 
HETATM   25  C20 UNL     1      15.036  20.219  15.983  1.00  0.00     0.012 A 
HETATM   26  C21 UNL     1      15.928  20.491  14.960  1.00  0.00     0.003 A 
HETATM   27  C22 UNL     1      16.550  21.707  14.927  1.00  0.00     0.030 A 
HETATM   28  C23 UNL     1      16.285  22.667  15.922  1.00  0.00     0.043 A 
HETATM   29  C30 UNL     1      15.402  22.355  16.906  1.00  0.00     0.042 A 
BRANCH  28  30
HETATM   30  N1  UNL     1      17.039  23.860  15.843  1.00  0.00    -0.279 N 
ATOM     31  H1  UNL     1      16.755  24.602  15.204  1.00  0.00     0.179 HD
BRANCH  30  32
HETATM   32  S1  UNL     1      18.457  24.063  16.841  1.00  0.00     0.278 S 
HETATM   33  O2  UNL     1      19.630  23.397  16.226  1.00  0.00    -0.199 OA
HETATM   34  O3  UNL     1      18.223  23.529  18.208  1.00  0.00    -0.199 OA
BRANCH  32  35
HETATM   35  C24 UNL     1      18.759  25.814  16.914  1.00  0.00     0.149 A 
HETATM   36  C25 UNL     1      18.832  26.503  18.086  1.00  0.00     0.044 A 
HETATM   37  C26 UNL     1      19.080  27.860  18.080  1.00  0.00     0.020 A 
HETATM   38  C27 UNL     1      19.255  28.518  16.894  1.00  0.00     0.063 A 
HETATM   39  C29 UNL     1      19.177  27.807  15.698  1.00  0.00     0.105 A 
HETATM   40  N2  UNL     1      18.934  26.501  15.752  1.00  0.00    -0.355 N 
ATOM     41  H2  UNL     1      18.877  25.985  14.874  1.00  0.00     0.166 HD
BRANCH  38  42
HETATM   42  C28 UNL     1      19.540  29.983  16.832  1.00  0.00     0.418 C 
HETATM   43  F1  UNL     1      18.556  30.563  16.049  1.00  0.00    -0.166 F 
HETATM   44  F2  UNL     1      20.781  30.249  16.251  1.00  0.00    -0.166 F 
HETATM   45  F3  UNL     1      19.554  30.498  18.094  1.00  0.00    -0.166 F 
ENDBRANCH  38  42
ENDBRANCH  32  35
ENDBRANCH  30  32
ENDBRANCH  28  30
ENDBRANCH   1  24
TORSDOF 12
ENDMDL
