MODEL 2
REMARK VINA RESULT: -10.689127513      6.278     11.693
REMARK  12 active torsions:
REMARK  status: ('A' for Active; 'I' for Inactive)
REMARK    1  A    between atoms: C2_2  and  C3_3 
REMARK    2  A    between atoms: C3_3  and  C4_4 
REMARK    3  A    between atoms: C4_4  and  C5_5 
REMARK    4  A    between atoms: C6_6  and  C7_7 
REMARK    5  A    between atoms: C14_14  and  O1_15 
REMARK    6  A    between atoms: C15_17  and  C16_18 
REMARK    7  A    between atoms: C16_18  and  C17_19 
REMARK    8  A    between atoms: C16_18  and  C19_21 
REMARK    9  A    between atoms: C23_25  and  N1_26 
REMARK   10  A    between atoms: N1_26  and  S1_28 
REMARK   11  A    between atoms: S1_28  and  C24_31 
REMARK   12  A    between atoms: C27_34  and  C28_35 
ROOT
HETATM    1  C16 UNL     1      13.914  20.742  18.106  1.00  0.00    -0.029 C 
ENDROOT
BRANCH   1   2
HETATM    2  C15 UNL     1      12.746  19.978  17.819  1.00  0.00     0.075 C 
HETATM    3  C14 UNL     1      12.621  18.706  18.125  1.00  0.00     0.063 C 
HETATM    4  C13 UNL     1      11.427  17.879  17.848  1.00  0.00     0.108 C 
HETATM    5  C4  UNL     1      10.148  18.694  18.073  1.00  0.00     0.094 C 
HETATM    6  O5  UNL     1      10.398  19.797  17.077  1.00  0.00    -0.301 OA
HETATM    7  C31 UNL     1      11.514  20.568  17.239  1.00  0.00     0.297 C 
HETATM    8  O4  UNL     1      11.593  21.789  16.921  1.00  0.00    -0.259 OA
BRANCH   3   9
HETATM    9  O1  UNL     1      13.730  18.108  18.769  1.00  0.00    -0.364 OA
ATOM     10  H1  UNL     1      14.542  18.597  18.828  1.00  0.00     0.217 HD
ENDBRANCH   3   9
BRANCH   5  11
HETATM   11  C3  UNL     1       8.937  18.094  17.558  1.00  0.00     0.043 C 
BRANCH  11  12
HETATM   12  C2  UNL     1       8.678  16.675  17.385  1.00  0.00    -0.001 C 
HETATM   13  C1  UNL     1       7.707  15.980  18.282  1.00  0.00     0.005 C 
ENDBRANCH  11  12
ENDBRANCH   5  11
BRANCH   5  14
HETATM   14  C5  UNL     1      10.150  19.416  19.347  1.00  0.00     0.013 C 
HETATM   15  C6  UNL     1       8.981  19.598  20.177  1.00  0.00     0.010 C 
BRANCH  15  16
HETATM   16  C7  UNL     1       8.207  18.596  20.873  1.00  0.00    -0.036 A 
HETATM   17  C8  UNL     1       6.874  18.651  21.170  1.00  0.00     0.011 A 
HETATM   18  C9  UNL     1       6.256  17.717  21.932  1.00  0.00     0.001 A 
HETATM   19  C10 UNL     1       6.940  16.644  22.459  1.00  0.00     0.000 A 
HETATM   20  C11 UNL     1       8.285  16.583  22.163  1.00  0.00     0.001 A 
HETATM   21  C12 UNL     1       8.935  17.505  21.399  1.00  0.00     0.011 A 
ENDBRANCH  15  16
ENDBRANCH   5  14
ENDBRANCH   1   2
BRANCH   1  22
HETATM   22  C17 UNL     1      13.865  21.858  19.065  1.00  0.00     0.036 C 
HETATM   23  C18 UNL     1      14.036  21.572  20.503  1.00  0.00     0.010 C 
ENDBRANCH   1  22
BRANCH   1  24
HETATM   24  C19 UNL     1      14.790  21.062  16.977  1.00  0.00    -0.027 A 
HETATM   25  C20 UNL     1      15.154  20.172  15.990  1.00  0.00     0.012 A 
HETATM   26  C21 UNL     1      16.019  20.494  14.958  1.00  0.00     0.003 A 
HETATM   27  C22 UNL     1      16.546  21.752  14.902  1.00  0.00     0.030 A 
HETATM   28  C23 UNL     1      16.214  22.706  15.882  1.00  0.00     0.043 A 
HETATM   29  C30 UNL     1      15.360  22.345  16.876  1.00  0.00     0.042 A 
BRANCH  28  30
HETATM   30  N1  UNL     1      16.875  23.952  15.780  1.00  0.00    -0.279 N 
ATOM     31  H1  UNL     1      16.559  24.643  15.100  1.00  0.00     0.179 HD
BRANCH  30  32
HETATM   32  S1  UNL     1      18.231  24.306  16.818  1.00  0.00     0.278 S 
HETATM   33  O2  UNL     1      18.941  25.523  16.358  1.00  0.00    -0.199 OA
HETATM   34  O3  UNL     1      19.170  23.155  16.874  1.00  0.00    -0.199 OA
BRANCH  32  35
HETATM   35  C24 UNL     1      17.547  24.612  18.432  1.00  0.00     0.149 A 
HETATM   36  C25 UNL     1      18.296  25.051  19.481  1.00  0.00     0.044 A 
HETATM   37  C26 UNL     1      17.706  25.281  20.707  1.00  0.00     0.020 A 
HETATM   38  C27 UNL     1      16.365  25.070  20.871  1.00  0.00     0.063 A 
HETATM   39  C29 UNL     1      15.605  24.618  19.794  1.00  0.00     0.105 A 
HETATM   40  N2  UNL     1      16.216  24.408  18.632  1.00  0.00    -0.355 N 
ATOM     41  H2  UNL     1      15.657  24.076  17.846  1.00  0.00     0.166 HD
BRANCH  38  42
HETATM   42  C28 UNL     1      15.674  25.317  22.172  1.00  0.00     0.418 C 
HETATM   43  F1  UNL     1      14.377  25.708  21.886  1.00  0.00    -0.166 F 
HETATM   44  F2  UNL     1      16.291  26.333  22.905  1.00  0.00    -0.166 F 
HETATM   45  F3  UNL     1      15.707  24.183  22.928  1.00  0.00    -0.166 F 
ENDBRANCH  38  42
ENDBRANCH  32  35
ENDBRANCH  30  32
ENDBRANCH  28  30
ENDBRANCH   1  24
TORSDOF 12
ENDMDL
