MODEL 9
REMARK VINA RESULT: -10.063397961      2.870      4.027
REMARK  12 active torsions:
REMARK  status: ('A' for Active; 'I' for Inactive)
REMARK    1  A    between atoms: C2_2  and  C3_3 
REMARK    2  A    between atoms: C3_3  and  C4_4 
REMARK    3  A    between atoms: C4_4  and  C5_5 
REMARK    4  A    between atoms: C6_6  and  C7_7 
REMARK    5  A    between atoms: C14_14  and  O1_15 
REMARK    6  A    between atoms: C15_17  and  C16_18 
REMARK    7  A    between atoms: C16_18  and  C17_19 
REMARK    8  A    between atoms: C16_18  and  C19_21 
REMARK    9  A    between atoms: C23_25  and  N1_26 
REMARK   10  A    between atoms: N1_26  and  S1_28 
REMARK   11  A    between atoms: S1_28  and  C24_31 
REMARK   12  A    between atoms: C27_34  and  C28_35 
ROOT
HETATM    1  C16 UNL     1      10.804  19.337  17.663  1.00  0.00    -0.029 C 
ENDROOT
BRANCH   1   2
HETATM    2  C15 UNL     1      11.991  20.056  17.988  1.00  0.00     0.075 C 
HETATM    3  C14 UNL     1      13.048  19.497  18.533  1.00  0.00     0.063 C 
HETATM    4  C13 UNL     1      14.299  20.204  18.882  1.00  0.00     0.108 C 
HETATM    5  C4  UNL     1      14.638  21.249  17.812  1.00  0.00     0.094 C 
HETATM    6  O5  UNL     1      13.389  22.089  17.905  1.00  0.00    -0.301 OA
HETATM    7  C31 UNL     1      12.191  21.487  17.649  1.00  0.00     0.297 C 
HETATM    8  O4  UNL     1      11.194  22.067  17.131  1.00  0.00    -0.259 OA
BRANCH   3   9
HETATM    9  O1  UNL     1      12.954  18.109  18.794  1.00  0.00    -0.364 OA
ATOM     10  H1  UNL     1      13.409  17.504  18.219  1.00  0.00     0.217 HD
ENDBRANCH   3   9
BRANCH   5  11
HETATM   11  C3  UNL     1      15.665  22.198  18.182  1.00  0.00     0.043 C 
BRANCH  11  12
HETATM   12  C2  UNL     1      15.460  23.553  18.666  1.00  0.00    -0.001 C 
HETATM   13  C1  UNL     1      15.186  23.792  20.115  1.00  0.00     0.005 C 
ENDBRANCH  11  12
ENDBRANCH   5  11
BRANCH   5  14
HETATM   14  C5  UNL     1      14.558  20.717  16.451  1.00  0.00     0.013 C 
HETATM   15  C6  UNL     1      14.771  21.505  15.259  1.00  0.00     0.010 C 
BRANCH  15  16
HETATM   16  C7  UNL     1      15.984  22.155  14.815  1.00  0.00    -0.036 A 
HETATM   17  C8  UNL     1      17.263  21.704  14.984  1.00  0.00     0.011 A 
HETATM   18  C9  UNL     1      18.348  22.439  14.640  1.00  0.00     0.001 A 
HETATM   19  C10 UNL     1      18.227  23.696  14.092  1.00  0.00     0.000 A 
HETATM   20  C11 UNL     1      16.938  24.156  13.919  1.00  0.00     0.001 A 
HETATM   21  C12 UNL     1      15.828  23.442  14.253  1.00  0.00     0.011 A 
ENDBRANCH  15  16
ENDBRANCH   5  14
ENDBRANCH   1   2
BRANCH   1  22
HETATM   22  C17 UNL     1       9.848  18.953  18.714  1.00  0.00     0.036 C 
HETATM   23  C18 UNL     1       9.724  19.805  19.914  1.00  0.00     0.010 C 
ENDBRANCH   1  22
BRANCH   1  24
HETATM   24  C19 UNL     1      10.924  18.281  16.655  1.00  0.00    -0.027 A 
HETATM   25  C20 UNL     1      11.907  18.225  15.691  1.00  0.00     0.012 A 
HETATM   26  C21 UNL     1      11.968  17.235  14.725  1.00  0.00     0.003 A 
HETATM   27  C22 UNL     1      11.013  16.260  14.713  1.00  0.00     0.030 A 
HETATM   28  C23 UNL     1       9.981  16.263  15.671  1.00  0.00     0.043 A 
HETATM   29  C30 UNL     1       9.963  17.254  16.600  1.00  0.00     0.042 A 
BRANCH  28  30
HETATM   30  N1  UNL     1       8.999  15.258  15.523  1.00  0.00    -0.279 N 
ATOM     31  H1  UNL     1       9.271  14.316  15.242  1.00  0.00     0.179 HD
BRANCH  30  32
HETATM   32  S1  UNL     1       7.320  15.629  15.823  1.00  0.00     0.278 S 
HETATM   33  O2  UNL     1       6.464  14.451  15.543  1.00  0.00    -0.199 OA
HETATM   34  O3  UNL     1       6.880  16.789  15.004  1.00  0.00    -0.199 OA
BRANCH  32  35
HETATM   35  C24 UNL     1       7.207  16.027  17.553  1.00  0.00     0.149 A 
HETATM   36  C25 UNL     1       8.105  15.582  18.474  1.00  0.00     0.044 A 
HETATM   37  C26 UNL     1       7.971  15.934  19.802  1.00  0.00     0.020 A 
HETATM   38  C27 UNL     1       6.935  16.735  20.196  1.00  0.00     0.063 A 
HETATM   39  C29 UNL     1       6.018  17.185  19.248  1.00  0.00     0.105 A 
HETATM   40  N2  UNL     1       6.186  16.819  17.980  1.00  0.00    -0.355 N 
ATOM     41  H2  UNL     1       5.512  17.151  17.290  1.00  0.00     0.166 HD
BRANCH  38  42
HETATM   42  C28 UNL     1       6.752  17.157  21.616  1.00  0.00     0.418 C 
HETATM   43  F1  UNL     1       5.391  17.174  21.871  1.00  0.00    -0.166 F 
HETATM   44  F2  UNL     1       7.262  18.434  21.850  1.00  0.00    -0.166 F 
HETATM   45  F3  UNL     1       7.410  16.290  22.437  1.00  0.00    -0.166 F 
ENDBRANCH  38  42
ENDBRANCH  32  35
ENDBRANCH  30  32
ENDBRANCH  28  30
ENDBRANCH   1  24
TORSDOF 12
ENDMDL
