MODEL 3
REMARK VINA RESULT: -10.672940723      6.403     11.665
REMARK  12 active torsions:
REMARK  status: ('A' for Active; 'I' for Inactive)
REMARK    1  A    between atoms: C2_2  and  C3_3 
REMARK    2  A    between atoms: C3_3  and  C4_4 
REMARK    3  A    between atoms: C4_4  and  C5_5 
REMARK    4  A    between atoms: C6_6  and  C7_7 
REMARK    5  A    between atoms: C14_14  and  O1_15 
REMARK    6  A    between atoms: C15_17  and  C16_18 
REMARK    7  A    between atoms: C16_18  and  C17_19 
REMARK    8  A    between atoms: C16_18  and  C19_21 
REMARK    9  A    between atoms: C23_25  and  N1_26 
REMARK   10  A    between atoms: N1_26  and  S1_28 
REMARK   11  A    between atoms: S1_28  and  C24_31 
REMARK   12  A    between atoms: C27_34  and  C28_35 
ROOT
HETATM    1  C16 UNL     1      13.840  21.594  17.561  1.00  0.00    -0.029 C 
ENDROOT
BRANCH   1   2
HETATM    2  C15 UNL     1      13.013  20.433  17.562  1.00  0.00     0.075 C 
HETATM    3  C14 UNL     1      13.421  19.255  17.978  1.00  0.00     0.063 C 
HETATM    4  C13 UNL     1      12.596  18.029  17.999  1.00  0.00     0.108 C 
HETATM    5  C4  UNL     1      11.155  18.361  18.407  1.00  0.00     0.094 C 
HETATM    6  O5  UNL     1      10.820  19.330  17.302  1.00  0.00    -0.301 OA
HETATM    7  C31 UNL     1      11.577  20.461  17.189  1.00  0.00     0.297 C 
HETATM    8  O4  UNL     1      11.144  21.574  16.772  1.00  0.00    -0.259 OA
BRANCH   3   9
HETATM    9  O1  UNL     1      14.757  19.186  18.438  1.00  0.00    -0.364 OA
ATOM     10  H1  UNL     1      15.389  19.813  18.105  1.00  0.00     0.217 HD
ENDBRANCH   3   9
BRANCH   5  11
HETATM   11  C3  UNL     1      10.193  17.305  18.181  1.00  0.00     0.043 C 
BRANCH  11  12
HETATM   12  C2  UNL     1       8.903  17.433  17.524  1.00  0.00    -0.001 C 
HETATM   13  C1  UNL     1       7.769  16.551  17.933  1.00  0.00     0.005 C 
ENDBRANCH  11  12
ENDBRANCH   5  11
BRANCH   5  14
HETATM   14  C5  UNL     1      11.082  19.206  19.599  1.00  0.00     0.013 C 
HETATM   15  C6  UNL     1       9.847  19.600  20.238  1.00  0.00     0.010 C 
BRANCH  15  16
HETATM   16  C7  UNL     1       8.874  18.766  20.905  1.00  0.00    -0.036 A 
HETATM   17  C8  UNL     1       9.122  17.623  21.614  1.00  0.00     0.011 A 
HETATM   18  C9  UNL     1       8.133  16.839  22.105  1.00  0.00     0.001 A 
HETATM   19  C10 UNL     1       6.804  17.148  21.920  1.00  0.00     0.000 A 
HETATM   20  C11 UNL     1       6.547  18.300  21.206  1.00  0.00     0.001 A 
HETATM   21  C12 UNL     1       7.518  19.110  20.700  1.00  0.00     0.011 A 
ENDBRANCH  15  16
ENDBRANCH   5  14
ENDBRANCH   1   2
BRANCH   1  22
HETATM   22  C17 UNL     1      15.031  21.667  16.699  1.00  0.00     0.036 C 
HETATM   23  C18 UNL     1      14.858  21.988  15.268  1.00  0.00     0.010 C 
ENDBRANCH   1  22
BRANCH   1  24
HETATM   24  C19 UNL     1      14.095  22.227  18.857  1.00  0.00    -0.027 A 
HETATM   25  C20 UNL     1      13.682  21.721  20.071  1.00  0.00     0.012 A 
HETATM   26  C21 UNL     1      13.902  22.366  21.276  1.00  0.00     0.003 A 
HETATM   27  C22 UNL     1      14.558  23.564  21.279  1.00  0.00     0.030 A 
HETATM   28  C23 UNL     1      15.002  24.133  20.070  1.00  0.00     0.043 A 
HETATM   29  C30 UNL     1      14.764  23.464  18.912  1.00  0.00     0.042 A 
BRANCH  28  30
HETATM   30  N1  UNL     1      15.597  25.411  20.173  1.00  0.00    -0.279 N 
ATOM     31  H1  UNL     1      15.014  26.236  20.313  1.00  0.00     0.179 HD
BRANCH  30  32
HETATM   32  S1  UNL     1      17.331  25.577  20.059  1.00  0.00     0.278 S 
HETATM   33  O2  UNL     1      18.009  24.651  20.998  1.00  0.00    -0.199 OA
HETATM   34  O3  UNL     1      17.747  26.977  20.329  1.00  0.00    -0.199 OA
BRANCH  32  35
HETATM   35  C24 UNL     1      17.759  25.124  18.393  1.00  0.00     0.149 A 
HETATM   36  C25 UNL     1      17.890  23.831  17.988  1.00  0.00     0.044 A 
HETATM   37  C26 UNL     1      18.213  23.542  16.678  1.00  0.00     0.020 A 
HETATM   38  C27 UNL     1      18.401  24.557  15.780  1.00  0.00     0.063 A 
HETATM   39  C29 UNL     1      18.267  25.878  16.202  1.00  0.00     0.105 A 
HETATM   40  N2  UNL     1      17.956  26.109  17.474  1.00  0.00    -0.355 N 
ATOM     41  H2  UNL     1      17.861  27.078  17.778  1.00  0.00     0.166 HD
BRANCH  38  42
HETATM   42  C28 UNL     1      18.738  24.299  14.348  1.00  0.00     0.418 C 
HETATM   43  F1  UNL     1      19.345  25.441  13.854  1.00  0.00    -0.166 F 
HETATM   44  F2  UNL     1      17.600  24.037  13.584  1.00  0.00    -0.166 F 
HETATM   45  F3  UNL     1      19.555  23.211  14.261  1.00  0.00    -0.166 F 
ENDBRANCH  38  42
ENDBRANCH  32  35
ENDBRANCH  30  32
ENDBRANCH  28  30
ENDBRANCH   1  24
TORSDOF 12
ENDMDL
