MODEL 6
REMARK VINA RESULT: -9.977681609      1.054      1.481
REMARK  8 active torsions:
REMARK  status: ('A' for Active; 'I' for Inactive)
REMARK    1  A    between atoms: C3_3  and  O1_4 
REMARK    2  A    between atoms: C6_8  and  C7_9 
REMARK    3  A    between atoms: C15_17  and  C17_19 
REMARK    4  A    between atoms: C17_19  and  C18_20 
REMARK    5  A    between atoms: C18_20  and  C19_21 
REMARK    6  A    between atoms: C19_21  and  C20_22 
REMARK    7  A    between atoms: C20_22  and  O2_25 
REMARK    8  A    between atoms: C27_31  and  O3_32 
ROOT
HETATM    1  C7  UNL     1      61.014   4.653  -2.956  1.00  0.00     0.003 C 
HETATM    2  C8  UNL     1      60.588   4.145  -4.077  1.00  0.00    -0.075 C 
HETATM    3  C9  UNL     1      59.636   4.901  -4.917  1.00  0.00     0.034 C 
HETATM    4  C10 UNL     1      60.357   5.206  -6.211  1.00  0.00     0.005 C 
HETATM    5  C11 UNL     1      60.813   3.923  -6.925  1.00  0.00     0.015 C 
HETATM    6  C12 UNL     1      61.552   3.088  -6.028  1.00  0.00    -0.013 C 
HETATM    7  C13 UNL     1      62.899   3.796  -5.761  1.00  0.00     0.021 C 
HETATM    8  C14 UNL     1      61.935   1.708  -6.346  1.00  0.00    -0.069 C 
HETATM    9  C15 UNL     1      61.695   0.994  -7.407  1.00  0.00    -0.081 C 
HETATM   10  C16 UNL     1      60.933   1.486  -8.563  1.00  0.00     0.043 C 
HETATM   11  C23 UNL     1      62.683   1.280  -5.125  1.00  0.00     0.036 C 
HETATM   12  C24 UNL     1      61.964   2.038  -3.991  1.00  0.00     0.014 C 
HETATM   13  C25 UNL     1      60.955   2.852  -4.642  1.00  0.00     0.027 C 
ENDROOT
BRANCH   1  14
HETATM   14  C6  UNL     1      60.674   5.919  -2.379  1.00  0.00     0.003 C 
HETATM   15  C5  UNL     1      60.788   6.273  -1.125  1.00  0.00    -0.074 C 
HETATM   16  C4  UNL     1      61.302   5.376  -0.096  1.00  0.00     0.070 C 
HETATM   17  C26 UNL     1      60.379   7.652  -0.686  1.00  0.00     0.070 C 
HETATM   18  C3  UNL     1      60.194   5.187   0.941  1.00  0.00     0.152 C 
HETATM   19  C2  UNL     1      59.842   6.541   1.452  1.00  0.00    -0.032 C 
HETATM   20  C1  UNL     1      59.076   6.630   2.530  1.00  0.00     0.019 C 
HETATM   21  C27 UNL     1      60.318   7.769   0.799  1.00  0.00     0.152 C 
BRANCH  18  22
HETATM   22  O1  UNL     1      60.617   4.401   2.000  1.00  0.00    -0.391 OA
ATOM     23  H1  UNL     1      60.541   3.487   1.756  1.00  0.00     0.210 HD
ENDBRANCH  18  22
BRANCH  21  24
HETATM   24  O3  UNL     1      59.393   8.791   1.093  1.00  0.00    -0.391 OA
ATOM     25  H3  UNL     1      59.400   8.921   2.035  1.00  0.00     0.210 HD
ENDBRANCH  21  24
ENDBRANCH   1  14
BRANCH   9  26
HETATM   26  C17 UNL     1      62.259  -0.415  -7.433  1.00  0.00     0.034 C 
BRANCH  26  27
HETATM   27  C18 UNL     1      63.737  -0.404  -7.308  1.00  0.00     0.007 C 
BRANCH  27  28
HETATM   28  C19 UNL     1      64.184  -1.193  -6.119  1.00  0.00     0.037 C 
BRANCH  28  29
HETATM   29  C20 UNL     1      65.617  -1.566  -6.058  1.00  0.00     0.051 C 
HETATM   30  C21 UNL     1      66.541  -0.383  -6.331  1.00  0.00     0.045 C 
HETATM   31  C22 UNL     1      66.096  -2.345  -4.901  1.00  0.00     0.045 C 
BRANCH  29  32
HETATM   32  O2  UNL     1      65.836  -2.405  -7.209  1.00  0.00    -0.391 OA
ATOM     33  H2  UNL     1      66.230  -3.198  -6.867  1.00  0.00     0.210 HD
ENDBRANCH  29  32
ENDBRANCH  28  29
ENDBRANCH  27  28
ENDBRANCH  26  27
ENDBRANCH   9  26
TORSDOF 8
ENDMDL
