MODEL 2
REMARK VINA RESULT: -10.662065837      0.991      2.011
REMARK  8 active torsions:
REMARK  status: ('A' for Active; 'I' for Inactive)
REMARK    1  A    between atoms: C3_3  and  O1_4 
REMARK    2  A    between atoms: C6_8  and  C7_9 
REMARK    3  A    between atoms: C15_17  and  C17_19 
REMARK    4  A    between atoms: C17_19  and  C18_20 
REMARK    5  A    between atoms: C18_20  and  C19_21 
REMARK    6  A    between atoms: C19_21  and  C20_22 
REMARK    7  A    between atoms: C20_22  and  O2_25 
REMARK    8  A    between atoms: C27_31  and  O3_32 
ROOT
HETATM    1  C7  UNL     1      60.093   5.316  -3.634  1.00  0.00     0.003 C 
HETATM    2  C8  UNL     1      60.751   5.198  -4.752  1.00  0.00    -0.075 C 
HETATM    3  C9  UNL     1      61.448   6.368  -5.326  1.00  0.00     0.034 C 
HETATM    4  C10 UNL     1      62.924   6.038  -5.306  1.00  0.00     0.005 C 
HETATM    5  C11 UNL     1      63.235   4.768  -6.115  1.00  0.00     0.015 C 
HETATM    6  C12 UNL     1      62.391   3.691  -5.697  1.00  0.00    -0.013 C 
HETATM    7  C13 UNL     1      62.851   3.282  -4.279  1.00  0.00     0.021 C 
HETATM    8  C14 UNL     1      62.298   2.416  -6.418  1.00  0.00    -0.069 C 
HETATM    9  C15 UNL     1      62.890   2.024  -7.508  1.00  0.00    -0.081 C 
HETATM   10  C16 UNL     1      63.830   2.860  -8.268  1.00  0.00     0.043 C 
HETATM   11  C23 UNL     1      61.319   1.640  -5.597  1.00  0.00     0.036 C 
HETATM   12  C24 UNL     1      60.366   2.729  -5.065  1.00  0.00     0.014 C 
HETATM   13  C25 UNL     1      60.900   3.988  -5.551  1.00  0.00     0.027 C 
ENDROOT
BRANCH   1  14
HETATM   14  C6  UNL     1      59.933   6.488  -2.827  1.00  0.00     0.003 C 
HETATM   15  C5  UNL     1      60.340   6.662  -1.595  1.00  0.00    -0.074 C 
HETATM   16  C4  UNL     1      61.046   5.629  -0.845  1.00  0.00     0.070 C 
HETATM   17  C26 UNL     1      60.085   7.965  -0.890  1.00  0.00     0.070 C 
HETATM   18  C3  UNL     1      60.196   5.294   0.382  1.00  0.00     0.152 C 
HETATM   19  C2  UNL     1      60.012   6.564   1.141  1.00  0.00    -0.032 C 
HETATM   20  C1  UNL     1      59.515   6.499   2.368  1.00  0.00     0.019 C 
HETATM   21  C27 UNL     1      60.366   7.871   0.572  1.00  0.00     0.152 C 
BRANCH  18  22
HETATM   22  O1  UNL     1      60.825   4.368   1.198  1.00  0.00    -0.391 OA
ATOM     23  H1  UNL     1      60.348   3.548   1.158  1.00  0.00     0.210 HD
ENDBRANCH  18  22
BRANCH  21  24
HETATM   24  O3  UNL     1      59.565   8.841   1.207  1.00  0.00    -0.391 OA
ATOM     25  H3  UNL     1      59.652   8.713   2.145  1.00  0.00     0.210 HD
ENDBRANCH  21  24
ENDBRANCH   1  14
BRANCH   9  26
HETATM   26  C17 UNL     1      62.590   0.617  -7.989  1.00  0.00     0.034 C 
BRANCH  26  27
HETATM   27  C18 UNL     1      63.163  -0.399  -7.070  1.00  0.00     0.007 C 
BRANCH  27  28
HETATM   28  C19 UNL     1      64.612  -0.137  -6.811  1.00  0.00     0.037 C 
BRANCH  28  29
HETATM   29  C20 UNL     1      65.384  -1.217  -6.153  1.00  0.00     0.051 C 
HETATM   30  C21 UNL     1      66.842  -0.834  -5.920  1.00  0.00     0.045 C 
HETATM   31  C22 UNL     1      64.817  -1.861  -4.953  1.00  0.00     0.045 C 
BRANCH  29  32
HETATM   32  O2  UNL     1      65.490  -2.260  -7.141  1.00  0.00    -0.391 OA
ATOM     33  H2  UNL     1      66.394  -2.239  -7.429  1.00  0.00     0.210 HD
ENDBRANCH  29  32
ENDBRANCH  28  29
ENDBRANCH  27  28
ENDBRANCH  26  27
ENDBRANCH   9  26
TORSDOF 8
ENDMDL
