MODEL 11
REMARK VINA RESULT: -8.918348971      1.554      9.214
REMARK  8 active torsions:
REMARK  status: ('A' for Active; 'I' for Inactive)
REMARK    1  A    between atoms: C3_3  and  O1_4 
REMARK    2  A    between atoms: C6_8  and  C7_9 
REMARK    3  A    between atoms: C15_17  and  C17_19 
REMARK    4  A    between atoms: C17_19  and  C18_20 
REMARK    5  A    between atoms: C18_20  and  C19_21 
REMARK    6  A    between atoms: C19_21  and  C20_22 
REMARK    7  A    between atoms: C20_22  and  O2_25 
REMARK    8  A    between atoms: C27_31  and  O3_32 
ROOT
HETATM    1  C7  UNL     1      63.390   1.850  -6.404  1.00  0.00     0.003 C 
HETATM    2  C8  UNL     1      62.303   2.411  -5.956  1.00  0.00    -0.075 C 
HETATM    3  C9  UNL     1      61.089   1.599  -5.734  1.00  0.00     0.034 C 
HETATM    4  C10 UNL     1      60.814   1.640  -4.247  1.00  0.00     0.005 C 
HETATM    5  C11 UNL     1      60.606   3.078  -3.746  1.00  0.00     0.015 C 
HETATM    6  C12 UNL     1      61.691   3.913  -4.161  1.00  0.00    -0.013 C 
HETATM    7  C13 UNL     1      62.932   3.474  -3.352  1.00  0.00     0.021 C 
HETATM    8  C14 UNL     1      61.679   5.374  -4.022  1.00  0.00    -0.069 C 
HETATM    9  C15 UNL     1      60.759   6.165  -3.554  1.00  0.00    -0.081 C 
HETATM   10  C16 UNL     1      59.464   5.692  -3.044  1.00  0.00     0.043 C 
HETATM   11  C23 UNL     1      63.010   5.772  -4.575  1.00  0.00     0.036 C 
HETATM   12  C24 UNL     1      63.256   4.726  -5.681  1.00  0.00     0.014 C 
HETATM   13  C25 UNL     1      62.125   3.819  -5.622  1.00  0.00     0.027 C 
ENDROOT
BRANCH   1  14
HETATM   14  C6  UNL     1      63.596   0.472  -6.736  1.00  0.00     0.003 C 
HETATM   15  C5  UNL     1      64.648  -0.258  -6.469  1.00  0.00    -0.074 C 
HETATM   16  C4  UNL     1      65.811   0.265  -5.760  1.00  0.00     0.070 C 
HETATM   17  C26 UNL     1      64.700  -1.699  -6.895  1.00  0.00     0.070 C 
HETATM   18  C3  UNL     1      67.013   0.137  -6.697  1.00  0.00     0.152 C 
HETATM   19  C2  UNL     1      67.131  -1.304  -7.056  1.00  0.00    -0.032 C 
HETATM   20  C1  UNL     1      68.234  -1.714  -7.666  1.00  0.00     0.019 C 
HETATM   21  C27 UNL     1      66.069  -2.273  -6.753  1.00  0.00     0.152 C 
BRANCH  18  22
HETATM   22  O1  UNL     1      68.183   0.546  -6.081  1.00  0.00    -0.391 OA
ATOM     23  H1  UNL     1      68.092   0.439  -5.142  1.00  0.00     0.210 HD
ENDBRANCH  18  22
BRANCH  21  24
HETATM   24  O3  UNL     1      66.173  -3.323  -7.689  1.00  0.00    -0.391 OA
ATOM     25  H3  UNL     1      65.659  -4.051  -7.359  1.00  0.00     0.210 HD
ENDBRANCH  21  24
ENDBRANCH   1  14
BRANCH   9  26
HETATM   26  C17 UNL     1      61.071   7.649  -3.529  1.00  0.00     0.034 C 
BRANCH  26  27
HETATM   27  C18 UNL     1      60.612   8.273  -2.263  1.00  0.00     0.007 C 
BRANCH  27  28
HETATM   28  C19 UNL     1      61.481   7.871  -1.115  1.00  0.00     0.037 C 
BRANCH  28  29
HETATM   29  C20 UNL     1      60.798   7.398   0.113  1.00  0.00     0.051 C 
HETATM   30  C21 UNL     1      60.794   5.876   0.228  1.00  0.00     0.045 C 
HETATM   31  C22 UNL     1      61.155   8.018   1.403  1.00  0.00     0.045 C 
BRANCH  29  32
HETATM   32  O2  UNL     1      59.405   7.699  -0.092  1.00  0.00    -0.391 OA
ATOM     33  H2  UNL     1      58.938   7.137   0.514  1.00  0.00     0.210 HD
ENDBRANCH  29  32
ENDBRANCH  28  29
ENDBRANCH  27  28
ENDBRANCH  26  27
ENDBRANCH   9  26
TORSDOF 8
ENDMDL
