MODEL 7
REMARK VINA RESULT: -9.431525697      1.707      9.299
REMARK  8 active torsions:
REMARK  status: ('A' for Active; 'I' for Inactive)
REMARK    1  A    between atoms: C3_3  and  O1_4 
REMARK    2  A    between atoms: C6_8  and  C7_9 
REMARK    3  A    between atoms: C15_17  and  C17_19 
REMARK    4  A    between atoms: C17_19  and  C18_20 
REMARK    5  A    between atoms: C18_20  and  C19_21 
REMARK    6  A    between atoms: C19_21  and  C20_22 
REMARK    7  A    between atoms: C20_22  and  O2_25 
REMARK    8  A    between atoms: C27_31  and  O3_32 
ROOT
HETATM    1  C7  UNL     1      63.515   0.584  -6.035  1.00  0.00     0.003 C 
HETATM    2  C8  UNL     1      63.584   1.885  -6.028  1.00  0.00    -0.075 C 
HETATM    3  C9  UNL     1      64.528   2.580  -6.928  1.00  0.00     0.034 C 
HETATM    4  C10 UNL     1      63.686   3.389  -7.889  1.00  0.00     0.005 C 
HETATM    5  C11 UNL     1      62.793   4.400  -7.151  1.00  0.00     0.015 C 
HETATM    6  C12 UNL     1      62.041   3.745  -6.125  1.00  0.00    -0.013 C 
HETATM    7  C13 UNL     1      60.993   2.856  -6.832  1.00  0.00     0.021 C 
HETATM    8  C14 UNL     1      61.263   4.469  -5.113  1.00  0.00    -0.069 C 
HETATM    9  C15 UNL     1      61.113   5.748  -4.926  1.00  0.00    -0.081 C 
HETATM   10  C16 UNL     1      61.752   6.772  -5.765  1.00  0.00     0.043 C 
HETATM   11  C23 UNL     1      60.666   3.366  -4.299  1.00  0.00     0.036 C 
HETATM   12  C24 UNL     1      61.750   2.271  -4.346  1.00  0.00     0.014 C 
HETATM   13  C25 UNL     1      62.799   2.794  -5.202  1.00  0.00     0.027 C 
ENDROOT
BRANCH   1  14
HETATM   14  C6  UNL     1      64.269  -0.332  -6.837  1.00  0.00     0.003 C 
HETATM   15  C5  UNL     1      65.206  -1.151  -6.433  1.00  0.00    -0.074 C 
HETATM   16  C4  UNL     1      65.628  -1.242  -5.040  1.00  0.00     0.070 C 
HETATM   17  C26 UNL     1      65.903  -2.050  -7.417  1.00  0.00     0.070 C 
HETATM   18  C3  UNL     1      67.111  -0.870  -4.986  1.00  0.00     0.152 C 
HETATM   19  C2  UNL     1      67.827  -1.814  -5.889  1.00  0.00    -0.032 C 
HETATM   20  C1  UNL     1      69.150  -1.857  -5.836  1.00  0.00     0.019 C 
HETATM   21  C27 UNL     1      67.112  -2.692  -6.826  1.00  0.00     0.152 C 
BRANCH  18  22
HETATM   22  O1  UNL     1      67.620  -0.997  -3.705  1.00  0.00    -0.391 OA
ATOM     23  H1  UNL     1      67.417  -1.865  -3.377  1.00  0.00     0.210 HD
ENDBRANCH  18  22
BRANCH  21  24
HETATM   24  O3  UNL     1      67.988  -2.978  -7.892  1.00  0.00    -0.391 OA
ATOM     25  H3  UNL     1      68.846  -2.643  -7.655  1.00  0.00     0.210 HD
ENDBRANCH  21  24
ENDBRANCH   1  14
BRANCH   9  26
HETATM   26  C17 UNL     1      60.211   6.179  -3.785  1.00  0.00     0.034 C 
BRANCH  26  27
HETATM   27  C18 UNL     1      60.934   7.053  -2.829  1.00  0.00     0.007 C 
BRANCH  27  28
HETATM   28  C19 UNL     1      60.059   7.438  -1.680  1.00  0.00     0.037 C 
BRANCH  28  29
HETATM   29  C20 UNL     1      60.537   7.082  -0.322  1.00  0.00     0.051 C 
HETATM   30  C21 UNL     1      59.565   7.517   0.770  1.00  0.00     0.045 C 
HETATM   31  C22 UNL     1      61.015   5.708  -0.078  1.00  0.00     0.045 C 
BRANCH  29  32
HETATM   32  O2  UNL     1      61.673   7.937  -0.087  1.00  0.00    -0.391 OA
ATOM     33  H2  UNL     1      62.328   7.656  -0.713  1.00  0.00     0.210 HD
ENDBRANCH  29  32
ENDBRANCH  28  29
ENDBRANCH  27  28
ENDBRANCH  26  27
ENDBRANCH   9  26
TORSDOF 8
ENDMDL
