MODEL 5
REMARK VINA RESULT: -10.039168377      1.696      9.062
REMARK  8 active torsions:
REMARK  status: ('A' for Active; 'I' for Inactive)
REMARK    1  A    between atoms: C3_3  and  O1_4 
REMARK    2  A    between atoms: C6_8  and  C7_9 
REMARK    3  A    between atoms: C15_17  and  C17_19 
REMARK    4  A    between atoms: C17_19  and  C18_20 
REMARK    5  A    between atoms: C18_20  and  C19_21 
REMARK    6  A    between atoms: C19_21  and  C20_22 
REMARK    7  A    between atoms: C20_22  and  O2_25 
REMARK    8  A    between atoms: C27_31  and  O3_32 
ROOT
HETATM    1  C7  UNL     1      65.427   2.321  -6.031  1.00  0.00     0.003 C 
HETATM    2  C8  UNL     1      64.337   2.881  -6.473  1.00  0.00    -0.075 C 
HETATM    3  C9  UNL     1      63.861   2.593  -7.842  1.00  0.00     0.034 C 
HETATM    4  C10 UNL     1      62.531   1.888  -7.691  1.00  0.00     0.005 C 
HETATM    5  C11 UNL     1      61.512   2.752  -6.930  1.00  0.00     0.015 C 
HETATM    6  C12 UNL     1      62.071   3.212  -5.696  1.00  0.00    -0.013 C 
HETATM    7  C13 UNL     1      62.194   1.981  -4.771  1.00  0.00     0.021 C 
HETATM    8  C14 UNL     1      61.428   4.225  -4.851  1.00  0.00    -0.069 C 
HETATM    9  C15 UNL     1      60.320   4.884  -5.027  1.00  0.00    -0.081 C 
HETATM   10  C16 UNL     1      59.452   4.716  -6.201  1.00  0.00     0.043 C 
HETATM   11  C23 UNL     1      62.374   4.348  -3.700  1.00  0.00     0.036 C 
HETATM   12  C24 UNL     1      63.750   4.102  -4.350  1.00  0.00     0.014 C 
HETATM   13  C25 UNL     1      63.477   3.805  -5.744  1.00  0.00     0.027 C 
ENDROOT
BRANCH   1  14
HETATM   14  C6  UNL     1      66.289   1.408  -6.721  1.00  0.00     0.003 C 
HETATM   15  C5  UNL     1      66.150   0.110  -6.820  1.00  0.00    -0.074 C 
HETATM   16  C4  UNL     1      65.041  -0.613  -6.208  1.00  0.00     0.070 C 
HETATM   17  C26 UNL     1      67.156  -0.704  -7.586  1.00  0.00     0.070 C 
HETATM   18  C3  UNL     1      65.639  -1.607  -5.210  1.00  0.00     0.152 C 
HETATM   19  C2  UNL     1      66.572  -2.481  -5.976  1.00  0.00    -0.032 C 
HETATM   20  C1  UNL     1      67.036  -3.575  -5.390  1.00  0.00     0.019 C 
HETATM   21  C27 UNL     1      66.985  -2.166  -7.350  1.00  0.00     0.152 C 
BRANCH  18  22
HETATM   22  O1  UNL     1      64.660  -2.393  -4.628  1.00  0.00    -0.391 OA
ATOM     23  H1  UNL     1      64.447  -2.040  -3.773  1.00  0.00     0.210 HD
ENDBRANCH  18  22
BRANCH  21  24
HETATM   24  O3  UNL     1      68.243  -2.766  -7.563  1.00  0.00    -0.391 OA
ATOM     25  H3  UNL     1      68.754  -2.174  -8.103  1.00  0.00     0.210 HD
ENDBRANCH  21  24
ENDBRANCH   1  14
BRANCH   9  26
HETATM   26  C17 UNL     1      59.917   5.861  -3.938  1.00  0.00     0.034 C 
BRANCH  26  27
HETATM   27  C18 UNL     1      61.061   6.714  -3.531  1.00  0.00     0.007 C 
BRANCH  27  28
HETATM   28  C19 UNL     1      60.629   7.778  -2.574  1.00  0.00     0.037 C 
BRANCH  28  29
HETATM   29  C20 UNL     1      60.726   7.462  -1.129  1.00  0.00     0.051 C 
HETATM   30  C21 UNL     1      60.834   5.963  -0.865  1.00  0.00     0.045 C 
HETATM   31  C22 UNL     1      61.697   8.208  -0.306  1.00  0.00     0.045 C 
BRANCH  29  32
HETATM   32  O2  UNL     1      59.430   7.782  -0.586  1.00  0.00    -0.391 OA
ATOM     33  H2  UNL     1      59.591   8.009   0.322  1.00  0.00     0.210 HD
ENDBRANCH  29  32
ENDBRANCH  28  29
ENDBRANCH  27  28
ENDBRANCH  26  27
ENDBRANCH   9  26
TORSDOF 8
ENDMDL
