MODEL 3
REMARK VINA RESULT: -10.498013169      1.045      1.413
REMARK  8 active torsions:
REMARK  status: ('A' for Active; 'I' for Inactive)
REMARK    1  A    between atoms: C3_3  and  O1_4 
REMARK    2  A    between atoms: C6_8  and  C7_9 
REMARK    3  A    between atoms: C15_17  and  C17_19 
REMARK    4  A    between atoms: C17_19  and  C18_20 
REMARK    5  A    between atoms: C18_20  and  C19_21 
REMARK    6  A    between atoms: C19_21  and  C20_22 
REMARK    7  A    between atoms: C20_22  and  O2_25 
REMARK    8  A    between atoms: C27_31  and  O3_32 
ROOT
HETATM    1  C7  UNL     1      61.568   5.544  -3.308  1.00  0.00     0.003 C 
HETATM    2  C8  UNL     1      61.307   4.548  -4.107  1.00  0.00    -0.075 C 
HETATM    3  C9  UNL     1      59.910   4.254  -4.488  1.00  0.00     0.034 C 
HETATM    4  C10 UNL     1      59.818   4.482  -5.980  1.00  0.00     0.005 C 
HETATM    5  C11 UNL     1      60.795   3.583  -6.755  1.00  0.00     0.015 C 
HETATM    6  C12 UNL     1      62.118   3.712  -6.226  1.00  0.00    -0.013 C 
HETATM    7  C13 UNL     1      62.619   5.124  -6.606  1.00  0.00     0.021 C 
HETATM    8  C14 UNL     1      63.226   2.830  -6.610  1.00  0.00    -0.069 C 
HETATM    9  C15 UNL     1      63.248   1.816  -7.424  1.00  0.00    -0.081 C 
HETATM   10  C16 UNL     1      62.068   1.338  -8.159  1.00  0.00     0.043 C 
HETATM   11  C23 UNL     1      64.371   3.368  -5.813  1.00  0.00     0.036 C 
HETATM   12  C24 UNL     1      63.695   3.864  -4.519  1.00  0.00     0.014 C 
HETATM   13  C25 UNL     1      62.274   3.639  -4.709  1.00  0.00     0.027 C 
ENDROOT
BRANCH   1  14
HETATM   14  C6  UNL     1      60.641   6.455  -2.705  1.00  0.00     0.003 C 
HETATM   15  C5  UNL     1      60.588   6.814  -1.448  1.00  0.00    -0.074 C 
HETATM   16  C4  UNL     1      61.516   6.306  -0.444  1.00  0.00     0.070 C 
HETATM   17  C26 UNL     1      59.541   7.786  -0.981  1.00  0.00     0.070 C 
HETATM   18  C3  UNL     1      60.689   5.572   0.612  1.00  0.00     0.152 C 
HETATM   19  C2  UNL     1      59.704   6.552   1.150  1.00  0.00    -0.032 C 
HETATM   20  C1  UNL     1      59.030   6.232   2.245  1.00  0.00     0.019 C 
HETATM   21  C27 UNL     1      59.466   7.851   0.507  1.00  0.00     0.152 C 
BRANCH  18  22
HETATM   22  O1  UNL     1      61.483   5.113   1.651  1.00  0.00    -0.391 OA
ATOM     23  H1  UNL     1      61.990   4.371   1.347  1.00  0.00     0.210 HD
ENDBRANCH  18  22
BRANCH  21  24
HETATM   24  O3  UNL     1      58.155   8.252   0.835  1.00  0.00    -0.391 OA
ATOM     25  H3  UNL     1      57.988   7.980   1.730  1.00  0.00     0.210 HD
ENDBRANCH  21  24
ENDBRANCH   1  14
BRANCH   9  26
HETATM   26  C17 UNL     1      64.580   1.117  -7.621  1.00  0.00     0.034 C 
BRANCH  26  27
HETATM   27  C18 UNL     1      64.687  -0.087  -6.760  1.00  0.00     0.007 C 
BRANCH  27  28
HETATM   28  C19 UNL     1      66.116  -0.426  -6.481  1.00  0.00     0.037 C 
BRANCH  28  29
HETATM   29  C20 UNL     1      66.466  -1.865  -6.413  1.00  0.00     0.051 C 
HETATM   30  C21 UNL     1      67.777  -2.181  -7.124  1.00  0.00     0.045 C 
HETATM   31  C22 UNL     1      66.405  -2.546  -5.105  1.00  0.00     0.045 C 
BRANCH  29  32
HETATM   32  O2  UNL     1      65.492  -2.528  -7.242  1.00  0.00    -0.391 OA
ATOM     33  H2  UNL     1      65.005  -3.091  -6.652  1.00  0.00     0.210 HD
ENDBRANCH  29  32
ENDBRANCH  28  29
ENDBRANCH  27  28
ENDBRANCH  26  27
ENDBRANCH   9  26
TORSDOF 8
ENDMDL
