MODEL 4
REMARK VINA RESULT: -10.234429591      1.258      2.261
REMARK  8 active torsions:
REMARK  status: ('A' for Active; 'I' for Inactive)
REMARK    1  A    between atoms: C3_3  and  O1_4 
REMARK    2  A    between atoms: C6_8  and  C7_9 
REMARK    3  A    between atoms: C15_17  and  C17_19 
REMARK    4  A    between atoms: C17_19  and  C18_20 
REMARK    5  A    between atoms: C18_20  and  C19_21 
REMARK    6  A    between atoms: C19_21  and  C20_22 
REMARK    7  A    between atoms: C20_22  and  O2_25 
REMARK    8  A    between atoms: C27_31  and  O3_32 
ROOT
HETATM    1  C7  UNL     1      59.933   5.961  -3.410  1.00  0.00     0.003 C 
HETATM    2  C8  UNL     1      60.605   5.778  -4.511  1.00  0.00    -0.075 C 
HETATM    3  C9  UNL     1      61.671   6.728  -4.893  1.00  0.00     0.034 C 
HETATM    4  C10 UNL     1      62.966   5.947  -4.871  1.00  0.00     0.005 C 
HETATM    5  C11 UNL     1      62.928   4.753  -5.839  1.00  0.00     0.015 C 
HETATM    6  C12 UNL     1      61.763   3.957  -5.603  1.00  0.00    -0.013 C 
HETATM    7  C13 UNL     1      61.967   3.253  -4.242  1.00  0.00     0.021 C 
HETATM    8  C14 UNL     1      61.335   2.875  -6.498  1.00  0.00    -0.069 C 
HETATM    9  C15 UNL     1      61.856   2.452  -7.611  1.00  0.00    -0.081 C 
HETATM   10  C16 UNL     1      63.063   3.033  -8.216  1.00  0.00     0.043 C 
HETATM   11  C23 UNL     1      60.104   2.355  -5.826  1.00  0.00     0.036 C 
HETATM   12  C24 UNL     1      59.499   3.617  -5.178  1.00  0.00     0.014 C 
HETATM   13  C25 UNL     1      60.431   4.691  -5.466  1.00  0.00     0.027 C 
ENDROOT
BRANCH   1  14
HETATM   14  C6  UNL     1      60.085   7.015  -2.452  1.00  0.00     0.003 C 
HETATM   15  C5  UNL     1      60.580   6.923  -1.245  1.00  0.00    -0.074 C 
HETATM   16  C4  UNL     1      61.068   5.666  -0.687  1.00  0.00     0.070 C 
HETATM   17  C26 UNL     1      60.663   8.138  -0.364  1.00  0.00     0.070 C 
HETATM   18  C3  UNL     1      60.225   5.358   0.551  1.00  0.00     0.152 C 
HETATM   19  C2  UNL     1      60.373   6.518   1.475  1.00  0.00    -0.032 C 
HETATM   20  C1  UNL     1      59.934   6.393   2.719  1.00  0.00     0.019 C 
HETATM   21  C27 UNL     1      60.987   7.782   1.047  1.00  0.00     0.152 C 
BRANCH  18  22
HETATM   22  O1  UNL     1      60.666   4.212   1.193  1.00  0.00    -0.391 OA
ATOM     23  H1  UNL     1      61.588   4.307   1.395  1.00  0.00     0.210 HD
ENDBRANCH  18  22
BRANCH  21  24
HETATM   24  O3  UNL     1      60.459   8.806   1.861  1.00  0.00    -0.391 OA
ATOM     25  H3  UNL     1      59.756   9.223   1.375  1.00  0.00     0.210 HD
ENDBRANCH  21  24
ENDBRANCH   1  14
BRANCH   9  26
HETATM   26  C17 UNL     1      61.172   1.282  -8.294  1.00  0.00     0.034 C 
BRANCH  26  27
HETATM   27  C18 UNL     1      61.533  -0.004  -7.646  1.00  0.00     0.007 C 
BRANCH  27  28
HETATM   28  C19 UNL     1      62.982  -0.318  -7.837  1.00  0.00     0.037 C 
BRANCH  28  29
HETATM   29  C20 UNL     1      63.829  -0.355  -6.622  1.00  0.00     0.051 C 
HETATM   30  C21 UNL     1      64.963   0.664  -6.670  1.00  0.00     0.045 C 
HETATM   31  C22 UNL     1      63.171  -0.341  -5.301  1.00  0.00     0.045 C 
BRANCH  29  32
HETATM   32  O2  UNL     1      64.533  -1.610  -6.693  1.00  0.00    -0.391 OA
ATOM     33  H2  UNL     1      63.961  -2.188  -7.181  1.00  0.00     0.210 HD
ENDBRANCH  29  32
ENDBRANCH  28  29
ENDBRANCH  27  28
ENDBRANCH  26  27
ENDBRANCH   9  26
TORSDOF 8
ENDMDL
