MODEL 4
REMARK VINA RESULT: -4.176994227      1.630      3.008
REMARK  3 active torsions:
REMARK  status: ('A' for Active; 'I' for Inactive)
REMARK    1  A    between atoms: N1_1  and  S1_4 
REMARK    2  A    between atoms: S1_4  and  N2_7 
REMARK    3  A    between atoms: N2_7  and  O3_9 
ROOT
HETATM    1  S1  UNL     1      -6.006   1.210  16.891  1.00  0.00     0.335 S 
HETATM    2  O1  UNL     1      -5.684   1.474  18.330  1.00  0.00    -0.181 OA
HETATM    3  O2  UNL     1      -7.253   0.389  16.850  1.00  0.00    -0.181 OA
ENDROOT
BRANCH   1   4
HETATM    4  N1  UNL     1      -6.315   2.690  16.081  1.00  0.00    -0.310 N 
ATOM      5  H12 UNL     1      -6.976   2.796  15.312  1.00  0.00     0.170 HD
ATOM      6  H11 UNL     1      -5.743   3.432  16.485  1.00  0.00     0.170 HD
ENDBRANCH   1   4
BRANCH   1   7
HETATM    7  N2  UNL     1      -4.699   0.363  16.194  1.00  0.00    -0.177 N 
ATOM      8  H2  UNL     1      -4.822  -0.479  15.631  1.00  0.00     0.209 HD
BRANCH   7   9
HETATM    9  O3  UNL     1      -3.500   0.895  16.446  1.00  0.00    -0.279 OA
ATOM     10  H3  UNL     1      -2.774   0.437  16.039  1.00  0.00     0.245 HD
ENDBRANCH   7   9
ENDBRANCH   1   7
TORSDOF 3
ENDMDL
