MODEL 8
REMARK VINA RESULT: -3.766947397      4.264      5.084
REMARK  3 active torsions:
REMARK  status: ('A' for Active; 'I' for Inactive)
REMARK    1  A    between atoms: N1_1  and  S1_4 
REMARK    2  A    between atoms: S1_4  and  N2_7 
REMARK    3  A    between atoms: N2_7  and  O3_9 
ROOT
HETATM    1  S1  UNL     1      -4.440   0.911  10.895  1.00  0.00     0.335 S 
HETATM    2  O1  UNL     1      -5.610   1.782  11.235  1.00  0.00    -0.181 OA
HETATM    3  O2  UNL     1      -4.715   0.283   9.567  1.00  0.00    -0.181 OA
ENDROOT
BRANCH   1   4
HETATM    4  N1  UNL     1      -3.023   1.867  10.750  1.00  0.00    -0.310 N 
ATOM      5  H12 UNL     1      -2.947   2.833  11.069  1.00  0.00     0.170 HD
ATOM      6  H11 UNL     1      -2.284   1.326  10.302  1.00  0.00     0.170 HD
ENDBRANCH   1   4
BRANCH   1   7
HETATM    7  N2  UNL     1      -4.284  -0.278  12.108  1.00  0.00    -0.177 N 
ATOM      8  H2  UNL     1      -4.036  -1.247  11.905  1.00  0.00     0.209 HD
BRANCH   7   9
HETATM    9  O3  UNL     1      -4.513   0.164  13.346  1.00  0.00    -0.279 OA
ATOM     10  H3  UNL     1      -3.878  -0.126  13.991  1.00  0.00     0.245 HD
ENDBRANCH   7   9
ENDBRANCH   1   7
TORSDOF 3
ENDMDL
