MODEL 11
REMARK VINA RESULT: -3.725272506      4.927      5.858
REMARK  3 active torsions:
REMARK  status: ('A' for Active; 'I' for Inactive)
REMARK    1  A    between atoms: N1_1  and  S1_4 
REMARK    2  A    between atoms: S1_4  and  N2_7 
REMARK    3  A    between atoms: N2_7  and  O3_9 
ROOT
HETATM    1  S1  UNL     1      -4.280   1.436  10.998  1.00  0.00     0.335 S 
HETATM    2  O1  UNL     1      -5.707   1.860  11.166  1.00  0.00    -0.181 OA
HETATM    3  O2  UNL     1      -3.625   2.410  10.074  1.00  0.00    -0.181 OA
ENDROOT
BRANCH   1   4
HETATM    4  N1  UNL     1      -3.470   1.507  12.509  1.00  0.00    -0.310 N 
ATOM      5  H12 UNL     1      -3.576   2.266  13.182  1.00  0.00     0.170 HD
ATOM      6  H11 UNL     1      -2.877   0.686  12.622  1.00  0.00     0.170 HD
ENDBRANCH   1   4
BRANCH   1   7
HETATM    7  N2  UNL     1      -4.260  -0.137  10.338  1.00  0.00    -0.177 N 
ATOM      8  H2  UNL     1      -4.947  -0.850  10.586  1.00  0.00     0.209 HD
BRANCH   7   9
HETATM    9  O3  UNL     1      -3.270  -0.357   9.470  1.00  0.00    -0.279 OA
ATOM     10  H3  UNL     1      -3.135   0.343   8.843  1.00  0.00     0.245 HD
ENDBRANCH   7   9
ENDBRANCH   1   7
TORSDOF 3
ENDMDL
