MODEL 9
REMARK VINA RESULT: -3.758400257      4.115      5.297
REMARK  3 active torsions:
REMARK  status: ('A' for Active; 'I' for Inactive)
REMARK    1  A    between atoms: N1_1  and  S1_4 
REMARK    2  A    between atoms: S1_4  and  N2_7 
REMARK    3  A    between atoms: N2_7  and  O3_9 
ROOT
HETATM    1  S1  UNL     1      -4.199   1.108  11.780  1.00  0.00     0.335 S 
HETATM    2  O1  UNL     1      -4.502  -0.082  12.639  1.00  0.00    -0.181 OA
HETATM    3  O2  UNL     1      -5.476   1.538  11.136  1.00  0.00    -0.181 OA
ENDROOT
BRANCH   1   4
HETATM    4  N1  UNL     1      -3.632   2.400  12.755  1.00  0.00    -0.310 N 
ATOM      5  H12 UNL     1      -3.336   2.301  13.726  1.00  0.00     0.170 HD
ATOM      6  H11 UNL     1      -3.636   3.267  12.218  1.00  0.00     0.170 HD
ENDBRANCH   1   4
BRANCH   1   7
HETATM    7  N2  UNL     1      -3.051   0.645  10.606  1.00  0.00    -0.177 N 
ATOM      8  H2  UNL     1      -2.065   0.898  10.667  1.00  0.00     0.209 HD
BRANCH   7   9
HETATM    9  O3  UNL     1      -3.552  -0.076   9.600  1.00  0.00    -0.279 OA
ATOM     10  H3  UNL     1      -2.917  -0.318   8.936  1.00  0.00     0.245 HD
ENDBRANCH   7   9
ENDBRANCH   1   7
TORSDOF 3
ENDMDL
