MODEL 1
REMARK VINA RESULT: -9.976719038      0.000      0.000
REMARK  0 active torsions:
REMARK  status: ('A' for Active; 'I' for Inactive)
ROOT
HETATM    1  C1  UNL     1      64.246  -3.163 -21.630  1.00  0.00     0.024 C 
HETATM    2  C2  UNL     1      64.566  -4.036 -20.452  1.00  0.00     0.021 C 
HETATM    3  C3  UNL     1      64.861  -3.247 -19.223  1.00  0.00     0.018 C 
HETATM    4  C4  UNL     1      66.068  -2.399 -19.462  1.00  0.00     0.007 C 
HETATM    5  C5  UNL     1      67.232  -3.174 -19.962  1.00  0.00    -0.002 C 
HETATM    6  C6  UNL     1      66.934  -4.144 -21.062  1.00  0.00    -0.004 C 
HETATM    7  C7  UNL     1      68.153  -5.011 -21.280  1.00  0.00     0.006 C 
HETATM    8  C8  UNL     1      69.343  -4.563 -20.491  1.00  0.00     0.006 C 
HETATM    9  C9  UNL     1      69.585  -3.084 -20.529  1.00  0.00     0.001 C 
HETATM   10  C10 UNL     1      70.557  -2.788 -19.380  1.00  0.00     0.083 C 
HETATM   11  C11 UNL     1      70.799  -1.339 -19.248  1.00  0.00     0.127 C 
HETATM   12  O1  UNL     1      71.779  -0.941 -18.673  1.00  0.00    -0.298 OA
HETATM   13  C12 UNL     1      69.825  -0.397 -19.832  1.00  0.00     0.079 C 
HETATM   14  C13 UNL     1      68.452  -1.009 -19.650  1.00  0.00     0.017 C 
HETATM   15  C14 UNL     1      68.341  -2.265 -20.454  1.00  0.00    -0.036 C 
HETATM   16  C15 UNL     1      67.978  -1.835 -21.884  1.00  0.00     0.016 C 
HETATM   17  C16 UNL     1      65.748  -4.951 -20.704  1.00  0.00     0.006 C 
HETATM   18  C17 UNL     1      65.223  -5.860 -21.753  1.00  0.00     0.013 C 
HETATM   19  C18 UNL     1      63.797  -6.125 -21.254  1.00  0.00     0.079 C 
HETATM   20  C19 UNL     1      63.495  -5.038 -20.301  1.00  0.00     0.135 C 
HETATM   21  O2  UNL     1      62.566  -4.964 -19.544  1.00  0.00    -0.297 OA
ENDROOT
TORSDOF 0
ENDMDL
