MODEL 7
REMARK VINA RESULT: -9.608955837      2.054      6.656
REMARK  0 active torsions:
REMARK  status: ('A' for Active; 'I' for Inactive)
ROOT
HETATM    1  C1  UNL     1      72.201  -1.848 -22.036  1.00  0.00     0.024 C 
HETATM    2  C2  UNL     1      72.161  -2.928 -20.994  1.00  0.00     0.021 C 
HETATM    3  C3  UNL     1      71.751  -4.245 -21.557  1.00  0.00     0.018 C 
HETATM    4  C4  UNL     1      70.365  -4.134 -22.106  1.00  0.00     0.007 C 
HETATM    5  C5  UNL     1      69.396  -3.580 -21.126  1.00  0.00    -0.002 C 
HETATM    6  C6  UNL     1      69.859  -2.371 -20.376  1.00  0.00    -0.004 C 
HETATM    7  C7  UNL     1      68.874  -2.089 -19.265  1.00  0.00     0.006 C 
HETATM    8  C8  UNL     1      67.655  -2.954 -19.325  1.00  0.00     0.006 C 
HETATM    9  C9  UNL     1      67.064  -3.088 -20.696  1.00  0.00     0.001 C 
HETATM   10  C10 UNL     1      66.110  -4.289 -20.627  1.00  0.00     0.083 C 
HETATM   11  C11 UNL     1      65.535  -4.588 -21.952  1.00  0.00     0.127 C 
HETATM   12  O1  UNL     1      64.520  -5.229 -22.038  1.00  0.00    -0.298 OA
HETATM   13  C12 UNL     1      66.223  -4.088 -23.157  1.00  0.00     0.079 C 
HETATM   14  C13 UNL     1      67.711  -4.165 -22.884  1.00  0.00     0.017 C 
HETATM   15  C14 UNL     1      68.077  -3.222 -21.782  1.00  0.00    -0.036 C 
HETATM   16  C15 UNL     1      68.251  -1.841 -22.431  1.00  0.00     0.016 C 
HETATM   17  C16 UNL     1      71.221  -2.606 -19.850  1.00  0.00     0.006 C 
HETATM   18  C17 UNL     1      71.894  -1.448 -19.209  1.00  0.00     0.013 C 
HETATM   19  C18 UNL     1      73.366  -1.877 -19.250  1.00  0.00     0.079 C 
HETATM   20  C19 UNL     1      73.448  -2.938 -20.274  1.00  0.00     0.135 C 
HETATM   21  O2  UNL     1      74.370  -3.675 -20.495  1.00  0.00    -0.297 OA
ENDROOT
TORSDOF 0
ENDMDL
