MODEL 5
REMARK VINA RESULT: -9.747227363      0.930      1.031
REMARK  0 active torsions:
REMARK  status: ('A' for Active; 'I' for Inactive)
ROOT
HETATM    1  C1  UNL     1      64.820  -4.013 -22.488  1.00  0.00     0.024 C 
HETATM    2  C2  UNL     1      64.955  -4.486 -21.070  1.00  0.00     0.021 C 
HETATM    3  C3  UNL     1      64.756  -3.387 -20.084  1.00  0.00     0.018 C 
HETATM    4  C4  UNL     1      65.812  -2.349 -20.287  1.00  0.00     0.007 C 
HETATM    5  C5  UNL     1      67.187  -2.910 -20.280  1.00  0.00    -0.002 C 
HETATM    6  C6  UNL     1      67.380  -4.150 -21.094  1.00  0.00    -0.004 C 
HETATM    7  C7  UNL     1      68.745  -4.719 -20.786  1.00  0.00     0.006 C 
HETATM    8  C8  UNL     1      69.574  -3.824 -19.918  1.00  0.00     0.006 C 
HETATM    9  C9  UNL     1      69.550  -2.382 -20.323  1.00  0.00     0.001 C 
HETATM   10  C10 UNL     1      70.101  -1.599 -19.123  1.00  0.00     0.083 C 
HETATM   11  C11 UNL     1      70.036  -0.145 -19.361  1.00  0.00     0.127 C 
HETATM   12  O1  UNL     1      70.733   0.602 -18.725  1.00  0.00    -0.298 OA
HETATM   13  C12 UNL     1      69.108   0.369 -20.387  1.00  0.00     0.079 C 
HETATM   14  C13 UNL     1      67.869  -0.500 -20.340  1.00  0.00     0.017 C 
HETATM   15  C14 UNL     1      68.208  -1.896 -20.757  1.00  0.00    -0.036 C 
HETATM   16  C15 UNL     1      68.181  -1.911 -22.293  1.00  0.00     0.016 C 
HETATM   17  C16 UNL     1      66.304  -5.117 -20.787  1.00  0.00     0.006 C 
HETATM   18  C17 UNL     1      66.257  -6.344 -21.622  1.00  0.00     0.013 C 
HETATM   19  C18 UNL     1      64.819  -6.827 -21.390  1.00  0.00     0.079 C 
HETATM   20  C19 UNL     1      64.079  -5.657 -20.876  1.00  0.00     0.135 C 
HETATM   21  O2  UNL     1      62.981  -5.638 -20.392  1.00  0.00    -0.297 OA
ENDROOT
TORSDOF 0
ENDMDL
