MODEL 14
REMARK VINA RESULT: -9.007290664      1.878      2.188
REMARK  0 active torsions:
REMARK  status: ('A' for Active; 'I' for Inactive)
ROOT
HETATM    1  C1  UNL     1      65.429  -4.241 -23.135  1.00  0.00     0.024 C 
HETATM    2  C2  UNL     1      65.606  -4.061 -21.656  1.00  0.00     0.021 C 
HETATM    3  C3  UNL     1      65.812  -2.634 -21.278  1.00  0.00     0.018 C 
HETATM    4  C4  UNL     1      67.066  -2.133 -21.919  1.00  0.00     0.007 C 
HETATM    5  C5  UNL     1      68.243  -2.995 -21.643  1.00  0.00    -0.002 C 
HETATM    6  C6  UNL     1      68.016  -4.466 -21.803  1.00  0.00    -0.004 C 
HETATM    7  C7  UNL     1      69.217  -5.200 -21.255  1.00  0.00     0.006 C 
HETATM    8  C8  UNL     1      70.343  -4.288 -20.879  1.00  0.00     0.006 C 
HETATM    9  C9  UNL     1      70.641  -3.228 -21.895  1.00  0.00     0.001 C 
HETATM   10  C10 UNL     1      71.511  -2.188 -21.175  1.00  0.00     0.083 C 
HETATM   11  C11 UNL     1      71.791  -1.033 -22.048  1.00  0.00     0.127 C 
HETATM   12  O1  UNL     1      72.726  -0.313 -21.813  1.00  0.00    -0.298 OA
HETATM   13  C12 UNL     1      70.911  -0.783 -23.205  1.00  0.00     0.079 C 
HETATM   14  C13 UNL     1      69.506  -1.157 -22.783  1.00  0.00     0.017 C 
HETATM   15  C14 UNL     1      69.426  -2.626 -22.517  1.00  0.00    -0.036 C 
HETATM   16  C15 UNL     1      69.214  -3.305 -23.879  1.00  0.00     0.016 C 
HETATM   17  C16 UNL     1      66.773  -4.854 -21.102  1.00  0.00     0.006 C 
HETATM   18  C17 UNL     1      66.316  -6.254 -21.289  1.00  0.00     0.013 C 
HETATM   19  C18 UNL     1      64.841  -6.161 -20.879  1.00  0.00     0.079 C 
HETATM   20  C19 UNL     1      64.490  -4.729 -20.961  1.00  0.00     0.135 C 
HETATM   21  O2  UNL     1      63.498  -4.192 -20.550  1.00  0.00    -0.297 OA
ENDROOT
TORSDOF 0
ENDMDL
