MODEL 3
REMARK VINA RESULT: -9.875422088      1.731      6.192
REMARK  0 active torsions:
REMARK  status: ('A' for Active; 'I' for Inactive)
ROOT
HETATM    1  C1  UNL     1      70.102  -3.909 -23.369  1.00  0.00     0.024 C 
HETATM    2  C2  UNL     1      70.308  -3.628 -21.910  1.00  0.00     0.021 C 
HETATM    3  C3  UNL     1      69.884  -4.766 -21.047  1.00  0.00     0.018 C 
HETATM    4  C4  UNL     1      68.420  -5.002 -21.230  1.00  0.00     0.007 C 
HETATM    5  C5  UNL     1      67.606  -3.776 -21.036  1.00  0.00    -0.002 C 
HETATM    6  C6  UNL     1      68.121  -2.547 -21.717  1.00  0.00    -0.004 C 
HETATM    7  C7  UNL     1      67.329  -1.358 -21.224  1.00  0.00     0.006 C 
HETATM    8  C8  UNL     1      66.171  -1.740 -20.357  1.00  0.00     0.006 C 
HETATM    9  C9  UNL     1      65.359  -2.884 -20.885  1.00  0.00     0.001 C 
HETATM   10  C10 UNL     1      64.505  -3.371 -19.708  1.00  0.00     0.083 C 
HETATM   11  C11 UNL     1      63.727  -4.569 -20.075  1.00  0.00     0.127 C 
HETATM   12  O1  UNL     1      62.751  -4.873 -19.438  1.00  0.00    -0.298 OA
HETATM   13  C12 UNL     1      64.163  -5.377 -21.229  1.00  0.00     0.079 C 
HETATM   14  C13 UNL     1      65.678  -5.362 -21.234  1.00  0.00     0.017 C 
HETATM   15  C14 UNL     1      66.174  -3.975 -21.493  1.00  0.00    -0.036 C 
HETATM   16  C15 UNL     1      66.151  -3.782 -23.017  1.00  0.00     0.016 C 
HETATM   17  C16 UNL     1      69.565  -2.394 -21.439  1.00  0.00     0.006 C 
HETATM   18  C17 UNL     1      70.269  -1.308 -22.165  1.00  0.00     0.013 C 
HETATM   19  C18 UNL     1      71.734  -1.744 -22.040  1.00  0.00     0.079 C 
HETATM   20  C19 UNL     1      71.699  -3.182 -21.706  1.00  0.00     0.135 C 
HETATM   21  O2  UNL     1      72.610  -3.873 -21.338  1.00  0.00    -0.297 OA
ENDROOT
TORSDOF 0
ENDMDL
