MODEL 6
REMARK VINA RESULT: -9.628950388      1.503      6.076
REMARK  0 active torsions:
REMARK  status: ('A' for Active; 'I' for Inactive)
ROOT
HETATM    1  C1  UNL     1      69.417  -1.519 -21.484  1.00  0.00     0.024 C 
HETATM    2  C2  UNL     1      68.908  -1.709 -20.085  1.00  0.00     0.021 C 
HETATM    3  C3  UNL     1      69.148  -3.089 -19.577  1.00  0.00     0.018 C 
HETATM    4  C4  UNL     1      68.407  -4.064 -20.433  1.00  0.00     0.007 C 
HETATM    5  C5  UNL     1      66.968  -3.729 -20.582  1.00  0.00    -0.002 C 
HETATM    6  C6  UNL     1      66.669  -2.295 -20.884  1.00  0.00    -0.004 C 
HETATM    7  C7  UNL     1      65.178  -2.079 -20.760  1.00  0.00     0.006 C 
HETATM    8  C8  UNL     1      64.414  -3.349 -20.554  1.00  0.00     0.006 C 
HETATM    9  C9  UNL     1      64.834  -4.471 -21.454  1.00  0.00     0.001 C 
HETATM   10  C10 UNL     1      64.246  -5.747 -20.837  1.00  0.00     0.083 C 
HETATM   11  C11 UNL     1      64.675  -6.945 -21.583  1.00  0.00     0.127 C 
HETATM   12  O1  UNL     1      64.049  -7.969 -21.490  1.00  0.00    -0.298 OA
HETATM   13  C12 UNL     1      65.874  -6.862 -22.438  1.00  0.00     0.079 C 
HETATM   14  C13 UNL     1      66.858  -5.951 -21.734  1.00  0.00     0.017 C 
HETATM   15  C14 UNL     1      66.308  -4.562 -21.664  1.00  0.00    -0.036 C 
HETATM   16  C15 UNL     1      66.629  -3.897 -23.011  1.00  0.00     0.016 C 
HETATM   17  C16 UNL     1      67.424  -1.425 -19.956  1.00  0.00     0.006 C 
HETATM   18  C17 UNL     1      67.362   0.035 -20.216  1.00  0.00     0.013 C 
HETATM   19  C18 UNL     1      68.584   0.545 -19.443  1.00  0.00     0.079 C 
HETATM   20  C19 UNL     1      69.449  -0.634 -19.234  1.00  0.00     0.135 C 
HETATM   21  O2  UNL     1      70.409  -0.722 -18.518  1.00  0.00    -0.297 OA
ENDROOT
TORSDOF 0
ENDMDL
