MODEL 3
REMARK VINA RESULT: -8.621400086      2.609      6.697
REMARK  5 active torsions:
REMARK  status: ('A' for Active; 'I' for Inactive)
REMARK    1  A    between atoms: O1_2  and  C2_3 
REMARK    2  A    between atoms: C6_11  and  N3_12 
REMARK    3  A    between atoms: C13_19  and  S1_20 
REMARK    4  A    between atoms: S1_20  and  N4_23 
REMARK    5  A    between atoms: C23_34  and  O4_35 
ROOT
HETATM    1  N3  UNL     1      12.936  18.736  46.966  1.00  0.00    -0.362 N 
HETATM    2  C7  UNL     1      12.998  17.313  46.807  1.00  0.00     0.129 C 
HETATM    3  C8  UNL     1      13.712  16.938  45.558  1.00  0.00     0.059 C 
HETATM    4  C9  UNL     1      12.948  17.546  44.420  1.00  0.00    -0.047 A 
HETATM    5  C10 UNL     1      12.686  16.797  43.315  1.00  0.00     0.008 A 
HETATM    6  C11 UNL     1      11.977  17.376  42.268  1.00  0.00     0.002 A 
HETATM    7  C12 UNL     1      11.573  18.705  42.411  1.00  0.00     0.026 A 
HETATM    8  C13 UNL     1      11.853  19.436  43.539  1.00  0.00     0.088 A 
HETATM    9  C19 UNL     1      12.547  18.883  44.574  1.00  0.00    -0.011 A 
HETATM   10  C20 UNL     1      12.889  19.606  45.817  1.00  0.00     0.165 C 
ENDROOT
BRANCH   1  11
HETATM   11  C6  UNL     1      12.911  19.283  48.267  1.00  0.00     0.117 A 
HETATM   12  N2  UNL     1      14.013  19.826  48.836  1.00  0.00    -0.338 N 
HETATM   13  C5  UNL     1      13.994  20.369  50.064  1.00  0.00     0.182 A 
ATOM     14  H2  UNL     1      14.888  19.822  48.314  1.00  0.00     0.168 HD
HETATM   15  N1  UNL     1      12.846  20.379  50.756  1.00  0.00    -0.351 N 
HETATM   16  C4  UNL     1      11.712  19.868  50.278  1.00  0.00     0.050 A 
ATOM     17  H1  UNL     1      12.841  20.794  51.687  1.00  0.00     0.166 HD
HETATM   18  C3  UNL     1      10.552  19.894  51.033  1.00  0.00     0.070 A 
HETATM   19  C21 UNL     1      11.746  19.302  48.992  1.00  0.00     0.037 A 
HETATM   20  C2  UNL     1       9.417  19.344  50.491  1.00  0.00     0.103 A 
HETATM   21  C23 UNL     1       9.417  18.782  49.235  1.00  0.00     0.102 A 
HETATM   22  C22 UNL     1      10.589  18.762  48.485  1.00  0.00     0.057 A 
BRANCH  20  23
HETATM   23  O1  UNL     1       8.234  19.350  51.215  1.00  0.00    -0.353 OA
HETATM   24  C1  UNL     1       7.701  20.495  51.845  1.00  0.00     0.210 C 
ENDBRANCH  20  23
BRANCH  21  25
HETATM   25  O4  UNL     1       8.287  18.226  48.673  1.00  0.00    -0.353 OA
HETATM   26  C24 UNL     1       7.293  19.020  48.065  1.00  0.00     0.210 C 
ENDBRANCH  21  25
ENDBRANCH   1  11
BRANCH   8  27
HETATM   27  S1  UNL     1      11.300  21.079  43.652  1.00  0.00     0.265 S 
HETATM   28  O2  UNL     1      12.503  22.014  43.595  1.00  0.00    -0.200 OA
HETATM   29  O3  UNL     1      10.458  21.402  42.453  1.00  0.00    -0.200 OA
BRANCH  27  30
HETATM   30  N4  UNL     1      10.460  21.432  45.084  1.00  0.00    -0.283 N 
HETATM   31  C14 UNL     1      10.674  22.725  45.614  1.00  0.00     0.171 C 
HETATM   32  C15 UNL     1       9.541  23.432  46.239  1.00  0.00     0.293 C 
HETATM   33  N5  UNL     1       8.557  22.558  46.848  1.00  0.00     0.090 N 
HETATM   34  C16 UNL     1       7.422  23.395  47.225  1.00  0.00     0.310 C 
HETATM   35  C17 UNL     1       8.101  21.675  45.798  1.00  0.00     0.317 C 
HETATM   36  C18 UNL     1       9.168  20.877  45.168  1.00  0.00     0.106 C 
ENDBRANCH  27  30
ENDBRANCH   8  27
TORSDOF 5
ENDMDL
