MODEL 1
REMARK VINA RESULT: -9.421600540      0.000      0.000
REMARK  5 active torsions:
REMARK  status: ('A' for Active; 'I' for Inactive)
REMARK    1  A    between atoms: O1_2  and  C2_3 
REMARK    2  A    between atoms: C6_11  and  N3_12 
REMARK    3  A    between atoms: C13_19  and  S1_20 
REMARK    4  A    between atoms: S1_20  and  N4_23 
REMARK    5  A    between atoms: C23_34  and  O4_35 
ROOT
HETATM    1  N3  UNL     1      11.829  19.078  47.223  1.00  0.00    -0.362 N 
HETATM    2  C7  UNL     1      12.995  19.643  47.835  1.00  0.00     0.129 C 
HETATM    3  C8  UNL     1      13.272  19.016  49.154  1.00  0.00     0.059 C 
HETATM    4  C9  UNL     1      12.071  19.264  50.016  1.00  0.00    -0.047 A 
HETATM    5  C10 UNL     1      12.243  19.687  51.298  1.00  0.00     0.008 A 
HETATM    6  C11 UNL     1      11.119  19.914  52.085  1.00  0.00     0.002 A 
HETATM    7  C12 UNL     1       9.866  19.690  51.510  1.00  0.00     0.026 A 
HETATM    8  C13 UNL     1       9.724  19.263  50.213  1.00  0.00     0.088 A 
HETATM    9  C19 UNL     1      10.815  19.037  49.428  1.00  0.00    -0.011 A 
HETATM   10  C20 UNL     1      10.743  18.574  48.027  1.00  0.00     0.165 C 
ENDROOT
BRANCH   1  11
HETATM   11  C6  UNL     1      11.748  19.025  45.814  1.00  0.00     0.117 A 
HETATM   12  N2  UNL     1      11.065  19.952  45.102  1.00  0.00    -0.338 N 
HETATM   13  C5  UNL     1      11.002  19.923  43.761  1.00  0.00     0.182 A 
ATOM     14  H2  UNL     1      10.582  20.698  45.601  1.00  0.00     0.168 HD
HETATM   15  N1  UNL     1      11.635  18.947  43.098  1.00  0.00    -0.351 N 
HETATM   16  C4  UNL     1      12.332  17.991  43.713  1.00  0.00     0.050 A 
ATOM     17  H1  UNL     1      11.582  18.933  42.080  1.00  0.00     0.166 HD
HETATM   18  C3  UNL     1      12.964  16.998  42.987  1.00  0.00     0.070 A 
HETATM   19  C21 UNL     1      12.390  18.033  45.117  1.00  0.00     0.037 A 
HETATM   20  C2  UNL     1      13.659  16.036  43.677  1.00  0.00     0.103 A 
HETATM   21  C23 UNL     1      13.735  16.047  45.051  1.00  0.00     0.102 A 
HETATM   22  C22 UNL     1      13.095  17.052  45.771  1.00  0.00     0.057 A 
BRANCH  20  23
HETATM   23  O1  UNL     1      14.307  15.023  42.986  1.00  0.00    -0.353 OA
HETATM   24  C1  UNL     1      13.640  14.016  42.254  1.00  0.00     0.210 C 
ENDBRANCH  20  23
BRANCH  21  25
HETATM   25  O4  UNL     1      14.428  15.091  45.762  1.00  0.00    -0.353 OA
HETATM   26  C24 UNL     1      15.768  15.286  46.156  1.00  0.00     0.210 C 
ENDBRANCH  21  25
ENDBRANCH   1  11
BRANCH   8  27
HETATM   27  S1  UNL     1       8.131  19.026  49.561  1.00  0.00     0.265 S 
HETATM   28  O2  UNL     1       8.087  17.691  48.826  1.00  0.00    -0.200 OA
HETATM   29  O3  UNL     1       7.145  18.919  50.688  1.00  0.00    -0.200 OA
BRANCH  27  30
HETATM   30  N4  UNL     1       7.648  20.220  48.456  1.00  0.00    -0.283 N 
HETATM   31  C14 UNL     1       8.381  21.427  48.501  1.00  0.00     0.171 C 
HETATM   32  C15 UNL     1       8.669  22.130  47.237  1.00  0.00     0.293 C 
HETATM   33  N5  UNL     1       7.670  21.933  46.204  1.00  0.00     0.090 N 
HETATM   34  C16 UNL     1       8.206  22.512  44.977  1.00  0.00     0.310 C 
HETATM   35  C17 UNL     1       7.585  20.504  45.996  1.00  0.00     0.317 C 
HETATM   36  C18 UNL     1       7.230  19.733  47.201  1.00  0.00     0.106 C 
ENDBRANCH  27  30
ENDBRANCH   8  27
TORSDOF 5
ENDMDL
