MODEL 2
REMARK VINA RESULT: -8.648649039      1.979      2.639
REMARK  5 active torsions:
REMARK  status: ('A' for Active; 'I' for Inactive)
REMARK    1  A    between atoms: O1_2  and  C2_3 
REMARK    2  A    between atoms: C6_11  and  N3_12 
REMARK    3  A    between atoms: C13_19  and  S1_20 
REMARK    4  A    between atoms: S1_20  and  N4_23 
REMARK    5  A    between atoms: C23_34  and  O4_35 
ROOT
HETATM    1  N3  UNL     1      12.294  18.812  45.914  1.00  0.00    -0.362 N 
HETATM    2  C7  UNL     1      13.583  18.705  46.531  1.00  0.00     0.129 C 
HETATM    3  C8  UNL     1      13.467  18.349  47.969  1.00  0.00     0.059 C 
HETATM    4  C9  UNL     1      12.676  19.439  48.626  1.00  0.00    -0.047 A 
HETATM    5  C10 UNL     1      13.102  19.953  49.812  1.00  0.00     0.008 A 
HETATM    6  C11 UNL     1      12.357  20.965  50.409  1.00  0.00     0.002 A 
HETATM    7  C12 UNL     1      11.203  21.397  49.752  1.00  0.00     0.026 A 
HETATM    8  C13 UNL     1      10.798  20.859  48.556  1.00  0.00     0.088 A 
HETATM    9  C19 UNL     1      11.517  19.868  47.957  1.00  0.00    -0.011 A 
HETATM   10  C20 UNL     1      11.144  19.236  46.674  1.00  0.00     0.165 C 
ENDROOT
BRANCH   1  11
HETATM   11  C6  UNL     1      12.159  18.505  44.542  1.00  0.00     0.117 A 
HETATM   12  N2  UNL     1      11.393  19.252  43.714  1.00  0.00    -0.338 N 
HETATM   13  C5  UNL     1      11.277  18.981  42.404  1.00  0.00     0.182 A 
ATOM     14  H2  UNL     1      10.886  20.049  44.098  1.00  0.00     0.168 HD
HETATM   15  N1  UNL     1      11.941  17.935  41.892  1.00  0.00    -0.351 N 
HETATM   16  C4  UNL     1      12.718  17.143  42.630  1.00  0.00     0.050 A 
ATOM     17  H1  UNL     1      11.847  17.738  40.896  1.00  0.00     0.166 HD
HETATM   18  C3  UNL     1      13.378  16.070  42.059  1.00  0.00     0.070 A 
HETATM   19  C21 UNL     1      12.830  17.438  44.000  1.00  0.00     0.037 A 
HETATM   20  C2  UNL     1      14.158  15.284  42.871  1.00  0.00     0.103 A 
HETATM   21  C23 UNL     1      14.288  15.545  44.216  1.00  0.00     0.102 A 
HETATM   22  C22 UNL     1      13.619  16.628  44.780  1.00  0.00     0.057 A 
BRANCH  20  23
HETATM   23  O1  UNL     1      14.836  14.199  42.338  1.00  0.00    -0.353 OA
HETATM   24  C1  UNL     1      14.255  12.929  42.133  1.00  0.00     0.210 C 
ENDBRANCH  20  23
BRANCH  21  25
HETATM   25  O4  UNL     1      15.066  14.769  45.049  1.00  0.00    -0.353 OA
HETATM   26  C24 UNL     1      15.545  15.255  46.282  1.00  0.00     0.210 C 
ENDBRANCH  21  25
ENDBRANCH   1  11
BRANCH   8  27
HETATM   27  S1  UNL     1       9.361  21.463  47.789  1.00  0.00     0.265 S 
HETATM   28  O2  UNL     1       9.135  22.907  48.223  1.00  0.00    -0.200 OA
HETATM   29  O3  UNL     1       9.570  21.498  46.303  1.00  0.00    -0.200 OA
BRANCH  27  30
HETATM   30  N4  UNL     1       7.952  20.600  48.174  1.00  0.00    -0.283 N 
HETATM   31  C14 UNL     1       7.099  20.306  47.086  1.00  0.00     0.171 C 
HETATM   32  C15 UNL     1       6.400  19.008  47.062  1.00  0.00     0.293 C 
HETATM   33  N5  UNL     1       6.105  18.467  48.375  1.00  0.00     0.090 N 
HETATM   34  C16 UNL     1       5.613  17.107  48.173  1.00  0.00     0.310 C 
HETATM   35  C17 UNL     1       7.374  18.360  49.060  1.00  0.00     0.317 C 
HETATM   36  C18 UNL     1       8.105  19.634  49.188  1.00  0.00     0.106 C 
ENDBRANCH  27  30
ENDBRANCH   8  27
TORSDOF 5
ENDMDL
