MODEL 4
REMARK VINA RESULT: -9.392233152      1.665      1.969
REMARK  4 active torsions:
REMARK  status: ('A' for Active; 'I' for Inactive)
REMARK    1  A    between atoms: S1_2  and  C2_5 
REMARK    2  A    between atoms: C9_12  and  N1_13 
REMARK    3  A    between atoms: C11_15  and  C12_16 
REMARK    4  A    between atoms: C18_25  and  N2_26 
ROOT
HETATM    1  C2  UNL     1      35.264   4.369  63.194  1.00  0.00     0.059 A 
HETATM    2  C3  UNL     1      34.611   5.109  64.148  1.00  0.00     0.023 A 
HETATM    3  C4  UNL     1      35.338   5.521  65.264  1.00  0.00     0.002 A 
HETATM    4  C5  UNL     1      36.686   5.189  65.409  1.00  0.00     0.014 A 
HETATM    5  C6  UNL     1      37.333   4.449  64.436  1.00  0.00    -0.008 A 
HETATM    6  C7  UNL     1      38.695   4.015  64.625  1.00  0.00     0.046 A 
HETATM    7  C8  UNL     1      39.829   4.589  64.044  1.00  0.00     0.078 A 
HETATM    8  C9  UNL     1      41.100   4.192  64.312  1.00  0.00     0.106 A 
HETATM    9  N3  UNL     1      41.263   3.159  65.204  1.00  0.00    -0.339 N 
ATOM     10  H3  UNL     1      42.199   2.823  65.428  1.00  0.00     0.168 HD
HETATM   11  C20 UNL     1      40.194   2.593  65.780  1.00  0.00     0.182 A 
HETATM   12  N4  UNL     1      38.945   3.008  65.502  1.00  0.00    -0.352 N 
ATOM     13  H4  UNL     1      38.159   2.550  65.965  1.00  0.00     0.166 HD
HETATM   14  C21 UNL     1      36.625   4.050  63.344  1.00  0.00     0.037 A 
ENDROOT
BRANCH   8  15
HETATM   15  N1  UNL     1      42.265   4.754  63.719  1.00  0.00    -0.361 N 
HETATM   16  C10 UNL     1      43.517   5.225  64.387  1.00  0.00     0.162 C 
HETATM   17  C11 UNL     1      44.387   5.590  63.245  1.00  0.00    -0.017 C 
HETATM   18  C18 UNL     1      43.600   5.821  62.047  1.00  0.00     0.232 C 
HETATM   19  C19 UNL     1      42.369   4.969  62.293  1.00  0.00     0.162 C 
BRANCH  17  20
HETATM   20  C12 UNL     1      45.573   6.351  63.566  1.00  0.00     0.012 A 
HETATM   21  C13 UNL     1      45.463   7.504  64.362  1.00  0.00     0.060 A 
HETATM   22  C14 UNL     1      46.561   8.176  64.851  1.00  0.00     0.155 A 
HETATM   23  F1  UNL     1      46.451   9.271  65.644  1.00  0.00    -0.203 F 
HETATM   24  C15 UNL     1      47.857   7.728  64.569  1.00  0.00     0.157 A 
HETATM   25  F2  UNL     1      48.938   8.374  65.029  1.00  0.00    -0.203 F 
HETATM   26  C16 UNL     1      47.971   6.589  63.785  1.00  0.00     0.088 A 
HETATM   27  C17 UNL     1      46.885   5.952  63.318  1.00  0.00     0.130 A 
HETATM   28  F3  UNL     1      47.039   4.844  62.527  1.00  0.00    -0.205 F 
ENDBRANCH  17  20
BRANCH  18  29
HETATM   29  N2  UNL     1      44.284   5.293  60.843  1.00  0.00    -0.070 N 
ATOM     30  H23 UNL     1      44.872   4.491  61.069  1.00  0.00     0.275 HD
ATOM     31  H22 UNL     1      43.628   4.834  60.211  1.00  0.00     0.275 HD
ATOM     32  H21 UNL     1      44.814   6.023  60.366  1.00  0.00     0.275 HD
ENDBRANCH  18  29
ENDBRANCH   8  15
BRANCH   1  33
HETATM   33  S1  UNL     1      34.309   3.762  61.875  1.00  0.00     0.171 S 
HETATM   34  C1  UNL     1      35.049   4.036  60.328  1.00  0.00     0.167 C 
HETATM   35  O1  UNL     1      32.951   4.380  61.845  1.00  0.00    -0.223 OA
HETATM   36  O2  UNL     1      34.076   2.257  62.029  1.00  0.00    -0.223 OA
ENDBRANCH   1  33
TORSDOF 4
ENDMDL
