MODEL 5
REMARK VINA RESULT: -9.342970784      7.950     11.641
REMARK  4 active torsions:
REMARK  status: ('A' for Active; 'I' for Inactive)
REMARK    1  A    between atoms: S1_2  and  C2_5 
REMARK    2  A    between atoms: C9_12  and  N1_13 
REMARK    3  A    between atoms: C11_15  and  C12_16 
REMARK    4  A    between atoms: C18_25  and  N2_26 
ROOT
HETATM    1  C2  UNL     1      37.392   8.691  57.337  1.00  0.00     0.059 A 
HETATM    2  C3  UNL     1      37.721   7.735  56.408  1.00  0.00     0.023 A 
HETATM    3  C4  UNL     1      37.640   6.397  56.792  1.00  0.00     0.002 A 
HETATM    4  C5  UNL     1      37.243   6.040  58.082  1.00  0.00     0.014 A 
HETATM    5  C6  UNL     1      36.908   7.014  59.005  1.00  0.00    -0.008 A 
HETATM    6  C7  UNL     1      36.596   6.660  60.368  1.00  0.00     0.046 A 
HETATM    7  C8  UNL     1      35.317   6.588  60.926  1.00  0.00     0.078 A 
HETATM    8  C9  UNL     1      35.067   6.176  62.196  1.00  0.00     0.106 A 
HETATM    9  N3  UNL     1      36.148   5.818  62.967  1.00  0.00    -0.339 N 
ATOM     10  H3  UNL     1      36.008   5.510  63.929  1.00  0.00     0.168 HD
HETATM   11  C20 UNL     1      37.385   5.872  62.456  1.00  0.00     0.182 A 
HETATM   12  N4  UNL     1      37.606   6.279  61.193  1.00  0.00    -0.352 N 
ATOM     13  H4  UNL     1      38.564   6.303  60.843  1.00  0.00     0.166 HD
HETATM   14  C21 UNL     1      36.982   8.320  58.630  1.00  0.00     0.037 A 
ENDROOT
BRANCH   8  15
HETATM   15  N1  UNL     1      33.775   6.111  62.786  1.00  0.00    -0.361 N 
HETATM   16  C10 UNL     1      32.497   6.720  62.304  1.00  0.00     0.162 C 
HETATM   17  C11 UNL     1      31.498   6.209  63.269  1.00  0.00    -0.017 C 
HETATM   18  C18 UNL     1      32.139   5.773  64.497  1.00  0.00     0.232 C 
HETATM   19  C19 UNL     1      33.535   5.409  64.028  1.00  0.00     0.162 C 
BRANCH  17  20
HETATM   20  C12 UNL     1      30.202   6.847  63.243  1.00  0.00     0.012 A 
HETATM   21  C13 UNL     1      30.003   8.044  63.952  1.00  0.00     0.060 A 
HETATM   22  C14 UNL     1      28.856   8.796  63.833  1.00  0.00     0.155 A 
HETATM   23  F1  UNL     1      28.680   9.967  64.496  1.00  0.00    -0.203 F 
HETATM   24  C15 UNL     1      27.820   8.390  62.982  1.00  0.00     0.157 A 
HETATM   25  F2  UNL     1      26.693   9.106  62.860  1.00  0.00    -0.203 F 
HETATM   26  C16 UNL     1      28.012   7.210  62.278  1.00  0.00     0.088 A 
HETATM   27  C17 UNL     1      29.139   6.493  62.413  1.00  0.00     0.130 A 
HETATM   28  F3  UNL     1      29.281   5.320  61.719  1.00  0.00    -0.205 F 
ENDBRANCH  17  20
BRANCH  18  29
HETATM   29  N2  UNL     1      31.504   4.543  65.029  1.00  0.00    -0.070 N 
ATOM     30  H23 UNL     1      31.140   4.688  65.970  1.00  0.00     0.275 HD
ATOM     31  H22 UNL     1      30.627   4.338  64.551  1.00  0.00     0.275 HD
ATOM     32  H21 UNL     1      32.144   3.750  64.993  1.00  0.00     0.275 HD
ENDBRANCH  18  29
ENDBRANCH   8  15
BRANCH   1  33
HETATM   33  S1  UNL     1      37.618  10.351  56.876  1.00  0.00     0.171 S 
HETATM   34  C1  UNL     1      38.343  10.520  55.308  1.00  0.00     0.167 C 
HETATM   35  O1  UNL     1      38.474  11.085  57.855  1.00  0.00    -0.223 OA
HETATM   36  O2  UNL     1      36.278  11.091  56.862  1.00  0.00    -0.223 OA
ENDBRANCH   1  33
TORSDOF 4
ENDMDL
