MODEL 1
REMARK VINA RESULT: -9.487715793      0.000      0.000
REMARK  4 active torsions:
REMARK  status: ('A' for Active; 'I' for Inactive)
REMARK    1  A    between atoms: S1_2  and  C2_5 
REMARK    2  A    between atoms: C9_12  and  N1_13 
REMARK    3  A    between atoms: C11_15  and  C12_16 
REMARK    4  A    between atoms: C18_25  and  N2_26 
ROOT
HETATM    1  C2  UNL     1      34.824   4.917  62.566  1.00  0.00     0.059 A 
HETATM    2  C3  UNL     1      34.184   5.828  63.371  1.00  0.00     0.023 A 
HETATM    3  C4  UNL     1      34.743   6.100  64.619  1.00  0.00     0.002 A 
HETATM    4  C5  UNL     1      35.912   5.464  65.040  1.00  0.00     0.014 A 
HETATM    5  C6  UNL     1      36.548   4.554  64.216  1.00  0.00    -0.008 A 
HETATM    6  C7  UNL     1      37.697   3.817  64.682  1.00  0.00     0.046 A 
HETATM    7  C8  UNL     1      39.030   4.082  64.359  1.00  0.00     0.078 A 
HETATM    8  C9  UNL     1      40.085   3.406  64.883  1.00  0.00     0.106 A 
HETATM    9  N3  UNL     1      39.807   2.400  65.778  1.00  0.00    -0.339 N 
ATOM     10  H3  UNL     1      40.568   1.861  66.190  1.00  0.00     0.168 HD
HETATM   11  C20 UNL     1      38.539   2.127  66.110  1.00  0.00     0.182 A 
HETATM   12  N4  UNL     1      37.511   2.815  65.580  1.00  0.00    -0.352 N 
ATOM     13  H4  UNL     1      36.560   2.576  65.863  1.00  0.00     0.166 HD
HETATM   14  C21 UNL     1      36.006   4.291  62.995  1.00  0.00     0.037 A 
ENDROOT
BRANCH   8  15
HETATM   15  N1  UNL     1      41.447   3.652  64.555  1.00  0.00    -0.361 N 
HETATM   16  C10 UNL     1      42.340   4.750  65.037  1.00  0.00     0.162 C 
HETATM   17  C11 UNL     1      43.649   4.403  64.438  1.00  0.00    -0.017 C 
HETATM   18  C18 UNL     1      43.481   3.511  63.305  1.00  0.00     0.232 C 
HETATM   19  C19 UNL     1      42.173   2.812  63.628  1.00  0.00     0.162 C 
BRANCH  17  20
HETATM   20  C12 UNL     1      44.663   5.431  64.485  1.00  0.00     0.012 A 
HETATM   21  C13 UNL     1      44.825   6.298  63.391  1.00  0.00     0.060 A 
HETATM   22  C14 UNL     1      45.645   7.403  63.433  1.00  0.00     0.155 A 
HETATM   23  F1  UNL     1      45.775   8.254  62.384  1.00  0.00    -0.203 F 
HETATM   24  C15 UNL     1      46.365   7.715  64.592  1.00  0.00     0.157 A 
HETATM   25  F2  UNL     1      47.174   8.782  64.649  1.00  0.00    -0.203 F 
HETATM   26  C16 UNL     1      46.207   6.864  65.677  1.00  0.00     0.088 A 
HETATM   27  C17 UNL     1      45.403   5.790  65.611  1.00  0.00     0.130 A 
HETATM   28  F3  UNL     1      45.293   4.960  66.695  1.00  0.00    -0.205 F 
ENDBRANCH  17  20
BRANCH  18  29
HETATM   29  N2  UNL     1      44.548   2.483  63.266  1.00  0.00    -0.070 N 
ATOM     30  H23 UNL     1      45.352   2.757  63.829  1.00  0.00     0.275 HD
ATOM     31  H22 UNL     1      44.277   1.643  63.777  1.00  0.00     0.275 HD
ATOM     32  H21 UNL     1      44.819   2.266  62.307  1.00  0.00     0.275 HD
ENDBRANCH  18  29
ENDBRANCH   8  15
BRANCH   1  33
HETATM   33  S1  UNL     1      34.044   4.502  61.069  1.00  0.00     0.171 S 
HETATM   34  C1  UNL     1      34.754   5.298  59.699  1.00  0.00     0.167 C 
HETATM   35  O1  UNL     1      32.591   4.841  61.090  1.00  0.00    -0.223 OA
HETATM   36  O2  UNL     1      34.114   2.992  60.829  1.00  0.00    -0.223 OA
ENDBRANCH   1  33
TORSDOF 4
ENDMDL
