MODEL 1
REMARK VINA RESULT: -13.074997472      0.000      0.000
REMARK  2 active torsions:
REMARK  status: ('A' for Active; 'I' for Inactive)
REMARK    1  A    between atoms: C2_2  and  S1_4 
REMARK    2  A    between atoms: S1_4  and  C3_5 
ROOT
HETATM    1  C3  UNL     1     -18.562  58.437   5.026  1.00  0.00     0.064 C 
HETATM    2  C4  UNL     1     -17.109  58.775   5.060  1.00  0.00     0.051 C 
HETATM    3  C5  UNL     1     -16.833  60.210   5.312  1.00  0.00    -0.067 C 
HETATM    4  C6  UNL     1     -15.893  60.559   6.162  1.00  0.00     0.053 C 
HETATM    5  C7  UNL     1     -15.588  61.952   6.440  1.00  0.00     0.149 C 
HETATM    6  O2  UNL     1     -14.879  62.261   7.439  1.00  0.00    -0.293 OA
HETATM    7  C8  UNL     1     -16.122  62.988   5.533  1.00  0.00     0.084 C 
HETATM    8  C9  UNL     1     -17.583  62.594   5.279  1.00  0.00     0.022 C 
HETATM    9  C10 UNL     1     -17.627  61.231   4.596  1.00  0.00    -0.016 C 
HETATM   10  C11 UNL     1     -17.120  61.445   3.197  1.00  0.00     0.020 C 
HETATM   11  C12 UNL     1     -19.077  60.775   4.628  1.00  0.00     0.004 C 
HETATM   12  C13 UNL     1     -19.962  61.835   4.072  1.00  0.00     0.007 C 
HETATM   13  C14 UNL     1     -21.321  61.368   3.658  1.00  0.00     0.013 C 
HETATM   14  C15 UNL     1     -21.205  60.124   2.864  1.00  0.00    -0.008 C 
HETATM   15  C16 UNL     1     -20.316  60.283   1.653  1.00  0.00     0.019 C 
HETATM   16  C17 UNL     1     -20.671  59.058   3.827  1.00  0.00     0.002 C 
HETATM   17  C18 UNL     1     -20.888  57.816   3.046  1.00  0.00     0.009 C 
HETATM   18  C19 UNL     1     -22.110  58.073   2.171  1.00  0.00     0.040 C 
HETATM   19  C20 UNL     1     -22.493  59.530   2.402  1.00  0.00     0.079 C 
HETATM   20  C21 UNL     1     -23.604  59.591   3.404  1.00  0.00     0.049 C 
HETATM   21  C22 UNL     1     -24.821  59.356   2.495  1.00  0.00     0.114 C 
HETATM   22  C23 UNL     1     -24.418  60.136   1.298  1.00  0.00     0.259 C 
HETATM   23  O3  UNL     1     -25.130  60.739   0.455  1.00  0.00    -0.265 OA
HETATM   24  O4  UNL     1     -23.029  60.093   1.245  1.00  0.00    -0.309 OA
HETATM   25  C24 UNL     1     -19.221  59.420   4.045  1.00  0.00     0.010 C 
ENDROOT
BRANCH   1  26
HETATM   26  S1  UNL     1     -19.370  58.452   6.619  1.00  0.00    -0.087 SA
BRANCH  26  27
HETATM   27  C2  UNL     1     -18.900  57.050   7.588  1.00  0.00     0.182 C 
HETATM   28  C1  UNL     1     -17.995  55.971   7.166  1.00  0.00     0.104 C 
HETATM   29  O1  UNL     1     -19.376  56.968   8.728  1.00  0.00    -0.286 OA
ENDBRANCH  26  27
ENDBRANCH   1  26
TORSDOF 2
ENDMDL
