MODEL 5
REMARK VINA RESULT: -11.177656415      2.757      5.396
REMARK  13 active torsions:
REMARK  status: ('A' for Active; 'I' for Inactive)
REMARK       I    between atoms: C1_2  and  N1_3 
REMARK    1  A    between atoms: C1_2  and  O7_40 
REMARK    2  A    between atoms: N1_3  and  C2_5 
REMARK    3  A    between atoms: C2_5  and  C3_6 
REMARK    4  A    between atoms: C2_5  and  P1_13 
REMARK    5  A    between atoms: C3_6  and  C4_7 
REMARK    6  A    between atoms: P1_13  and  C10_16 
REMARK    7  A    between atoms: C14_20  and  C15_21 
REMARK       I    between atoms: C15_21  and  N2_23 
REMARK    8  A    between atoms: N2_23  and  C16_25 
REMARK    9  A    between atoms: C16_25  and  C17_26 
REMARK   10  A    between atoms: C16_25  and  C26_37 
REMARK   11  A    between atoms: C17_26  and  C18_27 
REMARK   12  A    between atoms: O7_40  and  C27_41 
REMARK   13  A    between atoms: C27_41  and  C28_42 
ROOT
HETATM    1  C10 UNL     1      41.900  34.427  46.990  1.00  0.00     0.092 C 
HETATM    2  C11 UNL     1      42.401  33.018  47.110  1.00  0.00     0.016 C 
HETATM    3  C12 UNL     1      43.383  32.742  45.997  1.00  0.00     0.002 C 
HETATM    4  C13 UNL     1      43.551  34.041  45.259  1.00  0.00     0.015 C 
HETATM    5  C14 UNL     1      42.358  34.871  45.622  1.00  0.00     0.092 C 
ENDROOT
BRANCH   1   6
HETATM    6  P1  UNL     1      42.378  35.650  48.134  1.00  0.00     0.135 P 
HETATM    7  O2  UNL     1      42.019  36.818  47.129  1.00  0.00    -0.666 OA
HETATM    8  O3  UNL     1      43.950  36.339  47.983  1.00  0.00    -0.666 OA
BRANCH   6   9
HETATM    9  C2  UNL     1      41.378  36.209  49.423  1.00  0.00     0.183 C 
BRANCH   9  10
HETATM   10  N1  UNL     1      41.473  37.666  49.670  1.00  0.00    -0.322 N 
HETATM   11  C1  UNL     1      42.368  38.227  50.580  1.00  0.00     0.361 C 
HETATM   12  O1  UNL     1      43.129  37.456  51.227  1.00  0.00    -0.238 OA
ATOM     13  H1  UNL     1      40.856  38.288  49.149  1.00  0.00     0.165 HD
BRANCH  11  14
HETATM   14  O7  UNL     1      42.491  39.589  50.838  1.00  0.00    -0.299 OA
BRANCH  14  15
HETATM   15  C27 UNL     1      43.253  39.977  51.968  1.00  0.00     0.219 C 
BRANCH  15  16
HETATM   16  C28 UNL     1      42.814  41.208  52.613  1.00  0.00    -0.034 A 
HETATM   17  C29 UNL     1      42.239  41.166  53.862  1.00  0.00     0.009 A 
HETATM   18  C30 UNL     1      41.829  42.312  54.494  1.00  0.00     0.001 A 
HETATM   19  C31 UNL     1      41.999  43.523  53.862  1.00  0.00     0.000 A 
HETATM   20  C32 UNL     1      42.576  43.546  52.612  1.00  0.00     0.001 A 
HETATM   21  C33 UNL     1      42.991  42.411  51.965  1.00  0.00     0.009 A 
ENDBRANCH  15  16
ENDBRANCH  14  15
ENDBRANCH  11  14
ENDBRANCH   9  10
BRANCH   9  22
HETATM   22  C3  UNL     1      39.952  35.906  49.265  1.00  0.00     0.074 C 
BRANCH  22  23
HETATM   23  C4  UNL     1      39.063  35.984  50.406  1.00  0.00    -0.056 A 
HETATM   24  C5  UNL     1      38.423  37.167  50.789  1.00  0.00     0.007 A 
HETATM   25  C6  UNL     1      37.560  37.198  51.857  1.00  0.00     0.001 A 
HETATM   26  C7  UNL     1      37.290  36.065  52.591  1.00  0.00     0.000 A 
HETATM   27  C8  UNL     1      37.906  34.896  52.229  1.00  0.00     0.001 A 
HETATM   28  C9  UNL     1      38.768  34.884  51.157  1.00  0.00     0.007 A 
ENDBRANCH  22  23
ENDBRANCH   9  22
ENDBRANCH   6   9
ENDBRANCH   1   6
BRANCH   5  29
HETATM   29  C15 UNL     1      41.272  34.754  44.613  1.00  0.00     0.223 C 
HETATM   30  O4  UNL     1      40.086  34.540  44.969  1.00  0.00    -0.273 OA
HETATM   31  N2  UNL     1      41.593  34.886  43.246  1.00  0.00    -0.346 N 
ATOM     32  H2  UNL     1      42.561  35.058  42.971  1.00  0.00     0.163 HD
BRANCH  31  33
HETATM   33  C16 UNL     1      40.553  34.780  42.212  1.00  0.00     0.189 C 
BRANCH  33  34
HETATM   34  C17 UNL     1      41.078  35.478  40.974  1.00  0.00     0.077 C 
BRANCH  34  35
HETATM   35  C18 UNL     1      42.554  35.467  41.049  1.00  0.00    -0.028 A 
HETATM   36  C19 UNL     1      43.423  36.096  41.890  1.00  0.00     0.096 A 
HETATM   37  N3  UNL     1      44.691  35.769  41.556  1.00  0.00    -0.365 N 
HETATM   38  C20 UNL     1      44.661  34.933  40.505  1.00  0.00     0.042 A 
ATOM     39  H3  UNL     1      45.533  36.102  42.025  1.00  0.00     0.165 HD
HETATM   40  C21 UNL     1      45.674  34.317  39.793  1.00  0.00     0.030 A 
HETATM   41  C25 UNL     1      43.328  34.726  40.164  1.00  0.00    -0.002 A 
HETATM   42  C22 UNL     1      45.353  33.483  38.724  1.00  0.00     0.002 A 
HETATM   43  C23 UNL     1      44.032  33.270  38.377  1.00  0.00     0.001 A 
HETATM   44  C24 UNL     1      43.041  33.898  39.106  1.00  0.00     0.014 A 
ENDBRANCH  34  35
ENDBRANCH  33  34
BRANCH  33  45
HETATM   45  C26 UNL     1      40.347  33.353  41.898  1.00  0.00     0.197 C 
HETATM   46  O5  UNL     1      39.207  32.964  41.556  1.00  0.00    -0.646 OA
HETATM   47  O6  UNL     1      41.368  32.432  41.967  1.00  0.00    -0.646 OA
ENDBRANCH  33  45
ENDBRANCH  31  33
ENDBRANCH   5  29
TORSDOF 13
ENDMDL
