MODEL 3
REMARK VINA RESULT: -11.315352058      0.663      1.065
REMARK  13 active torsions:
REMARK  status: ('A' for Active; 'I' for Inactive)
REMARK       I    between atoms: C1_2  and  N1_3 
REMARK    1  A    between atoms: C1_2  and  O7_40 
REMARK    2  A    between atoms: N1_3  and  C2_5 
REMARK    3  A    between atoms: C2_5  and  C3_6 
REMARK    4  A    between atoms: C2_5  and  P1_13 
REMARK    5  A    between atoms: C3_6  and  C4_7 
REMARK    6  A    between atoms: P1_13  and  C10_16 
REMARK    7  A    between atoms: C14_20  and  C15_21 
REMARK       I    between atoms: C15_21  and  N2_23 
REMARK    8  A    between atoms: N2_23  and  C16_25 
REMARK    9  A    between atoms: C16_25  and  C17_26 
REMARK   10  A    between atoms: C16_25  and  C26_37 
REMARK   11  A    between atoms: C17_26  and  C18_27 
REMARK   12  A    between atoms: O7_40  and  C27_41 
REMARK   13  A    between atoms: C27_41  and  C28_42 
ROOT
HETATM    1  C10 UNL     1      39.927  37.406  49.388  1.00  0.00     0.092 C 
HETATM    2  C11 UNL     1      38.490  37.277  49.800  1.00  0.00     0.016 C 
HETATM    3  C12 UNL     1      38.276  35.930  50.448  1.00  0.00     0.002 C 
HETATM    4  C13 UNL     1      39.631  35.284  50.519  1.00  0.00     0.015 C 
HETATM    5  C14 UNL     1      40.479  36.007  49.519  1.00  0.00     0.092 C 
ENDROOT
BRANCH   1   6
HETATM    6  P1  UNL     1      41.007  38.485  50.225  1.00  0.00     0.135 P 
HETATM    7  O2  UNL     1      40.231  39.764  49.708  1.00  0.00    -0.666 OA
HETATM    8  O3  UNL     1      42.290  39.212  49.331  1.00  0.00    -0.666 OA
BRANCH   6   9
HETATM    9  C2  UNL     1      40.883  38.866  51.902  1.00  0.00     0.183 C 
BRANCH   9  10
HETATM   10  N1  UNL     1      40.451  37.729  52.746  1.00  0.00    -0.322 N 
HETATM   11  C1  UNL     1      39.292  37.753  53.521  1.00  0.00     0.361 C 
HETATM   12  O1  UNL     1      38.580  38.795  53.503  1.00  0.00    -0.238 OA
ATOM     13  H1  UNL     1      41.029  36.889  52.762  1.00  0.00     0.165 HD
BRANCH  11  14
HETATM   14  O7  UNL     1      38.849  36.706  54.323  1.00  0.00    -0.299 OA
BRANCH  14  15
HETATM   15  C27 UNL     1      39.707  36.266  55.361  1.00  0.00     0.219 C 
BRANCH  15  16
HETATM   16  C28 UNL     1      40.041  37.278  56.355  1.00  0.00    -0.034 A 
HETATM   17  C29 UNL     1      41.300  37.832  56.379  1.00  0.00     0.009 A 
HETATM   18  C30 UNL     1      41.635  38.794  57.298  1.00  0.00     0.001 A 
HETATM   19  C31 UNL     1      40.689  39.209  58.208  1.00  0.00     0.000 A 
HETATM   20  C32 UNL     1      39.435  38.643  58.168  1.00  0.00     0.001 A 
HETATM   21  C33 UNL     1      39.082  37.680  57.259  1.00  0.00     0.009 A 
ENDBRANCH  15  16
ENDBRANCH  14  15
ENDBRANCH  11  14
ENDBRANCH   9  10
BRANCH   9  22
HETATM   22  C3  UNL     1      42.117  39.384  52.502  1.00  0.00     0.074 C 
BRANCH  22  23
HETATM   23  C4  UNL     1      42.166  40.745  52.998  1.00  0.00    -0.056 A 
HETATM   24  C5  UNL     1      41.826  41.086  54.311  1.00  0.00     0.007 A 
HETATM   25  C6  UNL     1      41.915  42.382  54.757  1.00  0.00     0.001 A 
HETATM   26  C7  UNL     1      42.345  43.395  53.930  1.00  0.00     0.000 A 
HETATM   27  C8  UNL     1      42.684  43.079  52.641  1.00  0.00     0.001 A 
HETATM   28  C9  UNL     1      42.588  41.776  52.210  1.00  0.00     0.007 A 
ENDBRANCH  22  23
ENDBRANCH   9  22
ENDBRANCH   6   9
ENDBRANCH   1   6
BRANCH   5  29
HETATM   29  C15 UNL     1      40.514  35.305  48.208  1.00  0.00     0.223 C 
HETATM   30  O4  UNL     1      39.501  35.282  47.465  1.00  0.00    -0.273 OA
HETATM   31  N2  UNL     1      41.705  34.663  47.810  1.00  0.00    -0.346 N 
ATOM     32  H2  UNL     1      42.520  34.688  48.424  1.00  0.00     0.163 HD
BRANCH  31  33
HETATM   33  C16 UNL     1      41.789  33.958  46.522  1.00  0.00     0.189 C 
BRANCH  33  34
HETATM   34  C17 UNL     1      42.447  34.902  45.536  1.00  0.00     0.077 C 
BRANCH  34  35
HETATM   35  C18 UNL     1      41.743  34.760  44.245  1.00  0.00    -0.028 A 
HETATM   36  C19 UNL     1      40.483  34.338  43.942  1.00  0.00     0.096 A 
HETATM   37  N3  UNL     1      40.301  34.385  42.604  1.00  0.00    -0.365 N 
HETATM   38  C20 UNL     1      41.428  34.833  42.028  1.00  0.00     0.042 A 
ATOM     39  H3  UNL     1      39.447  34.124  42.112  1.00  0.00     0.165 HD
HETATM   40  C21 UNL     1      41.756  35.060  40.703  1.00  0.00     0.030 A 
HETATM   41  C25 UNL     1      42.354  35.077  43.037  1.00  0.00    -0.002 A 
HETATM   42  C22 UNL     1      43.025  35.535  40.381  1.00  0.00     0.002 A 
HETATM   43  C23 UNL     1      43.952  35.780  41.376  1.00  0.00     0.001 A 
HETATM   44  C24 UNL     1      43.598  35.545  42.690  1.00  0.00     0.014 A 
ENDBRANCH  34  35
ENDBRANCH  33  34
BRANCH  33  45
HETATM   45  C26 UNL     1      42.654  32.774  46.691  1.00  0.00     0.197 C 
HETATM   46  O5  UNL     1      42.138  31.692  47.057  1.00  0.00    -0.646 OA
HETATM   47  O6  UNL     1      44.010  32.816  46.458  1.00  0.00    -0.646 OA
ENDBRANCH  33  45
ENDBRANCH  31  33
ENDBRANCH   5  29
TORSDOF 13
ENDMDL
