MODEL 2
REMARK VINA RESULT: -11.332053596      2.264      4.816
REMARK  13 active torsions:
REMARK  status: ('A' for Active; 'I' for Inactive)
REMARK       I    between atoms: C1_2  and  N1_3 
REMARK    1  A    between atoms: C1_2  and  O7_40 
REMARK    2  A    between atoms: N1_3  and  C2_5 
REMARK    3  A    between atoms: C2_5  and  C3_6 
REMARK    4  A    between atoms: C2_5  and  P1_13 
REMARK    5  A    between atoms: C3_6  and  C4_7 
REMARK    6  A    between atoms: P1_13  and  C10_16 
REMARK    7  A    between atoms: C14_20  and  C15_21 
REMARK       I    between atoms: C15_21  and  N2_23 
REMARK    8  A    between atoms: N2_23  and  C16_25 
REMARK    9  A    between atoms: C16_25  and  C17_26 
REMARK   10  A    between atoms: C16_25  and  C26_37 
REMARK   11  A    between atoms: C17_26  and  C18_27 
REMARK   12  A    between atoms: O7_40  and  C27_41 
REMARK   13  A    between atoms: C27_41  and  C28_42 
ROOT
HETATM    1  C10 UNL     1      40.361  37.323  49.488  1.00  0.00     0.092 C 
HETATM    2  C11 UNL     1      38.898  37.593  49.679  1.00  0.00     0.016 C 
HETATM    3  C12 UNL     1      38.218  36.334  50.164  1.00  0.00     0.002 C 
HETATM    4  C13 UNL     1      39.312  35.323  50.367  1.00  0.00     0.015 C 
HETATM    5  C14 UNL     1      40.477  35.819  49.567  1.00  0.00     0.092 C 
ENDROOT
BRANCH   1   6
HETATM    6  P1  UNL     1      41.547  38.005  50.566  1.00  0.00     0.135 P 
HETATM    7  O2  UNL     1      42.298  38.733  49.379  1.00  0.00    -0.666 OA
HETATM    8  O3  UNL     1      43.070  37.212  50.712  1.00  0.00    -0.666 OA
BRANCH   6   9
HETATM    9  C2  UNL     1      41.289  39.424  51.511  1.00  0.00     0.183 C 
BRANCH   9  10
HETATM   10  N1  UNL     1      40.599  40.514  50.785  1.00  0.00    -0.322 N 
HETATM   11  C1  UNL     1      41.215  41.721  50.458  1.00  0.00     0.361 C 
HETATM   12  O1  UNL     1      42.417  41.894  50.802  1.00  0.00    -0.238 OA
ATOM     13  H1  UNL     1      39.626  40.375  50.510  1.00  0.00     0.165 HD
BRANCH  11  14
HETATM   14  O7  UNL     1      40.604  42.767  49.774  1.00  0.00    -0.299 OA
BRANCH  14  15
HETATM   15  C27 UNL     1      41.397  43.899  49.462  1.00  0.00     0.219 C 
BRANCH  15  16
HETATM   16  C28 UNL     1      40.784  45.185  49.774  1.00  0.00    -0.034 A 
HETATM   17  C29 UNL     1      39.454  45.249  50.119  1.00  0.00     0.009 A 
HETATM   18  C30 UNL     1      38.858  46.445  50.428  1.00  0.00     0.001 A 
HETATM   19  C31 UNL     1      39.610  47.597  50.392  1.00  0.00     0.000 A 
HETATM   20  C32 UNL     1      40.939  47.513  50.045  1.00  0.00     0.001 A 
HETATM   21  C33 UNL     1      41.552  46.328  49.732  1.00  0.00     0.009 A 
ENDBRANCH  15  16
ENDBRANCH  14  15
ENDBRANCH  11  14
ENDBRANCH   9  10
BRANCH   9  22
HETATM   22  C3  UNL     1      40.531  39.204  52.748  1.00  0.00     0.074 C 
BRANCH  22  23
HETATM   23  C4  UNL     1      41.061  39.663  54.015  1.00  0.00    -0.056 A 
HETATM   24  C5  UNL     1      41.848  40.814  54.135  1.00  0.00     0.007 A 
HETATM   25  C6  UNL     1      42.307  41.240  55.357  1.00  0.00     0.001 A 
HETATM   26  C7  UNL     1      42.010  40.552  56.512  1.00  0.00     0.000 A 
HETATM   27  C8  UNL     1      41.240  39.423  56.414  1.00  0.00     0.001 A 
HETATM   28  C9  UNL     1      40.788  39.011  55.181  1.00  0.00     0.007 A 
ENDBRANCH  22  23
ENDBRANCH   9  22
ENDBRANCH   6   9
ENDBRANCH   1   6
BRANCH   5  29
HETATM   29  C15 UNL     1      40.529  35.201  48.216  1.00  0.00     0.223 C 
HETATM   30  O4  UNL     1      39.542  35.267  47.441  1.00  0.00    -0.273 OA
HETATM   31  N2  UNL     1      41.707  34.536  47.816  1.00  0.00    -0.346 N 
ATOM     32  H2  UNL     1      42.500  34.488  48.455  1.00  0.00     0.163 HD
BRANCH  31  33
HETATM   33  C16 UNL     1      41.806  33.910  46.488  1.00  0.00     0.189 C 
BRANCH  33  34
HETATM   34  C17 UNL     1      42.478  34.912  45.570  1.00  0.00     0.077 C 
BRANCH  34  35
HETATM   35  C18 UNL     1      41.821  34.816  44.249  1.00  0.00    -0.028 A 
HETATM   36  C19 UNL     1      40.541  34.511  43.895  1.00  0.00     0.096 A 
HETATM   37  N3  UNL     1      40.424  34.553  42.549  1.00  0.00    -0.365 N 
HETATM   38  C20 UNL     1      41.613  34.882  42.020  1.00  0.00     0.042 A 
ATOM     39  H3  UNL     1      39.571  34.366  42.021  1.00  0.00     0.165 HD
HETATM   40  C21 UNL     1      42.019  35.054  40.709  1.00  0.00     0.030 A 
HETATM   41  C25 UNL     1      42.512  35.053  43.067  1.00  0.00    -0.002 A 
HETATM   42  C22 UNL     1      43.341  35.401  40.439  1.00  0.00     0.002 A 
HETATM   43  C23 UNL     1      44.242  35.573  41.472  1.00  0.00     0.001 A 
HETATM   44  C24 UNL     1      43.809  35.395  42.772  1.00  0.00     0.014 A 
ENDBRANCH  34  35
ENDBRANCH  33  34
BRANCH  33  45
HETATM   45  C26 UNL     1      42.668  32.717  46.595  1.00  0.00     0.197 C 
HETATM   46  O5  UNL     1      43.890  32.825  46.338  1.00  0.00    -0.646 OA
HETATM   47  O6  UNL     1      42.176  31.487  46.970  1.00  0.00    -0.646 OA
ENDBRANCH  33  45
ENDBRANCH  31  33
ENDBRANCH   5  29
TORSDOF 13
ENDMDL
