MODEL 1
REMARK VINA RESULT: -11.787143750      0.000      0.000
REMARK  13 active torsions:
REMARK  status: ('A' for Active; 'I' for Inactive)
REMARK       I    between atoms: C1_2  and  N1_3 
REMARK    1  A    between atoms: C1_2  and  O7_40 
REMARK    2  A    between atoms: N1_3  and  C2_5 
REMARK    3  A    between atoms: C2_5  and  C3_6 
REMARK    4  A    between atoms: C2_5  and  P1_13 
REMARK    5  A    between atoms: C3_6  and  C4_7 
REMARK    6  A    between atoms: P1_13  and  C10_16 
REMARK    7  A    between atoms: C14_20  and  C15_21 
REMARK       I    between atoms: C15_21  and  N2_23 
REMARK    8  A    between atoms: N2_23  and  C16_25 
REMARK    9  A    between atoms: C16_25  and  C17_26 
REMARK   10  A    between atoms: C16_25  and  C26_37 
REMARK   11  A    between atoms: C17_26  and  C18_27 
REMARK   12  A    between atoms: O7_40  and  C27_41 
REMARK   13  A    between atoms: C27_41  and  C28_42 
ROOT
HETATM    1  C10 UNL     1      40.727  37.285  49.500  1.00  0.00     0.092 C 
HETATM    2  C11 UNL     1      39.336  37.841  49.588  1.00  0.00     0.016 C 
HETATM    3  C12 UNL     1      38.388  36.745  50.012  1.00  0.00     0.002 C 
HETATM    4  C13 UNL     1      39.241  35.538  50.283  1.00  0.00     0.015 C 
HETATM    5  C14 UNL     1      40.536  35.789  49.573  1.00  0.00     0.092 C 
ENDROOT
BRANCH   1   6
HETATM    6  P1  UNL     1      41.944  37.724  50.665  1.00  0.00     0.135 P 
HETATM    7  O2  UNL     1      42.481  38.901  49.754  1.00  0.00    -0.666 OA
HETATM    8  O3  UNL     1      43.549  37.142  50.428  1.00  0.00    -0.666 OA
BRANCH   6   9
HETATM    9  C2  UNL     1      41.643  38.697  52.056  1.00  0.00     0.183 C 
BRANCH   9  10
HETATM   10  N1  UNL     1      41.205  37.930  53.244  1.00  0.00    -0.322 N 
HETATM   11  C1  UNL     1      39.880  37.883  53.675  1.00  0.00     0.361 C 
HETATM   12  O1  UNL     1      39.013  38.529  53.023  1.00  0.00    -0.238 OA
ATOM     13  H1  UNL     1      41.906  37.410  53.772  1.00  0.00     0.165 HD
BRANCH  11  14
HETATM   14  O7  UNL     1      39.427  37.171  54.781  1.00  0.00    -0.299 OA
BRANCH  14  15
HETATM   15  C27 UNL     1      40.361  36.894  55.810  1.00  0.00     0.219 C 
BRANCH  15  16
HETATM   16  C28 UNL     1      40.424  37.891  56.871  1.00  0.00    -0.034 A 
HETATM   17  C29 UNL     1      39.334  38.101  57.686  1.00  0.00     0.009 A 
HETATM   18  C30 UNL     1      39.373  39.026  58.697  1.00  0.00     0.001 A 
HETATM   19  C31 UNL     1      40.525  39.752  58.898  1.00  0.00     0.000 A 
HETATM   20  C32 UNL     1      41.604  39.529  58.074  1.00  0.00     0.001 A 
HETATM   21  C33 UNL     1      41.584  38.610  57.057  1.00  0.00     0.009 A 
ENDBRANCH  15  16
ENDBRANCH  14  15
ENDBRANCH  11  14
ENDBRANCH   9  10
BRANCH   9  22
HETATM   22  C3  UNL     1      42.781  39.516  52.486  1.00  0.00     0.074 C 
BRANCH  22  23
HETATM   23  C4  UNL     1      42.561  40.857  52.988  1.00  0.00    -0.056 A 
HETATM   24  C5  UNL     1      42.093  41.115  54.281  1.00  0.00     0.007 A 
HETATM   25  C6  UNL     1      41.927  42.400  54.736  1.00  0.00     0.001 A 
HETATM   26  C7  UNL     1      42.216  43.484  53.939  1.00  0.00     0.000 A 
HETATM   27  C8  UNL     1      42.678  43.251  52.670  1.00  0.00     0.001 A 
HETATM   28  C9  UNL     1      42.838  41.957  52.230  1.00  0.00     0.007 A 
ENDBRANCH  22  23
ENDBRANCH   9  22
ENDBRANCH   6   9
ENDBRANCH   1   6
BRANCH   5  29
HETATM   29  C15 UNL     1      40.561  35.165  48.223  1.00  0.00     0.223 C 
HETATM   30  O4  UNL     1      39.548  35.202  47.480  1.00  0.00    -0.273 OA
HETATM   31  N2  UNL     1      41.742  34.530  47.787  1.00  0.00    -0.346 N 
ATOM     32  H2  UNL     1      42.557  34.506  48.401  1.00  0.00     0.163 HD
BRANCH  31  33
HETATM   33  C16 UNL     1      41.815  33.901  46.460  1.00  0.00     0.189 C 
BRANCH  33  34
HETATM   34  C17 UNL     1      42.460  34.903  45.524  1.00  0.00     0.077 C 
BRANCH  34  35
HETATM   35  C18 UNL     1      41.786  34.787  44.213  1.00  0.00    -0.028 A 
HETATM   36  C19 UNL     1      40.516  34.427  43.877  1.00  0.00     0.096 A 
HETATM   37  N3  UNL     1      40.375  34.473  42.534  1.00  0.00    -0.365 N 
HETATM   38  C20 UNL     1      41.539  34.859  41.988  1.00  0.00     0.042 A 
ATOM     39  H3  UNL     1      39.523  34.251  42.019  1.00  0.00     0.165 HD
HETATM   40  C21 UNL     1      41.915  35.058  40.672  1.00  0.00     0.030 A 
HETATM   41  C25 UNL     1      42.447  35.063  43.022  1.00  0.00    -0.002 A 
HETATM   42  C22 UNL     1      43.215  35.466  40.383  1.00  0.00     0.002 A 
HETATM   43  C23 UNL     1      44.125  35.672  41.403  1.00  0.00     0.001 A 
HETATM   44  C24 UNL     1      43.722  35.465  42.708  1.00  0.00     0.014 A 
ENDBRANCH  34  35
ENDBRANCH  33  34
BRANCH  33  45
HETATM   45  C26 UNL     1      42.686  32.713  46.551  1.00  0.00     0.197 C 
HETATM   46  O5  UNL     1      42.202  31.635  46.967  1.00  0.00    -0.646 OA
HETATM   47  O6  UNL     1      44.014  32.747  46.192  1.00  0.00    -0.646 OA
ENDBRANCH  33  45
ENDBRANCH  31  33
ENDBRANCH   5  29
TORSDOF 13
ENDMDL
