MODEL 8
REMARK VINA RESULT: -11.209410811      4.420      7.136
REMARK  4 active torsions:
REMARK  status: ('A' for Active; 'I' for Inactive)
REMARK    1  A    between atoms: C5_5  and  C6_6 
REMARK       I    between atoms: C6_6  and  N1_8 
REMARK    2  A    between atoms: N1_8  and  C7_10 
REMARK    3  A    between atoms: C11_14  and  C12_15 
REMARK    4  A    between atoms: C15_21  and  C16_22 
ROOT
HETATM    1  C1  UNL     1      88.804  33.178  10.894  1.00  0.00     0.049 C 
HETATM    2  C2  UNL     1      88.730  34.561  11.426  1.00  0.00    -0.051 A 
HETATM    3  C3  UNL     1      89.722  35.486  11.058  1.00  0.00     0.009 A 
HETATM    4  C4  UNL     1      89.687  36.778  11.518  1.00  0.00     0.017 A 
HETATM    5  C5  UNL     1      88.677  37.227  12.363  1.00  0.00     0.033 A 
HETATM    6  C14 UNL     1      87.714  36.323  12.718  1.00  0.00     0.029 A 
HETATM    7  C15 UNL     1      87.730  34.989  12.255  1.00  0.00    -0.019 A 
ENDROOT
BRANCH   5   8
HETATM    8  C6  UNL     1      88.689  38.619  12.843  1.00  0.00     0.256 C 
HETATM    9  O1  UNL     1      87.645  39.248  12.862  1.00  0.00    -0.267 OA
HETATM   10  N1  UNL     1      89.899  39.227  13.280  1.00  0.00    -0.323 N 
ATOM     11  H1  UNL     1      90.739  38.647  13.255  1.00  0.00     0.169 HD
BRANCH  10  12
HETATM   12  C7  UNL     1      90.056  40.542  13.741  1.00  0.00     0.035 A 
HETATM   13  C8  UNL     1      90.351  40.779  15.071  1.00  0.00     0.029 A 
HETATM   14  C9  UNL     1      90.544  42.069  15.562  1.00  0.00     0.003 A 
HETATM   15  C10 UNL     1      90.446  43.149  14.721  1.00  0.00     0.016 A 
HETATM   16  C11 UNL     1      90.153  42.937  13.392  1.00  0.00     0.050 A 
HETATM   17  C13 UNL     1      89.962  41.632  12.919  1.00  0.00     0.045 A 
BRANCH  16  18
HETATM   18  C12 UNL     1      90.038  44.090  12.464  1.00  0.00     0.417 C 
HETATM   19  F1  UNL     1      89.424  43.646  11.292  1.00  0.00    -0.166 F 
HETATM   20  F2  UNL     1      89.329  45.141  13.022  1.00  0.00    -0.166 F 
HETATM   21  F3  UNL     1      91.307  44.526  12.141  1.00  0.00    -0.166 F 
ENDBRANCH  16  18
ENDBRANCH  10  12
ENDBRANCH   5   8
BRANCH   7  22
HETATM   22  C16 UNL     1      86.702  34.056  12.678  1.00  0.00    -0.024 A 
HETATM   23  C17 UNL     1      86.664  33.582  14.000  1.00  0.00     0.014 A 
HETATM   24  C18 UNL     1      85.700  32.672  14.400  1.00  0.00     0.031 A 
HETATM   25  C19 UNL     1      84.746  32.200  13.515  1.00  0.00     0.046 A 
HETATM   26  N2  UNL     1      83.790  31.303  13.849  1.00  0.00    -0.330 N 
HETATM   27  C22 UNL     1      84.761  32.648  12.213  1.00  0.00     0.007 A 
HETATM   28  C20 UNL     1      82.895  30.875  12.929  1.00  0.00     0.192 A 
ATOM     29  H2  UNL     1      83.742  30.946  14.803  1.00  0.00     0.168 HD
HETATM   30  N3  UNL     1      81.875  29.926  13.215  1.00  0.00    -0.063 NA
HETATM   31  N4  UNL     1      82.939  31.334  11.660  1.00  0.00    -0.340 N 
HETATM   32  C21 UNL     1      83.849  32.219  11.252  1.00  0.00     0.104 A 
ATOM     33  H4  UNL     1      82.252  30.992  10.989  1.00  0.00     0.167 HD
HETATM   34  C23 UNL     1      85.735  33.556  11.847  1.00  0.00     0.027 A 
ENDBRANCH   7  22
TORSDOF 4
ENDMDL
