MODEL 6
REMARK VINA RESULT: -11.589716376      3.335      6.080
REMARK  4 active torsions:
REMARK  status: ('A' for Active; 'I' for Inactive)
REMARK    1  A    between atoms: C5_5  and  C6_6 
REMARK       I    between atoms: C6_6  and  N1_8 
REMARK    2  A    between atoms: N1_8  and  C7_10 
REMARK    3  A    between atoms: C11_14  and  C12_15 
REMARK    4  A    between atoms: C15_21  and  C16_22 
ROOT
HETATM    1  C1  UNL     1      88.724  33.706  11.045  1.00  0.00     0.049 C 
HETATM    2  C2  UNL     1      89.106  35.087  11.429  1.00  0.00    -0.051 A 
HETATM    3  C3  UNL     1      90.361  35.581  11.034  1.00  0.00     0.009 A 
HETATM    4  C4  UNL     1      90.751  36.856  11.357  1.00  0.00     0.017 A 
HETATM    5  C5  UNL     1      89.930  37.711  12.084  1.00  0.00     0.033 A 
HETATM    6  C14 UNL     1      88.709  37.226  12.467  1.00  0.00     0.029 A 
HETATM    7  C15 UNL     1      88.287  35.917  12.144  1.00  0.00    -0.019 A 
ENDROOT
BRANCH   5   8
HETATM    8  C6  UNL     1      90.397  39.066  12.421  1.00  0.00     0.256 C 
HETATM    9  O1  UNL     1      91.591  39.306  12.389  1.00  0.00    -0.267 OA
HETATM   10  N1  UNL     1      89.471  40.085  12.782  1.00  0.00    -0.323 N 
ATOM     11  H1  UNL     1      88.483  39.829  12.779  1.00  0.00     0.169 HD
BRANCH  10  12
HETATM   12  C7  UNL     1      89.779  41.405  13.143  1.00  0.00     0.035 A 
HETATM   13  C8  UNL     1      89.554  42.437  12.250  1.00  0.00     0.029 A 
HETATM   14  C9  UNL     1      89.818  43.765  12.582  1.00  0.00     0.003 A 
HETATM   15  C10 UNL     1      90.313  44.081  13.822  1.00  0.00     0.016 A 
HETATM   16  C11 UNL     1      90.544  43.070  14.727  1.00  0.00     0.050 A 
HETATM   17  C13 UNL     1      90.273  41.741  14.374  1.00  0.00     0.045 A 
BRANCH  16  18
HETATM   18  C12 UNL     1      91.084  43.387  16.074  1.00  0.00     0.417 C 
HETATM   19  F1  UNL     1      92.444  43.668  15.943  1.00  0.00    -0.166 F 
HETATM   20  F2  UNL     1      90.418  44.446  16.667  1.00  0.00    -0.166 F 
HETATM   21  F3  UNL     1      90.955  42.271  16.875  1.00  0.00    -0.166 F 
ENDBRANCH  16  18
ENDBRANCH  10  12
ENDBRANCH   5   8
BRANCH   7  22
HETATM   22  C16 UNL     1      86.994  35.435  12.591  1.00  0.00    -0.024 A 
HETATM   23  C17 UNL     1      85.846  36.235  12.460  1.00  0.00     0.014 A 
HETATM   24  C18 UNL     1      84.615  35.788  12.911  1.00  0.00     0.031 A 
HETATM   25  C19 UNL     1      84.475  34.545  13.504  1.00  0.00     0.046 A 
HETATM   26  N2  UNL     1      83.299  34.064  13.971  1.00  0.00    -0.330 N 
HETATM   27  C22 UNL     1      85.584  33.741  13.645  1.00  0.00     0.007 A 
HETATM   28  C20 UNL     1      83.235  32.844  14.551  1.00  0.00     0.192 A 
ATOM     29  H2  UNL     1      82.453  34.627  13.886  1.00  0.00     0.168 HD
HETATM   30  N3  UNL     1      82.034  32.289  15.071  1.00  0.00    -0.063 NA
HETATM   31  N4  UNL     1      84.343  32.082  14.675  1.00  0.00    -0.340 N 
HETATM   32  C21 UNL     1      85.538  32.482  14.239  1.00  0.00     0.104 A 
ATOM     33  H4  UNL     1      84.264  31.166  15.117  1.00  0.00     0.167 HD
HETATM   34  C23 UNL     1      86.796  34.216  13.184  1.00  0.00     0.027 A 
ENDBRANCH   7  22
TORSDOF 4
ENDMDL
