MODEL 5
REMARK VINA RESULT: -12.057628578      1.463      2.396
REMARK  4 active torsions:
REMARK  status: ('A' for Active; 'I' for Inactive)
REMARK    1  A    between atoms: C5_5  and  C6_6 
REMARK       I    between atoms: C6_6  and  N1_8 
REMARK    2  A    between atoms: N1_8  and  C7_10 
REMARK    3  A    between atoms: C11_14  and  C12_15 
REMARK    4  A    between atoms: C15_21  and  C16_22 
ROOT
HETATM    1  C1  UNL     1      89.245  42.134  10.740  1.00  0.00     0.049 C 
HETATM    2  C2  UNL     1      89.663  42.465  12.125  1.00  0.00    -0.051 A 
HETATM    3  C3  UNL     1      89.965  43.800  12.445  1.00  0.00     0.009 A 
HETATM    4  C4  UNL     1      90.344  44.152  13.715  1.00  0.00     0.017 A 
HETATM    5  C5  UNL     1      90.447  43.213  14.735  1.00  0.00     0.033 A 
HETATM    6  C14 UNL     1      90.153  41.915  14.419  1.00  0.00     0.029 A 
HETATM    7  C15 UNL     1      89.759  41.530  13.118  1.00  0.00    -0.019 A 
ENDROOT
BRANCH   5   8
HETATM    8  C6  UNL     1      90.873  43.635  16.080  1.00  0.00     0.256 C 
HETATM    9  O1  UNL     1      90.180  44.421  16.701  1.00  0.00    -0.267 OA
HETATM   10  N1  UNL     1      92.078  43.136  16.651  1.00  0.00    -0.323 N 
ATOM     11  H1  UNL     1      92.609  42.470  16.090  1.00  0.00     0.169 HD
BRANCH  10  12
HETATM   12  C7  UNL     1      92.609  43.467  17.907  1.00  0.00     0.035 A 
HETATM   13  C8  UNL     1      93.832  42.956  18.297  1.00  0.00     0.029 A 
HETATM   14  C9  UNL     1      94.407  43.285  19.524  1.00  0.00     0.003 A 
HETATM   15  C10 UNL     1      93.761  44.139  20.382  1.00  0.00     0.016 A 
HETATM   16  C11 UNL     1      92.542  44.661  20.013  1.00  0.00     0.050 A 
HETATM   17  C13 UNL     1      91.980  44.317  18.776  1.00  0.00     0.045 A 
BRANCH  16  18
HETATM   18  C12 UNL     1      91.821  45.584  20.926  1.00  0.00     0.417 C 
HETATM   19  F1  UNL     1      90.810  46.214  20.200  1.00  0.00    -0.166 F 
HETATM   20  F2  UNL     1      91.300  44.927  22.028  1.00  0.00    -0.166 F 
HETATM   21  F3  UNL     1      92.703  46.554  21.358  1.00  0.00    -0.166 F 
ENDBRANCH  16  18
ENDBRANCH  10  12
ENDBRANCH   5   8
BRANCH   7  22
HETATM   22  C16 UNL     1      89.481  40.138  12.821  1.00  0.00    -0.024 A 
HETATM   23  C17 UNL     1      88.212  39.590  13.075  1.00  0.00     0.014 A 
HETATM   24  C18 UNL     1      87.951  38.255  12.817  1.00  0.00     0.031 A 
HETATM   25  C19 UNL     1      88.927  37.418  12.304  1.00  0.00     0.046 A 
HETATM   26  N2  UNL     1      88.729  36.104  12.043  1.00  0.00    -0.330 N 
HETATM   27  C22 UNL     1      90.179  37.929  12.045  1.00  0.00     0.007 A 
HETATM   28  C20 UNL     1      89.732  35.341  11.552  1.00  0.00     0.192 A 
ATOM     29  H2  UNL     1      87.816  35.686  12.219  1.00  0.00     0.168 HD
HETATM   30  N3  UNL     1      89.590  33.955  11.269  1.00  0.00    -0.063 NA
HETATM   31  N4  UNL     1      90.949  35.874  11.312  1.00  0.00    -0.340 N 
HETATM   32  C21 UNL     1      91.224  37.159  11.539  1.00  0.00     0.104 A 
ATOM     33  H4  UNL     1      91.685  35.273  10.942  1.00  0.00     0.167 HD
HETATM   34  C23 UNL     1      90.406  39.264  12.312  1.00  0.00     0.027 A 
ENDBRANCH   7  22
TORSDOF 4
ENDMDL
