MODEL 7
REMARK VINA RESULT: -11.471904389      6.376     10.948
REMARK  4 active torsions:
REMARK  status: ('A' for Active; 'I' for Inactive)
REMARK    1  A    between atoms: C5_5  and  C6_6 
REMARK       I    between atoms: C6_6  and  N1_8 
REMARK    2  A    between atoms: N1_8  and  C7_10 
REMARK    3  A    between atoms: C11_14  and  C12_15 
REMARK    4  A    between atoms: C15_21  and  C16_22 
ROOT
HETATM    1  C1  UNL     1      91.054  36.551  11.113  1.00  0.00     0.049 C 
HETATM    2  C2  UNL     1      89.902  35.854  11.739  1.00  0.00    -0.051 A 
HETATM    3  C3  UNL     1      89.802  34.458  11.615  1.00  0.00     0.009 A 
HETATM    4  C4  UNL     1      88.762  33.772  12.187  1.00  0.00     0.017 A 
HETATM    5  C5  UNL     1      87.766  34.421  12.910  1.00  0.00     0.033 A 
HETATM    6  C14 UNL     1      87.867  35.780  13.027  1.00  0.00     0.029 A 
HETATM    7  C15 UNL     1      88.931  36.506  12.447  1.00  0.00    -0.019 A 
ENDROOT
BRANCH   5   8
HETATM    8  C6  UNL     1      86.659  33.645  13.493  1.00  0.00     0.256 C 
HETATM    9  O1  UNL     1      86.761  32.433  13.568  1.00  0.00    -0.267 OA
HETATM   10  N1  UNL     1      85.483  34.295  13.962  1.00  0.00    -0.323 N 
ATOM     11  H1  UNL     1      85.461  35.312  13.885  1.00  0.00     0.169 HD
BRANCH  10  12
HETATM   12  C7  UNL     1      84.352  33.680  14.519  1.00  0.00     0.035 A 
HETATM   13  C8  UNL     1      83.377  33.150  13.695  1.00  0.00     0.029 A 
HETATM   14  C9  UNL     1      82.254  32.503  14.209  1.00  0.00     0.003 A 
HETATM   15  C10 UNL     1      82.091  32.376  15.566  1.00  0.00     0.016 A 
HETATM   16  C11 UNL     1      83.051  32.896  16.406  1.00  0.00     0.050 A 
HETATM   17  C13 UNL     1      84.172  33.543  15.869  1.00  0.00     0.045 A 
BRANCH  16  18
HETATM   18  C12 UNL     1      82.895  32.775  17.877  1.00  0.00     0.417 C 
HETATM   19  F1  UNL     1      84.166  32.666  18.442  1.00  0.00    -0.166 F 
HETATM   20  F2  UNL     1      82.206  33.846  18.419  1.00  0.00    -0.166 F 
HETATM   21  F3  UNL     1      82.205  31.612  18.153  1.00  0.00    -0.166 F 
ENDBRANCH  16  18
ENDBRANCH  10  12
ENDBRANCH   5   8
BRANCH   7  22
HETATM   22  C16 UNL     1      88.986  37.950  12.576  1.00  0.00    -0.024 A 
HETATM   23  C17 UNL     1      88.331  38.778  11.648  1.00  0.00     0.014 A 
HETATM   24  C18 UNL     1      88.403  40.157  11.753  1.00  0.00     0.031 A 
HETATM   25  C19 UNL     1      89.120  40.764  12.770  1.00  0.00     0.046 A 
HETATM   26  N2  UNL     1      89.233  42.105  12.913  1.00  0.00    -0.330 N 
HETATM   27  C22 UNL     1      89.770  39.976  13.693  1.00  0.00     0.007 A 
HETATM   28  C20 UNL     1      89.959  42.631  13.925  1.00  0.00     0.192 A 
ATOM     29  H2  UNL     1      88.765  42.725  12.252  1.00  0.00     0.168 HD
HETATM   30  N3  UNL     1      90.125  44.030  14.122  1.00  0.00    -0.063 NA
HETATM   31  N4  UNL     1      90.586  41.829  14.812  1.00  0.00    -0.340 N 
HETATM   32  C21 UNL     1      90.523  40.499  14.742  1.00  0.00     0.104 A 
ATOM     33  H4  UNL     1      91.128  42.256  15.564  1.00  0.00     0.167 HD
HETATM   34  C23 UNL     1      89.678  38.605  13.561  1.00  0.00     0.027 A 
ENDBRANCH   7  22
TORSDOF 4
ENDMDL
