MODEL 2
REMARK VINA RESULT: -13.780579963      0.593      1.540
REMARK  4 active torsions:
REMARK  status: ('A' for Active; 'I' for Inactive)
REMARK    1  A    between atoms: C5_5  and  C6_6 
REMARK       I    between atoms: C6_6  and  N1_8 
REMARK    2  A    between atoms: N1_8  and  C7_10 
REMARK    3  A    between atoms: C11_14  and  C12_15 
REMARK    4  A    between atoms: C15_21  and  C16_22 
ROOT
HETATM    1  C1  UNL     1      88.908  41.771  10.702  1.00  0.00     0.049 C 
HETATM    2  C2  UNL     1      89.414  42.056  12.068  1.00  0.00    -0.051 A 
HETATM    3  C3  UNL     1      89.759  43.376  12.405  1.00  0.00     0.009 A 
HETATM    4  C4  UNL     1      90.220  43.686  13.659  1.00  0.00     0.017 A 
HETATM    5  C5  UNL     1      90.366  42.717  14.646  1.00  0.00     0.033 A 
HETATM    6  C14 UNL     1      90.029  41.434  14.313  1.00  0.00     0.029 A 
HETATM    7  C15 UNL     1      89.551  41.092  13.028  1.00  0.00    -0.019 A 
ENDROOT
BRANCH   5   8
HETATM    8  C6  UNL     1      90.879  43.094  15.973  1.00  0.00     0.256 C 
HETATM    9  O1  UNL     1      91.319  42.227  16.707  1.00  0.00    -0.267 OA
HETATM   10  N1  UNL     1      90.861  44.452  16.401  1.00  0.00    -0.323 N 
ATOM     11  H1  UNL     1      90.493  45.136  15.739  1.00  0.00     0.169 HD
BRANCH  10  12
HETATM   12  C7  UNL     1      91.298  44.945  17.640  1.00  0.00     0.035 A 
HETATM   13  C8  UNL     1      90.485  45.789  18.374  1.00  0.00     0.029 A 
HETATM   14  C9  UNL     1      90.870  46.275  19.622  1.00  0.00     0.003 A 
HETATM   15  C10 UNL     1      92.082  45.919  20.158  1.00  0.00     0.016 A 
HETATM   16  C11 UNL     1      92.908  45.079  19.444  1.00  0.00     0.050 A 
HETATM   17  C13 UNL     1      92.502  44.602  18.190  1.00  0.00     0.045 A 
BRANCH  16  18
HETATM   18  C12 UNL     1      94.226  44.683  20.001  1.00  0.00     0.417 C 
HETATM   19  F1  UNL     1      94.374  43.306  19.832  1.00  0.00    -0.166 F 
HETATM   20  F2  UNL     1      95.271  45.367  19.404  1.00  0.00    -0.166 F 
HETATM   21  F3  UNL     1      94.231  44.949  21.355  1.00  0.00    -0.166 F 
ENDBRANCH  16  18
ENDBRANCH  10  12
ENDBRANCH   5   8
BRANCH   7  22
HETATM   22  C16 UNL     1      89.230  39.714  12.711  1.00  0.00    -0.024 A 
HETATM   23  C17 UNL     1      87.938  39.209  12.938  1.00  0.00     0.014 A 
HETATM   24  C18 UNL     1      87.635  37.886  12.661  1.00  0.00     0.031 A 
HETATM   25  C19 UNL     1      88.590  37.021  12.155  1.00  0.00     0.046 A 
HETATM   26  N2  UNL     1      88.351  35.718  11.877  1.00  0.00    -0.330 N 
HETATM   27  C22 UNL     1      89.863  37.490  11.923  1.00  0.00     0.007 A 
HETATM   28  C20 UNL     1      89.335  34.925  11.394  1.00  0.00     0.192 A 
ATOM     29  H2  UNL     1      87.421  35.330  12.033  1.00  0.00     0.168 HD
HETATM   30  N3  UNL     1      89.150  33.547  11.094  1.00  0.00    -0.063 NA
HETATM   31  N4  UNL     1      90.574  35.417  11.180  1.00  0.00    -0.340 N 
HETATM   32  C21 UNL     1      90.889  36.689  11.427  1.00  0.00     0.104 A 
ATOM     33  H4  UNL     1      91.295  34.794  10.817  1.00  0.00     0.167 HD
HETATM   34  C23 UNL     1      90.132  38.814  12.209  1.00  0.00     0.027 A 
ENDBRANCH   7  22
TORSDOF 4
ENDMDL
