MODEL 1
REMARK VINA RESULT: -13.798358411      0.000      0.000
REMARK  4 active torsions:
REMARK  status: ('A' for Active; 'I' for Inactive)
REMARK    1  A    between atoms: C5_5  and  C6_6 
REMARK       I    between atoms: C6_6  and  N1_8 
REMARK    2  A    between atoms: N1_8  and  C7_10 
REMARK    3  A    between atoms: C11_14  and  C12_15 
REMARK    4  A    between atoms: C15_21  and  C16_22 
ROOT
HETATM    1  C1  UNL     1      89.061  41.677  10.818  1.00  0.00     0.049 C 
HETATM    2  C2  UNL     1      89.564  41.994  12.178  1.00  0.00    -0.051 A 
HETATM    3  C3  UNL     1      89.698  43.341  12.557  1.00  0.00     0.009 A 
HETATM    4  C4  UNL     1      90.149  43.679  13.808  1.00  0.00     0.017 A 
HETATM    5  C5  UNL     1      90.491  42.714  14.749  1.00  0.00     0.033 A 
HETATM    6  C14 UNL     1      90.359  41.405  14.375  1.00  0.00     0.029 A 
HETATM    7  C15 UNL     1      89.896  41.034  13.093  1.00  0.00    -0.019 A 
ENDROOT
BRANCH   5   8
HETATM    8  C6  UNL     1      90.985  43.125  16.074  1.00  0.00     0.256 C 
HETATM    9  O1  UNL     1      91.545  42.303  16.778  1.00  0.00    -0.267 OA
HETATM   10  N1  UNL     1      90.812  44.462  16.532  1.00  0.00    -0.323 N 
ATOM     11  H1  UNL     1      90.348  45.108  15.893  1.00  0.00     0.169 HD
BRANCH  10  12
HETATM   12  C7  UNL     1      91.214  44.980  17.772  1.00  0.00     0.035 A 
HETATM   13  C8  UNL     1      90.406  45.882  18.439  1.00  0.00     0.029 A 
HETATM   14  C9  UNL     1      90.756  46.396  19.687  1.00  0.00     0.003 A 
HETATM   15  C10 UNL     1      91.926  46.010  20.290  1.00  0.00     0.016 A 
HETATM   16  C11 UNL     1      92.746  45.112  19.643  1.00  0.00     0.050 A 
HETATM   17  C13 UNL     1      92.377  44.607  18.389  1.00  0.00     0.045 A 
BRANCH  16  18
HETATM   18  C12 UNL     1      94.020  44.682  20.273  1.00  0.00     0.417 C 
HETATM   19  F1  UNL     1      95.072  45.277  19.577  1.00  0.00    -0.166 F 
HETATM   20  F2  UNL     1      94.073  45.007  21.618  1.00  0.00    -0.166 F 
HETATM   21  F3  UNL     1      94.140  43.314  20.137  1.00  0.00    -0.166 F 
ENDBRANCH  16  18
ENDBRANCH  10  12
ENDBRANCH   5   8
BRANCH   7  22
HETATM   22  C16 UNL     1      89.796  39.633  12.730  1.00  0.00    -0.024 A 
HETATM   23  C17 UNL     1      90.895  38.955  12.177  1.00  0.00     0.014 A 
HETATM   24  C18 UNL     1      90.795  37.625  11.805  1.00  0.00     0.031 A 
HETATM   25  C19 UNL     1      89.613  36.922  11.964  1.00  0.00     0.046 A 
HETATM   26  N2  UNL     1      89.456  35.625  11.607  1.00  0.00    -0.330 N 
HETATM   27  C22 UNL     1      88.520  37.562  12.504  1.00  0.00     0.007 A 
HETATM   28  C20 UNL     1      88.268  35.002  11.781  1.00  0.00     0.192 A 
ATOM     29  H2  UNL     1      90.241  35.113  11.205  1.00  0.00     0.168 HD
HETATM   30  N3  UNL     1      88.038  33.647  11.416  1.00  0.00    -0.063 NA
HETATM   31  N4  UNL     1      87.216  35.660  12.312  1.00  0.00    -0.340 N 
HETATM   32  C21 UNL     1      87.289  36.937  12.690  1.00  0.00     0.104 A 
ATOM     33  H4  UNL     1      86.333  35.164  12.429  1.00  0.00     0.167 HD
HETATM   34  C23 UNL     1      88.654  38.888  12.865  1.00  0.00     0.027 A 
ENDBRANCH   7  22
TORSDOF 4
ENDMDL
