MODEL 6
REMARK VINA RESULT: -7.890348996      5.019     13.190
REMARK  9 active torsions:
REMARK  status: ('A' for Active; 'I' for Inactive)
REMARK    1  A    between atoms: C7_16  and  C8_17 
REMARK    2  A    between atoms: C8_17  and  N6_18 
REMARK    3  A    between atoms: N6_18  and  C9_20 
REMARK    4  A    between atoms: C12_23  and  C13_24 
REMARK       I    between atoms: C13_24  and  N7_26 
REMARK    5  A    between atoms: N7_26  and  C14_28 
REMARK    6  A    between atoms: C14_28  and  C15_29 
REMARK    7  A    between atoms: C14_28  and  C18_34 
REMARK    8  A    between atoms: C15_29  and  C16_30 
REMARK    9  A    between atoms: C16_30  and  C17_31 
ROOT
HETATM    1  C9  UNL     1     -11.630  78.234 119.333  1.00  0.00     0.028 A 
HETATM    2  C10 UNL     1     -12.158  78.251 120.603  1.00  0.00     0.030 A 
HETATM    3  C11 UNL     1     -13.430  78.781 120.853  1.00  0.00     0.019 A 
HETATM    4  C12 UNL     1     -14.147  79.286 119.806  1.00  0.00     0.032 A 
HETATM    5  C19 UNL     1     -13.604  79.261 118.530  1.00  0.00     0.019 A 
HETATM    6  C20 UNL     1     -12.343  78.740 118.264  1.00  0.00     0.030 A 
ENDROOT
BRANCH   1   7
HETATM    7  N6  UNL     1     -10.335  77.683 119.157  1.00  0.00    -0.388 N 
ATOM      8  H6  UNL     1      -9.560  78.048 119.711  1.00  0.00     0.159 HD
BRANCH   7   9
HETATM    9  C8  UNL     1     -10.085  76.617 118.213  1.00  0.00     0.146 C 
BRANCH   9  10
HETATM   10  C7  UNL     1      -9.076  75.652 118.813  1.00  0.00     0.119 C 
HETATM   11  N1  UNL     1      -9.144  74.337 118.265  1.00  0.00    -0.370 N 
HETATM   12  C1  UNL     1      -9.139  74.182 116.819  1.00  0.00     0.150 C 
HETATM   13  C2  UNL     1      -9.216  73.178 119.051  1.00  0.00     0.143 A 
HETATM   14  C3  UNL     1      -9.594  73.268 120.372  1.00  0.00     0.136 A 
HETATM   15  C5  UNL     1      -8.920  71.917 118.555  1.00  0.00     0.278 A 
HETATM   16  N2  UNL     1      -9.684  72.186 121.181  1.00  0.00    -0.315 N 
HETATM   17  N5  UNL     1      -9.899  74.583 120.872  1.00  0.00    -0.372 N 
HETATM   18  C4  UNL     1      -9.393  70.970 120.687  1.00  0.00     0.196 A 
ATOM     19  H2  UNL     1      -9.968  72.293 122.155  1.00  0.00     0.170 HD
HETATM   20  N3  UNL     1      -9.468  69.804 121.484  1.00  0.00    -0.063 NA
HETATM   21  N4  UNL     1      -9.019  70.870 119.389  1.00  0.00    -0.295 N 
ATOM     22  H4  UNL     1      -8.801  69.943 119.023  1.00  0.00     0.171 HD
HETATM   23  C6  UNL     1      -9.224  75.713 120.297  1.00  0.00     0.148 C 
ATOM     24  H5  UNL     1     -10.582  74.710 121.619  1.00  0.00     0.161 HD
HETATM   25  O1  UNL     1      -8.573  71.787 117.366  1.00  0.00    -0.265 OA
ENDBRANCH   9  10
ENDBRANCH   7   9
ENDBRANCH   1   7
BRANCH   4  26
HETATM   26  C13 UNL     1     -15.466  79.843 120.007  1.00  0.00     0.252 C 
HETATM   27  O2  UNL     1     -16.514  79.263 119.592  1.00  0.00    -0.268 OA
HETATM   28  N7  UNL     1     -15.620  81.074 120.683  1.00  0.00    -0.342 N 
ATOM     29  H7  UNL     1     -14.804  81.575 121.034  1.00  0.00     0.163 HD
BRANCH  28  30
HETATM   30  C14 UNL     1     -16.972  81.624 120.876  1.00  0.00     0.186 C 
BRANCH  30  31
HETATM   31  C15 UNL     1     -17.270  81.481 122.328  1.00  0.00     0.046 C 
BRANCH  31  32
HETATM   32  C16 UNL     1     -16.028  81.361 123.167  1.00  0.00     0.116 C 
BRANCH  32  33
HETATM   33  C17 UNL     1     -15.848  82.623 123.922  1.00  0.00     0.172 C 
HETATM   34  O3  UNL     1     -15.257  83.587 123.409  1.00  0.00    -0.648 OA
HETATM   35  O4  UNL     1     -16.341  82.720 125.202  1.00  0.00    -0.648 OA
ENDBRANCH  32  33
ENDBRANCH  31  32
ENDBRANCH  30  31
BRANCH  30  36
HETATM   36  C18 UNL     1     -17.048  82.964 120.311  1.00  0.00     0.196 C 
HETATM   37  O5  UNL     1     -18.113  83.656 120.346  1.00  0.00    -0.646 OA
HETATM   38  O6  UNL     1     -15.952  83.542 119.710  1.00  0.00    -0.646 OA
ENDBRANCH  30  36
ENDBRANCH  28  30
ENDBRANCH   4  26
TORSDOF 9
ENDMDL
