MODEL 4
REMARK VINA RESULT: -8.001804044      3.984      6.602
REMARK  9 active torsions:
REMARK  status: ('A' for Active; 'I' for Inactive)
REMARK    1  A    between atoms: C7_16  and  C8_17 
REMARK    2  A    between atoms: C8_17  and  N6_18 
REMARK    3  A    between atoms: N6_18  and  C9_20 
REMARK    4  A    between atoms: C12_23  and  C13_24 
REMARK       I    between atoms: C13_24  and  N7_26 
REMARK    5  A    between atoms: N7_26  and  C14_28 
REMARK    6  A    between atoms: C14_28  and  C15_29 
REMARK    7  A    between atoms: C14_28  and  C18_34 
REMARK    8  A    between atoms: C15_29  and  C16_30 
REMARK    9  A    between atoms: C16_30  and  C17_31 
ROOT
HETATM    1  C9  UNL     1     -11.847  76.065 121.102  1.00  0.00     0.028 A 
HETATM    2  C10 UNL     1     -10.545  75.730 120.809  1.00  0.00     0.030 A 
HETATM    3  C11 UNL     1     -10.241  74.583 120.066  1.00  0.00     0.019 A 
HETATM    4  C12 UNL     1     -11.266  73.792 119.631  1.00  0.00     0.032 A 
HETATM    5  C19 UNL     1     -12.574  74.142 119.932  1.00  0.00     0.019 A 
HETATM    6  C20 UNL     1     -12.894  75.277 120.670  1.00  0.00     0.030 A 
ENDROOT
BRANCH   1   7
HETATM    7  N6  UNL     1     -12.077  77.242 121.861  1.00  0.00    -0.388 N 
ATOM      8  H6  UNL     1     -11.738  77.288 122.822  1.00  0.00     0.159 HD
BRANCH   7   9
HETATM    9  C8  UNL     1     -12.781  78.377 121.307  1.00  0.00     0.146 C 
BRANCH   9  10
HETATM   10  C7  UNL     1     -14.183  78.420 121.890  1.00  0.00     0.119 C 
HETATM   11  N1  UNL     1     -14.819  79.691 121.760  1.00  0.00    -0.370 N 
HETATM   12  C1  UNL     1     -14.832  80.334 120.456  1.00  0.00     0.150 C 
HETATM   13  C2  UNL     1     -15.435  80.357 122.828  1.00  0.00     0.143 A 
HETATM   14  C3  UNL     1     -15.140  79.995 124.124  1.00  0.00     0.136 A 
HETATM   15  C5  UNL     1     -16.348  81.385 122.644  1.00  0.00     0.278 A 
HETATM   16  N2  UNL     1     -15.701  80.599 125.197  1.00  0.00    -0.315 N 
HETATM   17  N5  UNL     1     -14.191  78.927 124.298  1.00  0.00    -0.372 N 
HETATM   18  C4  UNL     1     -16.585  81.595 125.003  1.00  0.00     0.196 A 
ATOM     19  H2  UNL     1     -15.457  80.303 126.141  1.00  0.00     0.170 HD
HETATM   20  N3  UNL     1     -17.203  82.263 126.085  1.00  0.00    -0.063 NA
HETATM   21  N4  UNL     1     -16.883  81.959 123.733  1.00  0.00    -0.295 N 
ATOM     22  H4  UNL     1     -17.554  82.714 123.596  1.00  0.00     0.171 HD
HETATM   23  C6  UNL     1     -14.105  77.907 123.289  1.00  0.00     0.148 C 
ATOM     24  H5  UNL     1     -13.591  78.894 125.123  1.00  0.00     0.161 HD
HETATM   25  O1  UNL     1     -16.646  81.746 121.490  1.00  0.00    -0.265 OA
ENDBRANCH   9  10
ENDBRANCH   7   9
ENDBRANCH   1   7
BRANCH   4  26
HETATM   26  C13 UNL     1     -11.010  72.597 118.859  1.00  0.00     0.252 C 
HETATM   27  O2  UNL     1     -11.894  72.067 118.123  1.00  0.00    -0.268 OA
HETATM   28  N7  UNL     1      -9.740  71.981 118.908  1.00  0.00    -0.342 N 
ATOM     29  H7  UNL     1      -8.997  72.374 119.487  1.00  0.00     0.163 HD
BRANCH  28  30
HETATM   30  C14 UNL     1      -9.500  70.764 118.115  1.00  0.00     0.186 C 
BRANCH  30  31
HETATM   31  C15 UNL     1      -8.323  71.061 117.252  1.00  0.00     0.046 C 
BRANCH  31  32
HETATM   32  C16 UNL     1      -8.585  72.177 116.278  1.00  0.00     0.116 C 
BRANCH  32  33
HETATM   33  C17 UNL     1      -9.492  71.673 115.220  1.00  0.00     0.172 C 
HETATM   34  O3  UNL     1     -10.616  72.175 115.062  1.00  0.00    -0.648 OA
HETATM   35  O4  UNL     1      -9.079  70.641 114.412  1.00  0.00    -0.648 OA
ENDBRANCH  32  33
ENDBRANCH  31  32
ENDBRANCH  30  31
BRANCH  30  36
HETATM   36  C18 UNL     1      -9.402  69.608 118.995  1.00  0.00     0.196 C 
HETATM   37  O5  UNL     1      -9.571  69.696 120.252  1.00  0.00    -0.646 OA
HETATM   38  O6  UNL     1      -9.123  68.357 118.493  1.00  0.00    -0.646 OA
ENDBRANCH  30  36
ENDBRANCH  28  30
ENDBRANCH   4  26
TORSDOF 9
ENDMDL
