MODEL 5
REMARK VINA RESULT: -7.965361438      4.534     13.599
REMARK  9 active torsions:
REMARK  status: ('A' for Active; 'I' for Inactive)
REMARK    1  A    between atoms: C7_16  and  C8_17 
REMARK    2  A    between atoms: C8_17  and  N6_18 
REMARK    3  A    between atoms: N6_18  and  C9_20 
REMARK    4  A    between atoms: C12_23  and  C13_24 
REMARK       I    between atoms: C13_24  and  N7_26 
REMARK    5  A    between atoms: N7_26  and  C14_28 
REMARK    6  A    between atoms: C14_28  and  C15_29 
REMARK    7  A    between atoms: C14_28  and  C18_34 
REMARK    8  A    between atoms: C15_29  and  C16_30 
REMARK    9  A    between atoms: C16_30  and  C17_31 
ROOT
HETATM    1  C9  UNL     1     -11.423  76.941 120.540  1.00  0.00     0.028 A 
HETATM    2  C10 UNL     1     -12.059  76.850 121.756  1.00  0.00     0.030 A 
HETATM    3  C11 UNL     1     -13.120  77.703 122.087  1.00  0.00     0.019 A 
HETATM    4  C12 UNL     1     -13.519  78.636 121.173  1.00  0.00     0.032 A 
HETATM    5  C19 UNL     1     -12.871  78.717 119.950  1.00  0.00     0.019 A 
HETATM    6  C20 UNL     1     -11.816  77.879 119.605  1.00  0.00     0.030 A 
ENDROOT
BRANCH   1   7
HETATM    7  N6  UNL     1     -10.356  76.045 120.277  1.00  0.00    -0.388 N 
ATOM      8  H6  UNL     1      -9.750  75.755 121.044  1.00  0.00     0.159 HD
BRANCH   7   9
HETATM    9  C8  UNL     1     -10.105  75.531 118.949  1.00  0.00     0.146 C 
BRANCH   9  10
HETATM   10  C7  UNL     1      -9.046  74.446 119.031  1.00  0.00     0.119 C 
HETATM   11  N1  UNL     1      -9.032  73.571 117.904  1.00  0.00    -0.370 N 
HETATM   12  C1  UNL     1      -9.006  74.152 116.571  1.00  0.00     0.150 C 
HETATM   13  C2  UNL     1      -9.041  72.174 118.013  1.00  0.00     0.143 A 
HETATM   14  C3  UNL     1      -9.434  71.580 119.192  1.00  0.00     0.136 A 
HETATM   15  C5  UNL     1      -8.666  71.338 116.971  1.00  0.00     0.278 A 
HETATM   16  N2  UNL     1      -9.465  70.238 119.359  1.00  0.00    -0.315 N 
HETATM   17  N5  UNL     1      -9.820  72.460 120.264  1.00  0.00    -0.372 N 
HETATM   18  C4  UNL     1      -9.099  69.440 118.340  1.00  0.00     0.196 A 
ATOM     19  H2  UNL     1      -9.763  69.835 120.247  1.00  0.00     0.170 HD
HETATM   20  N3  UNL     1      -9.111  68.030 118.456  1.00  0.00    -0.063 NA
HETATM   21  N4  UNL     1      -8.710  70.012 117.176  1.00  0.00    -0.295 N 
ATOM     22  H4  UNL     1      -8.434  69.399 116.409  1.00  0.00     0.171 HD
HETATM   23  C6  UNL     1      -9.208  73.758 120.346  1.00  0.00     0.148 C 
ATOM     24  H5  UNL     1     -10.515  72.169 120.951  1.00  0.00     0.161 HD
HETATM   25  O1  UNL     1      -8.303  71.830 115.886  1.00  0.00    -0.265 OA
ENDBRANCH   9  10
ENDBRANCH   7   9
ENDBRANCH   1   7
BRANCH   4  26
HETATM   26  C13 UNL     1     -14.610  79.541 121.461  1.00  0.00     0.252 C 
HETATM   27  O2  UNL     1     -15.609  79.660 120.690  1.00  0.00    -0.268 OA
HETATM   28  N7  UNL     1     -14.586  80.329 122.633  1.00  0.00    -0.342 N 
ATOM     29  H7  UNL     1     -13.802  80.265 123.283  1.00  0.00     0.163 HD
BRANCH  28  30
HETATM   30  C14 UNL     1     -15.706  81.245 122.907  1.00  0.00     0.186 C 
BRANCH  30  31
HETATM   31  C15 UNL     1     -16.007  81.104 124.358  1.00  0.00     0.046 C 
BRANCH  31  32
HETATM   32  C16 UNL     1     -16.578  82.359 124.958  1.00  0.00     0.116 C 
BRANCH  32  33
HETATM   33  C17 UNL     1     -17.203  82.017 126.257  1.00  0.00     0.172 C 
HETATM   34  O3  UNL     1     -18.259  82.565 126.613  1.00  0.00    -0.648 OA
HETATM   35  O4  UNL     1     -16.602  81.086 127.070  1.00  0.00    -0.648 OA
ENDBRANCH  32  33
ENDBRANCH  31  32
ENDBRANCH  30  31
BRANCH  30  36
HETATM   36  C18 UNL     1     -15.387  82.580 122.421  1.00  0.00     0.196 C 
HETATM   37  O5  UNL     1     -14.311  83.178 122.739  1.00  0.00    -0.646 OA
HETATM   38  O6  UNL     1     -16.248  83.254 121.584  1.00  0.00    -0.646 OA
ENDBRANCH  30  36
ENDBRANCH  28  30
ENDBRANCH   4  26
TORSDOF 9
ENDMDL
