MODEL 6
REMARK VINA RESULT: -7.117743734      2.783      5.408
REMARK  7 active torsions:
REMARK  status: ('A' for Active; 'I' for Inactive)
REMARK    1  A    between atoms: N1_1  and  C1_5 
REMARK    2  A    between atoms: C1_5  and  C2_6 
REMARK    3  A    between atoms: C1_5  and  C16_22 
REMARK    4  A    between atoms: C2_6  and  C3_7 
REMARK    5  A    between atoms: C3_7  and  C4_8 
REMARK    6  A    between atoms: C3_7  and  C15_19 
REMARK    7  A    between atoms: C4_8  and  C5_9 
ROOT
HETATM    1  C3  UNL     1      37.601  39.002  69.651  1.00  0.00     0.093 C 
ENDROOT
BRANCH   1   2
HETATM    2  C2  UNL     1      37.489  39.745  68.376  1.00  0.00     0.059 C 
BRANCH   2   3
HETATM    3  C1  UNL     1      36.647  39.206  67.293  1.00  0.00     0.284 C 
BRANCH   3   4
HETATM    4  N1  UNL     1      35.271  39.573  67.281  1.00  0.00    -0.065 N 
ATOM      5  H13 UNL     1      34.749  38.941  67.889  1.00  0.00     0.275 HD
ATOM      6  H12 UNL     1      35.154  40.457  67.777  1.00  0.00     0.275 HD
ATOM      7  H11 UNL     1      34.805  39.631  66.376  1.00  0.00     0.275 HD
ENDBRANCH   3   4
BRANCH   3   8
HETATM    8  C16 UNL     1      37.300  39.347  65.962  1.00  0.00     0.204 C 
HETATM    9  O3  UNL     1      38.409  38.856  65.683  1.00  0.00    -0.646 OA
HETATM   10  O4  UNL     1      36.625  40.065  64.995  1.00  0.00    -0.646 OA
ENDBRANCH   3   8
ENDBRANCH   2   3
ENDBRANCH   1   2
BRANCH   1  11
HETATM   11  C4  UNL     1      37.936  37.574  69.319  1.00  0.00     0.054 C 
BRANCH  11  12
HETATM   12  C5  UNL     1      39.177  37.061  69.843  1.00  0.00    -0.056 A 
HETATM   13  C6  UNL     1      39.691  35.801  69.615  1.00  0.00     0.008 A 
HETATM   14  C7  UNL     1      40.882  35.412  70.160  1.00  0.00     0.013 A 
HETATM   15  C8  UNL     1      41.629  36.264  70.964  1.00  0.00    -0.026 A 
HETATM   16  C9  UNL     1      42.829  35.874  71.514  1.00  0.00     0.012 A 
HETATM   17  C13 UNL     1      41.122  37.539  71.203  1.00  0.00    -0.025 A 
HETATM   18  C10 UNL     1      43.577  36.710  72.313  1.00  0.00     0.001 A 
HETATM   19  C11 UNL     1      43.080  37.978  72.554  1.00  0.00     0.001 A 
HETATM   20  C12 UNL     1      41.887  38.367  72.009  1.00  0.00     0.012 A 
HETATM   21  C14 UNL     1      39.931  37.903  70.647  1.00  0.00     0.019 A 
ENDBRANCH  11  12
ENDBRANCH   1  11
BRANCH   1  22
HETATM   22  C15 UNL     1      36.420  39.030  70.539  1.00  0.00     0.177 C 
HETATM   23  O1  UNL     1      36.363  38.253  71.545  1.00  0.00    -0.648 OA
HETATM   24  O2  UNL     1      35.313  39.847  70.390  1.00  0.00    -0.648 OA
ENDBRANCH   1  22
TORSDOF 7
ENDMDL
