MODEL 13
REMARK VINA RESULT: -6.916015054      2.863      4.327
REMARK  7 active torsions:
REMARK  status: ('A' for Active; 'I' for Inactive)
REMARK    1  A    between atoms: N1_1  and  C1_5 
REMARK    2  A    between atoms: C1_5  and  C2_6 
REMARK    3  A    between atoms: C1_5  and  C16_22 
REMARK    4  A    between atoms: C2_6  and  C3_7 
REMARK    5  A    between atoms: C3_7  and  C4_8 
REMARK    6  A    between atoms: C3_7  and  C15_19 
REMARK    7  A    between atoms: C4_8  and  C5_9 
ROOT
HETATM    1  C3  UNL     1      37.764  34.938  70.211  1.00  0.00     0.093 C 
ENDROOT
BRANCH   1   2
HETATM    2  C2  UNL     1      37.814  35.396  71.617  1.00  0.00     0.059 C 
BRANCH   2   3
HETATM    3  C1  UNL     1      36.761  36.291  72.127  1.00  0.00     0.284 C 
BRANCH   3   4
HETATM    4  N1  UNL     1      36.288  36.067  73.452  1.00  0.00    -0.065 N 
ATOM      5  H13 UNL     1      36.649  36.798  74.066  1.00  0.00     0.275 HD
ATOM      6  H12 UNL     1      35.288  36.263  73.489  1.00  0.00     0.275 HD
ATOM      7  H11 UNL     1      36.469  35.156  73.871  1.00  0.00     0.275 HD
ENDBRANCH   3   4
BRANCH   3   8
HETATM    8  C16 UNL     1      37.069  37.722  71.852  1.00  0.00     0.204 C 
HETATM    9  O3  UNL     1      38.218  38.199  71.890  1.00  0.00    -0.646 OA
HETATM   10  O4  UNL     1      36.011  38.552  71.540  1.00  0.00    -0.646 OA
ENDBRANCH   3   8
ENDBRANCH   2   3
ENDBRANCH   1   2
BRANCH   1  11
HETATM   11  C4  UNL     1      37.547  33.449  70.224  1.00  0.00     0.054 C 
BRANCH  11  12
HETATM   12  C5  UNL     1      36.312  32.969  69.658  1.00  0.00    -0.056 A 
HETATM   13  C6  UNL     1      36.069  32.745  68.318  1.00  0.00     0.008 A 
HETATM   14  C7  UNL     1      34.857  32.286  67.883  1.00  0.00     0.013 A 
HETATM   15  C8  UNL     1      33.818  32.024  68.767  1.00  0.00    -0.026 A 
HETATM   16  C9  UNL     1      32.596  31.562  68.332  1.00  0.00     0.012 A 
HETATM   17  C13 UNL     1      34.048  32.246  70.123  1.00  0.00    -0.025 A 
HETATM   18  C10 UNL     1      31.559  31.299  69.199  1.00  0.00     0.001 A 
HETATM   19  C11 UNL     1      31.781  31.517  70.546  1.00  0.00     0.001 A 
HETATM   20  C12 UNL     1      32.994  31.978  70.981  1.00  0.00     0.012 A 
HETATM   21  C14 UNL     1      35.267  32.704  70.531  1.00  0.00     0.019 A 
ENDBRANCH  11  12
ENDBRANCH   1  11
BRANCH   1  22
HETATM   22  C15 UNL     1      38.939  35.250  69.370  1.00  0.00     0.177 C 
HETATM   23  O1  UNL     1      39.211  34.521  68.363  1.00  0.00    -0.648 OA
HETATM   24  O2  UNL     1      39.821  36.297  69.568  1.00  0.00    -0.648 OA
ENDBRANCH   1  22
TORSDOF 7
ENDMDL
