MODEL 3
REMARK VINA RESULT: -7.271294369      3.220      5.453
REMARK  7 active torsions:
REMARK  status: ('A' for Active; 'I' for Inactive)
REMARK    1  A    between atoms: N1_1  and  C1_5 
REMARK    2  A    between atoms: C1_5  and  C2_6 
REMARK    3  A    between atoms: C1_5  and  C16_22 
REMARK    4  A    between atoms: C2_6  and  C3_7 
REMARK    5  A    between atoms: C3_7  and  C4_8 
REMARK    6  A    between atoms: C3_7  and  C15_19 
REMARK    7  A    between atoms: C4_8  and  C5_9 
ROOT
HETATM    1  C3  UNL     1      37.915  38.235  69.123  1.00  0.00     0.093 C 
ENDROOT
BRANCH   1   2
HETATM    2  C2  UNL     1      37.730  39.300  68.113  1.00  0.00     0.059 C 
BRANCH   2   3
HETATM    3  C1  UNL     1      36.669  39.164  67.099  1.00  0.00     0.284 C 
BRANCH   3   4
HETATM    4  N1  UNL     1      35.394  39.726  67.398  1.00  0.00    -0.065 N 
ATOM      5  H13 UNL     1      35.509  40.483  68.071  1.00  0.00     0.275 HD
ATOM      6  H12 UNL     1      35.055  40.241  66.585  1.00  0.00     0.275 HD
ATOM      7  H11 UNL     1      34.663  39.094  67.724  1.00  0.00     0.275 HD
ENDBRANCH   3   4
BRANCH   3   8
HETATM    8  C16 UNL     1      37.156  39.514  65.736  1.00  0.00     0.204 C 
HETATM    9  O3  UNL     1      36.468  40.117  64.893  1.00  0.00    -0.646 OA
HETATM   10  O4  UNL     1      38.444  39.143  65.406  1.00  0.00    -0.646 OA
ENDBRANCH   3   8
ENDBRANCH   2   3
ENDBRANCH   1   2
BRANCH   1  11
HETATM   11  C4  UNL     1      39.125  38.590  69.943  1.00  0.00     0.054 C 
BRANCH  11  12
HETATM   12  C5  UNL     1      38.944  38.650  71.372  1.00  0.00    -0.056 A 
HETATM   13  C6  UNL     1      39.906  38.371  72.321  1.00  0.00     0.008 A 
HETATM   14  C7  UNL     1      39.632  38.459  73.657  1.00  0.00     0.013 A 
HETATM   15  C8  UNL     1      38.377  38.833  74.119  1.00  0.00    -0.026 A 
HETATM   16  C9  UNL     1      38.097  38.923  75.465  1.00  0.00     0.012 A 
HETATM   17  C13 UNL     1      37.395  39.118  73.173  1.00  0.00    -0.025 A 
HETATM   18  C10 UNL     1      36.857  39.293  75.934  1.00  0.00     0.001 A 
HETATM   19  C11 UNL     1      35.878  39.576  75.000  1.00  0.00     0.001 A 
HETATM   20  C12 UNL     1      36.152  39.487  73.663  1.00  0.00     0.012 A 
HETATM   21  C14 UNL     1      37.695  39.022  71.846  1.00  0.00     0.019 A 
ENDBRANCH  11  12
ENDBRANCH   1  11
BRANCH   1  22
HETATM   22  C15 UNL     1      38.061  36.856  68.613  1.00  0.00     0.177 C 
HETATM   23  O1  UNL     1      37.558  35.882  69.259  1.00  0.00    -0.648 OA
HETATM   24  O2  UNL     1      38.720  36.488  67.453  1.00  0.00    -0.648 OA
ENDBRANCH   1  22
TORSDOF 7
ENDMDL
