MODEL 16
REMARK VINA RESULT: -6.829788282      2.652      4.187
REMARK  7 active torsions:
REMARK  status: ('A' for Active; 'I' for Inactive)
REMARK    1  A    between atoms: N1_1  and  C1_5 
REMARK    2  A    between atoms: C1_5  and  C2_6 
REMARK    3  A    between atoms: C1_5  and  C16_22 
REMARK    4  A    between atoms: C2_6  and  C3_7 
REMARK    5  A    between atoms: C3_7  and  C4_8 
REMARK    6  A    between atoms: C3_7  and  C15_19 
REMARK    7  A    between atoms: C4_8  and  C5_9 
ROOT
HETATM    1  C3  UNL     1      37.842  34.886  70.233  1.00  0.00     0.093 C 
ENDROOT
BRANCH   1   2
HETATM    2  C2  UNL     1      37.714  35.754  71.424  1.00  0.00     0.059 C 
BRANCH   2   3
HETATM    3  C1  UNL     1      37.620  37.214  71.252  1.00  0.00     0.284 C 
BRANCH   3   4
HETATM    4  N1  UNL     1      37.580  37.722  69.922  1.00  0.00    -0.065 N 
ATOM      5  H13 UNL     1      37.634  36.945  69.263  1.00  0.00     0.275 HD
ATOM      6  H12 UNL     1      36.644  38.076  69.725  1.00  0.00     0.275 HD
ATOM      7  H11 UNL     1      38.268  38.430  69.665  1.00  0.00     0.275 HD
ENDBRANCH   3   4
BRANCH   3   8
HETATM    8  C16 UNL     1      36.580  37.810  72.135  1.00  0.00     0.204 C 
HETATM    9  O3  UNL     1      36.467  37.542  73.345  1.00  0.00    -0.646 OA
HETATM   10  O4  UNL     1      35.699  38.709  71.565  1.00  0.00    -0.646 OA
ENDBRANCH   3   8
ENDBRANCH   2   3
ENDBRANCH   1   2
BRANCH   1  11
HETATM   11  C4  UNL     1      37.401  33.503  70.626  1.00  0.00     0.054 C 
BRANCH  11  12
HETATM   12  C5  UNL     1      36.241  32.977  69.951  1.00  0.00    -0.056 A 
HETATM   13  C6  UNL     1      36.158  32.664  68.610  1.00  0.00     0.008 A 
HETATM   14  C7  UNL     1      35.006  32.168  68.067  1.00  0.00     0.013 A 
HETATM   15  C8  UNL     1      33.870  31.955  68.838  1.00  0.00    -0.026 A 
HETATM   16  C9  UNL     1      32.709  31.454  68.293  1.00  0.00     0.012 A 
HETATM   17  C13 UNL     1      33.939  32.266  70.193  1.00  0.00    -0.025 A 
HETATM   18  C10 UNL     1      31.577  31.240  69.048  1.00  0.00     0.001 A 
HETATM   19  C11 UNL     1      31.638  31.547  70.394  1.00  0.00     0.001 A 
HETATM   20  C12 UNL     1      32.791  32.045  70.938  1.00  0.00     0.012 A 
HETATM   21  C14 UNL     1      35.100  32.760  70.711  1.00  0.00     0.019 A 
ENDBRANCH  11  12
ENDBRANCH   1  11
BRANCH   1  22
HETATM   22  C15 UNL     1      39.181  34.809  69.611  1.00  0.00     0.177 C 
HETATM   23  O1  UNL     1      39.289  34.663  68.351  1.00  0.00    -0.648 OA
HETATM   24  O2  UNL     1      40.390  34.881  70.279  1.00  0.00    -0.648 OA
ENDBRANCH   1  22
TORSDOF 7
ENDMDL
