MODEL 5
REMARK VINA RESULT: -7.140834930      3.487      5.784
REMARK  7 active torsions:
REMARK  status: ('A' for Active; 'I' for Inactive)
REMARK    1  A    between atoms: N1_1  and  C1_5 
REMARK    2  A    between atoms: C1_5  and  C2_6 
REMARK    3  A    between atoms: C1_5  and  C16_22 
REMARK    4  A    between atoms: C2_6  and  C3_7 
REMARK    5  A    between atoms: C3_7  and  C4_8 
REMARK    6  A    between atoms: C3_7  and  C15_19 
REMARK    7  A    between atoms: C4_8  and  C5_9 
ROOT
HETATM    1  C3  UNL     1      37.960  38.222  69.052  1.00  0.00     0.093 C 
ENDROOT
BRANCH   1   2
HETATM    2  C2  UNL     1      37.757  39.340  68.104  1.00  0.00     0.059 C 
BRANCH   2   3
HETATM    3  C1  UNL     1      36.682  39.255  67.100  1.00  0.00     0.284 C 
BRANCH   3   4
HETATM    4  N1  UNL     1      35.454  39.917  67.388  1.00  0.00    -0.065 N 
ATOM      5  H13 UNL     1      34.787  39.242  67.761  1.00  0.00     0.275 HD
ATOM      6  H12 UNL     1      35.582  40.527  68.196  1.00  0.00     0.275 HD
ATOM      7  H11 UNL     1      35.013  40.445  66.635  1.00  0.00     0.275 HD
ENDBRANCH   3   4
BRANCH   3   8
HETATM    8  C16 UNL     1      37.184  39.531  65.725  1.00  0.00     0.204 C 
HETATM    9  O3  UNL     1      36.524  40.132  64.858  1.00  0.00    -0.646 OA
HETATM   10  O4  UNL     1      38.455  39.089  65.412  1.00  0.00    -0.646 OA
ENDBRANCH   3   8
ENDBRANCH   2   3
ENDBRANCH   1   2
BRANCH   1  11
HETATM   11  C4  UNL     1      38.742  38.753  70.222  1.00  0.00     0.054 C 
BRANCH  11  12
HETATM   12  C5  UNL     1      38.047  38.837  71.481  1.00  0.00    -0.056 A 
HETATM   13  C6  UNL     1      36.681  38.769  71.657  1.00  0.00     0.008 A 
HETATM   14  C7  UNL     1      36.119  38.860  72.899  1.00  0.00     0.013 A 
HETATM   15  C8  UNL     1      36.896  39.023  74.040  1.00  0.00    -0.026 A 
HETATM   16  C9  UNL     1      36.333  39.114  75.293  1.00  0.00     0.012 A 
HETATM   17  C13 UNL     1      38.277  39.094  73.878  1.00  0.00    -0.025 A 
HETATM   18  C10 UNL     1      37.093  39.277  76.429  1.00  0.00     0.001 A 
HETATM   19  C11 UNL     1      38.466  39.348  76.276  1.00  0.00     0.001 A 
HETATM   20  C12 UNL     1      39.028  39.258  75.032  1.00  0.00     0.012 A 
HETATM   21  C14 UNL     1      38.813  39.001  72.627  1.00  0.00     0.019 A 
ENDBRANCH  11  12
ENDBRANCH   1  11
BRANCH   1  22
HETATM   22  C15 UNL     1      38.635  37.020  68.522  1.00  0.00     0.177 C 
HETATM   23  O1  UNL     1      39.603  36.499  69.164  1.00  0.00    -0.648 OA
HETATM   24  O2  UNL     1      38.317  36.365  67.345  1.00  0.00    -0.648 OA
ENDBRANCH   1  22
TORSDOF 7
ENDMDL
