MODEL 7
REMARK VINA RESULT: -8.120293521      1.297      1.581
REMARK  5 active torsions:
REMARK  status: ('A' for Active; 'I' for Inactive)
REMARK    1  A    between atoms: C3_3  and  C4_4 
REMARK    2  A    between atoms: C4_4  and  O1_5 
REMARK    3  A    between atoms: O1_5  and  C5_6 
REMARK    4  A    between atoms: C8_9  and  S1_10 
REMARK    5  A    between atoms: S1_10  and  N1_13 
ROOT
HETATM    1  C1  UNL     1      48.002  23.165   3.154  1.00  0.00     0.112 C 
HETATM    2  C2  UNL     1      48.160  24.587   3.492  1.00  0.00    -0.109 C 
HETATM    3  C3  UNL     1      48.312  25.755   3.776  1.00  0.00    -0.080 C 
ENDROOT
BRANCH   3   4
HETATM    4  C4  UNL     1      48.514  27.160   4.133  1.00  0.00     0.269 C 
BRANCH   4   5
HETATM    5  O1  UNL     1      47.289  27.705   4.517  1.00  0.00    -0.340 OA
BRANCH   5   6
HETATM    6  C5  UNL     1      46.212  27.941   3.673  1.00  0.00     0.070 A 
HETATM    7  C6  UNL     1      44.939  27.660   4.120  1.00  0.00     0.038 A 
HETATM    8  C7  UNL     1      43.842  27.887   3.294  1.00  0.00     0.027 A 
HETATM    9  C8  UNL     1      44.050  28.392   2.037  1.00  0.00     0.074 A 
HETATM   10  C13 UNL     1      45.305  28.674   1.580  1.00  0.00     0.027 A 
HETATM   11  C14 UNL     1      46.405  28.449   2.404  1.00  0.00     0.038 A 
BRANCH   9  12
HETATM   12  S1  UNL     1      42.664  28.675   1.012  1.00  0.00     0.243 S 
HETATM   13  O2  UNL     1      41.428  28.601   1.890  1.00  0.00    -0.206 OA
HETATM   14  O3  UNL     1      42.590  27.526   0.041  1.00  0.00    -0.206 OA
BRANCH  12  15
HETATM   15  N1  UNL     1      42.746  30.189   0.192  1.00  0.00    -0.205 NA
HETATM   16  C9  UNL     1      43.187  31.196   1.101  1.00  0.00     0.109 C 
HETATM   17  C10 UNL     1      41.922  31.866   1.638  1.00  0.00     0.033 C 
HETATM   18  C11 UNL     1      41.093  31.905   0.346  1.00  0.00     0.074 C 
HETATM   19  S2  UNL     1      39.338  32.075   0.685  1.00  0.00    -0.091 SA
HETATM   20  C12 UNL     1      41.396  30.528  -0.212  1.00  0.00     0.123 C 
ENDBRANCH  12  15
ENDBRANCH   9  12
ENDBRANCH   5   6
ENDBRANCH   4   5
ENDBRANCH   3   4
TORSDOF 5
ENDMDL
