MODEL 12
REMARK VINA RESULT: -8.020563382      2.325      2.871
REMARK  5 active torsions:
REMARK  status: ('A' for Active; 'I' for Inactive)
REMARK    1  A    between atoms: C3_3  and  C4_4 
REMARK    2  A    between atoms: C4_4  and  O1_5 
REMARK    3  A    between atoms: O1_5  and  C5_6 
REMARK    4  A    between atoms: C8_9  and  S1_10 
REMARK    5  A    between atoms: S1_10  and  N1_13 
ROOT
HETATM    1  C1  UNL     1      48.851  22.732   2.587  1.00  0.00     0.112 C 
HETATM    2  C2  UNL     1      48.530  24.037   3.182  1.00  0.00    -0.109 C 
HETATM    3  C3  UNL     1      48.283  25.112   3.683  1.00  0.00    -0.080 C 
ENDROOT
BRANCH   3   4
HETATM    4  C4  UNL     1      48.000  26.405   4.308  1.00  0.00     0.269 C 
BRANCH   4   5
HETATM    5  O1  UNL     1      46.620  26.539   4.455  1.00  0.00    -0.340 OA
BRANCH   5   6
HETATM    6  C5  UNL     1      45.839  27.524   3.865  1.00  0.00     0.070 A 
HETATM    7  C6  UNL     1      46.431  28.414   2.993  1.00  0.00     0.038 A 
HETATM    8  C7  UNL     1      45.670  29.410   2.388  1.00  0.00     0.027 A 
HETATM    9  C8  UNL     1      44.332  29.490   2.673  1.00  0.00     0.074 A 
HETATM   10  C13 UNL     1      43.732  28.617   3.534  1.00  0.00     0.027 A 
HETATM   11  C14 UNL     1      44.490  27.618   4.140  1.00  0.00     0.038 A 
BRANCH   9  12
HETATM   12  S1  UNL     1      43.389  30.743   1.905  1.00  0.00     0.243 S 
HETATM   13  O2  UNL     1      43.671  30.674   0.414  1.00  0.00    -0.206 OA
HETATM   14  O3  UNL     1      43.922  32.063   2.398  1.00  0.00    -0.206 OA
BRANCH  12  15
HETATM   15  N1  UNL     1      41.701  30.589   2.218  1.00  0.00    -0.205 NA
HETATM   16  C9  UNL     1      41.004  30.423   0.984  1.00  0.00     0.109 C 
HETATM   17  C10 UNL     1      40.522  31.815   0.579  1.00  0.00     0.033 C 
HETATM   18  C11 UNL     1      40.107  32.347   1.959  1.00  0.00     0.074 C 
HETATM   19  S2  UNL     1      40.045  34.142   1.991  1.00  0.00    -0.091 SA
HETATM   20  C12 UNL     1      41.259  31.839   2.802  1.00  0.00     0.123 C 
ENDBRANCH  12  15
ENDBRANCH   9  12
ENDBRANCH   5   6
ENDBRANCH   4   5
ENDBRANCH   3   4
TORSDOF 5
ENDMDL
