MODEL 15
REMARK VINA RESULT: -7.950233567      2.319      2.851
REMARK  5 active torsions:
REMARK  status: ('A' for Active; 'I' for Inactive)
REMARK    1  A    between atoms: C3_3  and  C4_4 
REMARK    2  A    between atoms: C4_4  and  O1_5 
REMARK    3  A    between atoms: O1_5  and  C5_6 
REMARK    4  A    between atoms: C8_9  and  S1_10 
REMARK    5  A    between atoms: S1_10  and  N1_13 
ROOT
HETATM    1  C1  UNL     1      47.088  22.598   2.305  1.00  0.00     0.112 C 
HETATM    2  C2  UNL     1      47.377  23.814   3.079  1.00  0.00    -0.109 C 
HETATM    3  C3  UNL     1      47.599  24.825   3.708  1.00  0.00    -0.080 C 
ENDROOT
BRANCH   3   4
HETATM    4  C4  UNL     1      47.853  26.060   4.452  1.00  0.00     0.269 C 
BRANCH   4   5
HETATM    5  O1  UNL     1      46.632  26.608   4.842  1.00  0.00    -0.340 OA
BRANCH   5   6
HETATM    6  C5  UNL     1      45.904  27.548   4.124  1.00  0.00     0.070 A 
HETATM    7  C6  UNL     1      44.530  27.557   4.236  1.00  0.00     0.038 A 
HETATM    8  C7  UNL     1      43.778  28.489   3.528  1.00  0.00     0.027 A 
HETATM    9  C8  UNL     1      44.423  29.391   2.722  1.00  0.00     0.074 A 
HETATM   10  C13 UNL     1      45.783  29.394   2.601  1.00  0.00     0.027 A 
HETATM   11  C14 UNL     1      46.539  28.463   3.310  1.00  0.00     0.038 A 
BRANCH   9  12
HETATM   12  S1  UNL     1      43.466  30.556   1.841  1.00  0.00     0.243 S 
HETATM   13  O2  UNL     1      43.749  30.352   0.364  1.00  0.00    -0.206 OA
HETATM   14  O3  UNL     1      43.985  31.922   2.209  1.00  0.00    -0.206 OA
BRANCH  12  15
HETATM   15  N1  UNL     1      41.780  30.413   2.170  1.00  0.00    -0.205 NA
HETATM   16  C9  UNL     1      41.080  30.170   0.951  1.00  0.00     0.109 C 
HETATM   17  C10 UNL     1      40.589  31.533   0.464  1.00  0.00     0.033 C 
HETATM   18  C11 UNL     1      40.177  32.145   1.811  1.00  0.00     0.074 C 
HETATM   19  S2  UNL     1      40.107  33.938   1.735  1.00  0.00    -0.091 SA
HETATM   20  C12 UNL     1      41.335  31.695   2.680  1.00  0.00     0.123 C 
ENDBRANCH  12  15
ENDBRANCH   9  12
ENDBRANCH   5   6
ENDBRANCH   4   5
ENDBRANCH   3   4
TORSDOF 5
ENDMDL
