MODEL 13
REMARK VINA RESULT: -7.279446353      3.280      6.170
REMARK  9 active torsions:
REMARK  status: ('A' for Active; 'I' for Inactive)
REMARK    1  A    between atoms: C2_2  and  O1_3 
REMARK    2  A    between atoms: C2_2  and  C3_5 
REMARK    3  A    between atoms: C2_2  and  C5_16 
REMARK    4  A    between atoms: C3_5  and  C4_6 
REMARK    5  A    between atoms: C4_6  and  O2_7 
REMARK    6  A    between atoms: O2_7  and  P1_8 
REMARK    7  A    between atoms: P1_8  and  O5_11 
REMARK    8  A    between atoms: O5_11  and  P2_12 
REMARK    9  A    between atoms: C5_16  and  C6_17 
ROOT
HETATM    1  C4  UNL     1      28.745  24.561  46.362  1.00  0.00     0.184 C 
ENDROOT
BRANCH   1   2
HETATM    2  C3  UNL     1      30.039  23.858  46.536  1.00  0.00     0.065 C 
BRANCH   2   3
HETATM    3  C2  UNL     1      30.217  22.574  45.809  1.00  0.00     0.065 C 
HETATM    4  C1  UNL     1      31.538  21.976  46.282  1.00  0.00     0.046 C 
BRANCH   3   5
HETATM    5  O1  UNL     1      29.215  21.662  46.233  1.00  0.00    -0.390 OA
ATOM      6  H1  UNL     1      29.609  20.800  46.158  1.00  0.00     0.210 HD
ENDBRANCH   3   5
BRANCH   3   7
HETATM    7  C5  UNL     1      30.254  22.676  44.321  1.00  0.00     0.150 C 
BRANCH   7   8
HETATM    8  C6  UNL     1      29.127  22.020  43.644  1.00  0.00     0.175 C 
HETATM    9  O9  UNL     1      28.070  22.675  43.357  1.00  0.00    -0.648 OA
HETATM   10  O10 UNL     1      29.108  20.671  43.270  1.00  0.00    -0.648 OA
ENDBRANCH   7   8
ENDBRANCH   3   7
ENDBRANCH   2   3
ENDBRANCH   1   2
BRANCH   1  11
HETATM   11  O2  UNL     1      28.989  25.928  46.385  1.00  0.00    -0.289 OA
BRANCH  11  12
HETATM   12  P1  UNL     1      27.787  26.832  46.048  1.00  0.00     0.418 P 
HETATM   13  O3  UNL     1      28.672  28.141  46.529  1.00  0.00    -0.624 OA
HETATM   14  O4  UNL     1      26.869  26.068  47.179  1.00  0.00    -0.624 OA
BRANCH  12  15
HETATM   15  O5  UNL     1      26.623  27.770  45.677  1.00  0.00    -0.173 OA
BRANCH  15  16
HETATM   16  P2  UNL     1      25.845  27.808  44.359  1.00  0.00     0.431 P 
HETATM   17  O6  UNL     1      24.446  27.563  45.198  1.00  0.00    -0.616 OA
HETATM   18  O7  UNL     1      26.680  26.494  43.795  1.00  0.00    -0.616 OA
HETATM   19  O8  UNL     1      26.331  29.334  43.990  1.00  0.00    -0.616 OA
ENDBRANCH  15  16
ENDBRANCH  12  15
ENDBRANCH  11  12
ENDBRANCH   1  11
TORSDOF 9
ENDMDL
