MODEL 2
REMARK VINA RESULT: -7.568760349      0.825      1.425
REMARK  9 active torsions:
REMARK  status: ('A' for Active; 'I' for Inactive)
REMARK    1  A    between atoms: C2_2  and  O1_3 
REMARK    2  A    between atoms: C2_2  and  C3_5 
REMARK    3  A    between atoms: C2_2  and  C5_16 
REMARK    4  A    between atoms: C3_5  and  C4_6 
REMARK    5  A    between atoms: C4_6  and  O2_7 
REMARK    6  A    between atoms: O2_7  and  P1_8 
REMARK    7  A    between atoms: P1_8  and  O5_11 
REMARK    8  A    between atoms: O5_11  and  P2_12 
REMARK    9  A    between atoms: C5_16  and  C6_17 
ROOT
HETATM    1  C4  UNL     1      26.457  24.834  46.691  1.00  0.00     0.184 C 
ENDROOT
BRANCH   1   2
HETATM    2  C3  UNL     1      25.622  25.967  47.159  1.00  0.00     0.065 C 
BRANCH   2   3
HETATM    3  C2  UNL     1      24.860  26.719  46.128  1.00  0.00     0.065 C 
HETATM    4  C1  UNL     1      23.647  25.867  45.764  1.00  0.00     0.046 C 
BRANCH   3   5
HETATM    5  O1  UNL     1      24.330  27.898  46.717  1.00  0.00    -0.390 OA
ATOM      6  H1  UNL     1      25.078  28.465  46.862  1.00  0.00     0.210 HD
ENDBRANCH   3   5
BRANCH   3   7
HETATM    7  C5  UNL     1      25.605  27.033  44.876  1.00  0.00     0.150 C 
BRANCH   7   8
HETATM    8  C6  UNL     1      26.257  28.350  44.876  1.00  0.00     0.175 C 
HETATM    9  O9  UNL     1      27.001  28.709  45.849  1.00  0.00    -0.648 OA
HETATM   10  O10 UNL     1      26.123  29.297  43.853  1.00  0.00    -0.648 OA
ENDBRANCH   7   8
ENDBRANCH   3   7
ENDBRANCH   2   3
ENDBRANCH   1   2
BRANCH   1  11
HETATM   11  O2  UNL     1      27.738  25.001  47.202  1.00  0.00    -0.289 OA
BRANCH  11  12
HETATM   12  P1  UNL     1      28.890  24.514  46.302  1.00  0.00     0.418 P 
HETATM   13  O3  UNL     1      29.965  25.061  47.430  1.00  0.00    -0.624 OA
HETATM   14  O4  UNL     1      28.428  25.555  45.113  1.00  0.00    -0.624 OA
BRANCH  12  15
HETATM   15  O5  UNL     1      30.064  23.998  45.449  1.00  0.00    -0.173 OA
BRANCH  15  16
HETATM   16  P2  UNL     1      30.361  22.547  45.059  1.00  0.00     0.431 P 
HETATM   17  O6  UNL     1      30.126  22.944  43.475  1.00  0.00    -0.616 OA
HETATM   18  O7  UNL     1      29.071  22.014  45.949  1.00  0.00    -0.616 OA
HETATM   19  O8  UNL     1      31.874  22.570  45.701  1.00  0.00    -0.616 OA
ENDBRANCH  15  16
ENDBRANCH  12  15
ENDBRANCH  11  12
ENDBRANCH   1  11
TORSDOF 9
ENDMDL
