MODEL 19
REMARK VINA RESULT: -7.132202402      3.169      6.269
REMARK  9 active torsions:
REMARK  status: ('A' for Active; 'I' for Inactive)
REMARK    1  A    between atoms: C2_2  and  O1_3 
REMARK    2  A    between atoms: C2_2  and  C3_5 
REMARK    3  A    between atoms: C2_2  and  C5_16 
REMARK    4  A    between atoms: C3_5  and  C4_6 
REMARK    5  A    between atoms: C4_6  and  O2_7 
REMARK    6  A    between atoms: O2_7  and  P1_8 
REMARK    7  A    between atoms: P1_8  and  O5_11 
REMARK    8  A    between atoms: O5_11  and  P2_12 
REMARK    9  A    between atoms: C5_16  and  C6_17 
ROOT
HETATM    1  C4  UNL     1      28.845  24.748  46.744  1.00  0.00     0.184 C 
ENDROOT
BRANCH   1   2
HETATM    2  C3  UNL     1      29.963  23.904  46.257  1.00  0.00     0.065 C 
BRANCH   2   3
HETATM    3  C2  UNL     1      29.686  23.011  45.102  1.00  0.00     0.065 C 
HETATM    4  C1  UNL     1      28.169  22.937  44.952  1.00  0.00     0.046 C 
BRANCH   3   5
HETATM    5  O1  UNL     1      30.153  23.636  43.915  1.00  0.00    -0.390 OA
ATOM      6  H1  UNL     1      31.098  23.540  43.933  1.00  0.00     0.210 HD
ENDBRANCH   3   5
BRANCH   3   7
HETATM    7  C5  UNL     1      30.214  21.621  45.219  1.00  0.00     0.150 C 
BRANCH   7   8
HETATM    8  C6  UNL     1      30.131  20.838  43.979  1.00  0.00     0.175 C 
HETATM    9  O9  UNL     1      29.449  19.760  43.933  1.00  0.00    -0.648 OA
HETATM   10  O10 UNL     1      30.771  21.185  42.782  1.00  0.00    -0.648 OA
ENDBRANCH   7   8
ENDBRANCH   3   7
ENDBRANCH   2   3
ENDBRANCH   1   2
BRANCH   1  11
HETATM   11  O2  UNL     1      29.089  26.058  46.351  1.00  0.00    -0.289 OA
BRANCH  11  12
HETATM   12  P1  UNL     1      27.844  26.908  46.033  1.00  0.00     0.418 P 
HETATM   13  O3  UNL     1      28.663  28.248  46.544  1.00  0.00    -0.624 OA
HETATM   14  O4  UNL     1      26.965  26.074  47.147  1.00  0.00    -0.624 OA
BRANCH  12  15
HETATM   15  O5  UNL     1      26.634  27.794  45.683  1.00  0.00    -0.173 OA
BRANCH  15  16
HETATM   16  P2  UNL     1      25.841  27.808  44.373  1.00  0.00     0.431 P 
HETATM   17  O6  UNL     1      24.452  27.576  45.233  1.00  0.00    -0.616 OA
HETATM   18  O7  UNL     1      26.670  26.485  43.824  1.00  0.00    -0.616 OA
HETATM   19  O8  UNL     1      26.320  29.328  43.972  1.00  0.00    -0.616 OA
ENDBRANCH  15  16
ENDBRANCH  12  15
ENDBRANCH  11  12
ENDBRANCH   1  11
TORSDOF 9
ENDMDL
