MODEL 6
REMARK VINA RESULT: -10.542513251      1.728      2.356
REMARK  7 active torsions:
REMARK  status: ('A' for Active; 'I' for Inactive)
REMARK    1  A    between atoms: C5_5  and  N1_6 
REMARK       I    between atoms: N1_6  and  C6_8 
REMARK    2  A    between atoms: C6_8  and  C7_10 
REMARK    3  A    between atoms: C10_13  and  C11_14 
REMARK    4  A    between atoms: C11_14  and  N2_15 
REMARK    5  A    between atoms: C20_25  and  N4_26 
REMARK    6  A    between atoms: N4_26  and  C21_28 
REMARK    7  A    between atoms: C24_33  and  C25_34 
ROOT
HETATM    1  C1  UNL     1      -2.552 -34.222  11.547  1.00  0.00     0.050 C 
HETATM    2  C2  UNL     1      -3.374 -35.064  10.610  1.00  0.00    -0.035 A 
HETATM    3  C3  UNL     1      -4.410 -35.815  11.102  1.00  0.00     0.011 A 
HETATM    4  C4  UNL     1      -5.186 -36.603  10.252  1.00  0.00     0.030 A 
HETATM    5  C5  UNL     1      -4.909 -36.624   8.918  1.00  0.00     0.037 A 
HETATM    6  C19 UNL     1      -3.840 -35.842   8.452  1.00  0.00     0.060 A 
HETATM    7  C20 UNL     1      -3.051 -35.053   9.250  1.00  0.00     0.057 A 
ENDROOT
BRANCH   5   8
HETATM    8  N1  UNL     1      -5.636 -37.376   7.949  1.00  0.00    -0.323 N 
HETATM    9  C6  UNL     1      -6.749 -36.945   7.235  1.00  0.00     0.256 C 
HETATM   10  O1  UNL     1      -7.197 -35.785   7.418  1.00  0.00    -0.267 OA
ATOM     11  H1  UNL     1      -5.308 -38.323   7.761  1.00  0.00     0.169 HD
BRANCH   9  12
HETATM   12  C7  UNL     1      -7.445 -37.804   6.249  1.00  0.00     0.032 A 
HETATM   13  C8  UNL     1      -8.601 -37.396   5.640  1.00  0.00     0.017 A 
HETATM   14  C9  UNL     1      -9.261 -38.219   4.708  1.00  0.00     0.010 A 
HETATM   15  C10 UNL     1      -8.749 -39.451   4.397  1.00  0.00    -0.030 A 
HETATM   16  C17 UNL     1      -7.588 -39.836   5.024  1.00  0.00     0.010 A 
HETATM   17  C18 UNL     1      -6.930 -39.048   5.934  1.00  0.00     0.017 A 
BRANCH  15  18
HETATM   18  C11 UNL     1      -9.423 -40.324   3.428  1.00  0.00     0.311 C 
BRANCH  18  19
HETATM   19  N2  UNL     1      -8.912 -40.209   2.078  1.00  0.00     0.096 N 
HETATM   20  C12 UNL     1      -8.612 -41.499   1.538  1.00  0.00     0.303 C 
HETATM   21  C13 UNL     1      -7.289 -42.061   1.961  1.00  0.00     0.302 C 
HETATM   22  N3  UNL     1      -6.265 -41.160   1.429  1.00  0.00     0.087 N 
HETATM   23  C14 UNL     1      -6.333 -41.082  -0.017  1.00  0.00     0.310 C 
HETATM   24  C15 UNL     1      -6.456 -39.893   2.065  1.00  0.00     0.302 C 
HETATM   25  C16 UNL     1      -7.819 -39.308   1.933  1.00  0.00     0.303 C 
ENDBRANCH  18  19
ENDBRANCH  15  18
ENDBRANCH   9  12
ENDBRANCH   5   8
BRANCH   7  26
HETATM   26  N4  UNL     1      -1.973 -34.269   8.770  1.00  0.00    -0.191 N 
ATOM     27  H4  UNL     1      -1.075 -34.748   8.709  1.00  0.00     0.184 HD
BRANCH  26  28
HETATM   28  C21 UNL     1      -1.969 -32.940   8.372  1.00  0.00     0.683 A 
HETATM   29  N5  UNL     1      -3.154 -32.412   7.936  1.00  0.00    -0.202 N 
HETATM   30  C22 UNL     1      -3.297 -31.152   7.522  1.00  0.00     0.108 A 
ATOM     31  H5  UNL     1      -3.975 -33.017   7.927  1.00  0.00     0.183 HD
HETATM   32  C23 UNL     1      -2.168 -30.318   7.534  1.00  0.00     0.048 A 
HETATM   33  C24 UNL     1      -0.962 -30.816   7.965  1.00  0.00     0.062 A 
HETATM   34  N7  UNL     1      -0.942 -32.089   8.355  1.00  0.00    -0.191 N 
ATOM     35  H7  UNL     1      -0.044 -32.453   8.675  1.00  0.00     0.184 HD
BRANCH  33  36
HETATM   36  C25 UNL     1       0.223 -29.958   7.981  1.00  0.00     0.007 A 
HETATM   37  C26 UNL     1       1.384 -30.266   8.653  1.00  0.00     0.016 A 
HETATM   38  C27 UNL     1       2.498 -29.415   8.646  1.00  0.00     0.018 A 
HETATM   39  C28 UNL     1       2.448 -28.229   7.948  1.00  0.00     0.087 A 
HETATM   40  N6  UNL     1       1.316 -27.940   7.299  1.00  0.00    -0.374 N 
HETATM   41  C29 UNL     1       0.242 -28.752   7.302  1.00  0.00     0.101 A 
ATOM     42  H6  UNL     1       1.264 -27.065   6.778  1.00  0.00     0.164 HD
ENDBRANCH  33  36
ENDBRANCH  26  28
ENDBRANCH   7  26
TORSDOF 7
ENDMDL
