MODEL 8
REMARK VINA RESULT: -10.454638102      3.046      3.692
REMARK  7 active torsions:
REMARK  status: ('A' for Active; 'I' for Inactive)
REMARK    1  A    between atoms: C5_5  and  N1_6 
REMARK       I    between atoms: N1_6  and  C6_8 
REMARK    2  A    between atoms: C6_8  and  C7_10 
REMARK    3  A    between atoms: C10_13  and  C11_14 
REMARK    4  A    between atoms: C11_14  and  N2_15 
REMARK    5  A    between atoms: C20_25  and  N4_26 
REMARK    6  A    between atoms: N4_26  and  C21_28 
REMARK    7  A    between atoms: C24_33  and  C25_34 
ROOT
HETATM    1  C1  UNL     1      -3.119 -34.341  11.476  1.00  0.00     0.050 C 
HETATM    2  C2  UNL     1      -3.533 -35.326  10.417  1.00  0.00    -0.035 A 
HETATM    3  C3  UNL     1      -4.526 -36.233  10.683  1.00  0.00     0.011 A 
HETATM    4  C4  UNL     1      -4.926 -37.155   9.716  1.00  0.00     0.030 A 
HETATM    5  C5  UNL     1      -4.322 -37.152   8.495  1.00  0.00     0.037 A 
HETATM    6  C19 UNL     1      -3.310 -36.208   8.261  1.00  0.00     0.060 A 
HETATM    7  C20 UNL     1      -2.884 -35.283   9.179  1.00  0.00     0.057 A 
ENDROOT
BRANCH   5   8
HETATM    8  N1  UNL     1      -4.652 -38.032   7.423  1.00  0.00    -0.323 N 
HETATM    9  C6  UNL     1      -5.826 -38.024   6.679  1.00  0.00     0.256 C 
HETATM   10  O1  UNL     1      -6.718 -37.173   6.930  1.00  0.00    -0.267 OA
ATOM     11  H1  UNL     1      -3.958 -38.738   7.178  1.00  0.00     0.169 HD
BRANCH   9  12
HETATM   12  C7  UNL     1      -6.084 -38.988   5.584  1.00  0.00     0.032 A 
HETATM   13  C8  UNL     1      -7.218 -38.914   4.822  1.00  0.00     0.017 A 
HETATM   14  C9  UNL     1      -7.460 -39.835   3.786  1.00  0.00     0.010 A 
HETATM   15  C10 UNL     1      -6.551 -40.828   3.526  1.00  0.00    -0.030 A 
HETATM   16  C17 UNL     1      -5.422 -40.880   4.307  1.00  0.00     0.010 A 
HETATM   17  C18 UNL     1      -5.169 -39.991   5.320  1.00  0.00     0.017 A 
BRANCH  15  18
HETATM   18  C11 UNL     1      -6.785 -41.799   2.450  1.00  0.00     0.311 C 
BRANCH  18  19
HETATM   19  N2  UNL     1      -5.603 -42.117   1.677  1.00  0.00     0.096 N 
HETATM   20  C12 UNL     1      -5.263 -41.036   0.803  1.00  0.00     0.303 C 
HETATM   21  C13 UNL     1      -6.051 -40.992  -0.471  1.00  0.00     0.302 C 
HETATM   22  N3  UNL     1      -5.722 -42.214  -1.205  1.00  0.00     0.087 N 
HETATM   23  C14 UNL     1      -4.304 -42.286  -1.499  1.00  0.00     0.310 C 
HETATM   24  C15 UNL     1      -6.183 -43.312  -0.412  1.00  0.00     0.302 C 
HETATM   25  C16 UNL     1      -5.665 -43.358   0.982  1.00  0.00     0.303 C 
ENDBRANCH  18  19
ENDBRANCH  15  18
ENDBRANCH   9  12
ENDBRANCH   5   8
BRANCH   7  26
HETATM   26  N4  UNL     1      -1.860 -34.336   8.933  1.00  0.00    -0.191 N 
ATOM     27  H4  UNL     1      -0.910 -34.657   9.121  1.00  0.00     0.184 HD
BRANCH  26  28
HETATM   28  C21 UNL     1      -1.968 -33.032   8.473  1.00  0.00     0.683 A 
HETATM   29  N5  UNL     1      -3.197 -32.621   8.034  1.00  0.00    -0.202 N 
HETATM   30  C22 UNL     1      -3.448 -31.399   7.563  1.00  0.00     0.108 A 
ATOM     31  H5  UNL     1      -3.967 -33.290   8.068  1.00  0.00     0.183 HD
HETATM   32  C23 UNL     1      -2.390 -30.477   7.516  1.00  0.00     0.048 A 
HETATM   33  C24 UNL     1      -1.141 -30.856   7.949  1.00  0.00     0.062 A 
HETATM   34  N7  UNL     1      -1.013 -32.104   8.398  1.00  0.00    -0.191 N 
ATOM     35  H7  UNL     1      -0.084 -32.379   8.718  1.00  0.00     0.184 HD
BRANCH  33  36
HETATM   36  C25 UNL     1      -0.029 -29.907   7.903  1.00  0.00     0.007 A 
HETATM   37  C26 UNL     1      -0.084 -28.690   7.262  1.00  0.00     0.016 A 
HETATM   38  C27 UNL     1       1.006 -27.809   7.238  1.00  0.00     0.018 A 
HETATM   39  C28 UNL     1       2.178 -28.155   7.873  1.00  0.00     0.087 A 
HETATM   40  N6  UNL     1       2.220 -29.338   8.493  1.00  0.00    -0.374 N 
HETATM   41  C29 UNL     1       1.178 -30.190   8.519  1.00  0.00     0.101 A 
ATOM     42  H6  UNL     1       3.082 -29.608   8.967  1.00  0.00     0.164 HD
ENDBRANCH  33  36
ENDBRANCH  26  28
ENDBRANCH   7  26
TORSDOF 7
ENDMDL
