MODEL 1
REMARK VINA RESULT: -11.554522054      0.000      0.000
REMARK  7 active torsions:
REMARK  status: ('A' for Active; 'I' for Inactive)
REMARK    1  A    between atoms: C5_5  and  N1_6 
REMARK       I    between atoms: N1_6  and  C6_8 
REMARK    2  A    between atoms: C6_8  and  C7_10 
REMARK    3  A    between atoms: C10_13  and  C11_14 
REMARK    4  A    between atoms: C11_14  and  N2_15 
REMARK    5  A    between atoms: C20_25  and  N4_26 
REMARK    6  A    between atoms: N4_26  and  C21_28 
REMARK    7  A    between atoms: C24_33  and  C25_34 
ROOT
HETATM    1  C1  UNL     1      -2.430 -34.345  11.438  1.00  0.00     0.050 C 
HETATM    2  C2  UNL     1      -3.355 -35.056  10.491  1.00  0.00    -0.035 A 
HETATM    3  C3  UNL     1      -4.405 -35.787  10.985  1.00  0.00     0.011 A 
HETATM    4  C4  UNL     1      -5.276 -36.455  10.125  1.00  0.00     0.030 A 
HETATM    5  C5  UNL     1      -5.080 -36.378   8.779  1.00  0.00     0.037 A 
HETATM    6  C19 UNL     1      -3.996 -35.620   8.311  1.00  0.00     0.060 A 
HETATM    7  C20 UNL     1      -3.114 -34.948   9.117  1.00  0.00     0.057 A 
ENDROOT
BRANCH   5   8
HETATM    8  N1  UNL     1      -5.908 -37.003   7.801  1.00  0.00    -0.323 N 
HETATM    9  C6  UNL     1      -7.041 -36.457   7.208  1.00  0.00     0.256 C 
HETATM   10  O1  UNL     1      -7.415 -35.299   7.524  1.00  0.00    -0.267 OA
ATOM     11  H1  UNL     1      -5.644 -37.943   7.507  1.00  0.00     0.169 HD
BRANCH   9  12
HETATM   12  C7  UNL     1      -7.846 -37.188   6.201  1.00  0.00     0.032 A 
HETATM   13  C8  UNL     1      -9.205 -37.040   6.131  1.00  0.00     0.017 A 
HETATM   14  C9  UNL     1      -9.964 -37.741   5.175  1.00  0.00     0.010 A 
HETATM   15  C10 UNL     1      -9.345 -38.590   4.295  1.00  0.00    -0.030 A 
HETATM   16  C17 UNL     1      -7.980 -38.721   4.389  1.00  0.00     0.010 A 
HETATM   17  C18 UNL     1      -7.223 -38.046   5.313  1.00  0.00     0.017 A 
BRANCH  15  18
HETATM   18  C11 UNL     1     -10.119 -39.331   3.293  1.00  0.00     0.311 C 
BRANCH  18  19
HETATM   19  N2  UNL     1     -11.074 -40.262   3.857  1.00  0.00     0.096 N 
HETATM   20  C12 UNL     1     -10.670 -41.612   3.614  1.00  0.00     0.303 C 
HETATM   21  C13 UNL     1     -11.012 -42.131   2.250  1.00  0.00     0.302 C 
HETATM   22  N3  UNL     1     -12.473 -42.131   2.160  1.00  0.00     0.087 N 
HETATM   23  C14 UNL     1     -13.062 -42.980   3.178  1.00  0.00     0.310 C 
HETATM   24  C15 UNL     1     -12.896 -40.768   2.259  1.00  0.00     0.302 C 
HETATM   25  C16 UNL     1     -12.424 -40.036   3.466  1.00  0.00     0.303 C 
ENDBRANCH  18  19
ENDBRANCH  15  18
ENDBRANCH   9  12
ENDBRANCH   5   8
BRANCH   7  26
HETATM   26  N4  UNL     1      -2.020 -34.187   8.635  1.00  0.00    -0.191 N 
ATOM     27  H4  UNL     1      -1.146 -34.700   8.520  1.00  0.00     0.184 HD
BRANCH  26  28
HETATM   28  C21 UNL     1      -1.973 -32.843   8.298  1.00  0.00     0.683 A 
HETATM   29  N5  UNL     1      -3.144 -32.251   7.911  1.00  0.00    -0.202 N 
HETATM   30  C22 UNL     1      -3.247 -30.969   7.557  1.00  0.00     0.108 A 
ATOM     31  H5  UNL     1      -3.988 -32.823   7.892  1.00  0.00     0.183 HD
HETATM   32  C23 UNL     1      -2.087 -30.179   7.583  1.00  0.00     0.048 A 
HETATM   33  C24 UNL     1      -0.892 -30.741   7.965  1.00  0.00     0.062 A 
HETATM   34  N7  UNL     1      -0.913 -32.032   8.297  1.00  0.00    -0.191 N 
ATOM     35  H7  UNL     1      -0.024 -32.443   8.580  1.00  0.00     0.184 HD
BRANCH  33  36
HETATM   36  C25 UNL     1       0.325 -29.931   7.994  1.00  0.00     0.007 A 
HETATM   37  C26 UNL     1       1.458 -30.272   8.699  1.00  0.00     0.016 A 
HETATM   38  C27 UNL     1       2.604 -29.465   8.703  1.00  0.00     0.018 A 
HETATM   39  C28 UNL     1       2.617 -28.291   7.984  1.00  0.00     0.087 A 
HETATM   40  N6  UNL     1       1.513 -27.971   7.303  1.00  0.00    -0.374 N 
HETATM   41  C29 UNL     1       0.407 -28.739   7.294  1.00  0.00     0.101 A 
ATOM     42  H6  UNL     1       1.507 -27.104   6.765  1.00  0.00     0.164 HD
ENDBRANCH  33  36
ENDBRANCH  26  28
ENDBRANCH   7  26
TORSDOF 7
ENDMDL
