MODEL 7
REMARK VINA RESULT: -10.522455177      2.212     13.246
REMARK  7 active torsions:
REMARK  status: ('A' for Active; 'I' for Inactive)
REMARK    1  A    between atoms: C5_5  and  N1_6 
REMARK       I    between atoms: N1_6  and  C6_8 
REMARK    2  A    between atoms: C6_8  and  C7_10 
REMARK    3  A    between atoms: C10_13  and  C11_14 
REMARK    4  A    between atoms: C11_14  and  N2_15 
REMARK    5  A    between atoms: C20_25  and  N4_26 
REMARK    6  A    between atoms: N4_26  and  C21_28 
REMARK    7  A    between atoms: C24_33  and  C25_34 
ROOT
HETATM    1  C1  UNL     1      -6.071 -36.643  10.955  1.00  0.00     0.050 C 
HETATM    2  C2  UNL     1      -4.997 -35.676  10.540  1.00  0.00    -0.035 A 
HETATM    3  C3  UNL     1      -3.892 -35.505  11.333  1.00  0.00     0.011 A 
HETATM    4  C4  UNL     1      -2.883 -34.614  10.968  1.00  0.00     0.030 A 
HETATM    5  C5  UNL     1      -3.000 -33.907   9.810  1.00  0.00     0.037 A 
HETATM    6  C19 UNL     1      -4.146 -34.108   9.024  1.00  0.00     0.060 A 
HETATM    7  C20 UNL     1      -5.162 -34.972   9.343  1.00  0.00     0.057 A 
ENDROOT
BRANCH   5   8
HETATM    8  N1  UNL     1      -2.033 -32.979   9.323  1.00  0.00    -0.323 N 
HETATM    9  C6  UNL     1      -2.248 -31.977   8.384  1.00  0.00     0.256 C 
HETATM   10  O1  UNL     1      -3.393 -31.825   7.886  1.00  0.00    -0.267 OA
ATOM     11  H1  UNL     1      -1.089 -33.059   9.701  1.00  0.00     0.169 HD
BRANCH   9  12
HETATM   12  C7  UNL     1      -1.174 -31.062   7.932  1.00  0.00     0.032 A 
HETATM   13  C8  UNL     1      -1.429 -30.044   7.054  1.00  0.00     0.017 A 
HETATM   14  C9  UNL     1      -0.403 -29.180   6.625  1.00  0.00     0.010 A 
HETATM   15  C10 UNL     1       0.876 -29.352   7.086  1.00  0.00    -0.030 A 
HETATM   16  C17 UNL     1       1.103 -30.383   7.966  1.00  0.00     0.010 A 
HETATM   17  C18 UNL     1       0.117 -31.234   8.396  1.00  0.00     0.017 A 
BRANCH  15  18
HETATM   18  C11 UNL     1       1.959 -28.463   6.650  1.00  0.00     0.311 C 
BRANCH  18  19
HETATM   19  N2  UNL     1       3.005 -28.283   7.635  1.00  0.00     0.096 N 
HETATM   20  C12 UNL     1       3.426 -26.916   7.684  1.00  0.00     0.303 C 
HETATM   21  C13 UNL     1       4.402 -26.525   6.617  1.00  0.00     0.302 C 
HETATM   22  N3  UNL     1       5.609 -27.321   6.846  1.00  0.00     0.087 N 
HETATM   23  C14 UNL     1       6.172 -27.057   8.156  1.00  0.00     0.310 C 
HETATM   24  C15 UNL     1       5.245 -28.692   6.662  1.00  0.00     0.302 C 
HETATM   25  C16 UNL     1       4.109 -29.171   7.496  1.00  0.00     0.303 C 
ENDBRANCH  18  19
ENDBRANCH  15  18
ENDBRANCH   9  12
ENDBRANCH   5   8
BRANCH   7  26
HETATM   26  N4  UNL     1      -6.316 -35.167   8.544  1.00  0.00    -0.191 N 
ATOM     27  H4  UNL     1      -7.014 -34.425   8.593  1.00  0.00     0.184 HD
BRANCH  26  28
HETATM   28  C21 UNL     1      -6.629 -36.226   7.705  1.00  0.00     0.683 A 
HETATM   29  N5  UNL     1      -5.651 -37.155   7.475  1.00  0.00    -0.202 N 
HETATM   30  C22 UNL     1      -5.809 -38.222   6.691  1.00  0.00     0.108 A 
ATOM     31  H5  UNL     1      -4.748 -37.024   7.931  1.00  0.00     0.183 HD
HETATM   32  C23 UNL     1      -7.052 -38.405   6.063  1.00  0.00     0.048 A 
HETATM   33  C24 UNL     1      -8.057 -37.490   6.271  1.00  0.00     0.062 A 
HETATM   34  N7  UNL     1      -7.781 -36.465   7.075  1.00  0.00    -0.191 N 
ATOM     35  H7  UNL     1      -8.531 -35.790   7.226  1.00  0.00     0.184 HD
BRANCH  33  36
HETATM   36  C25 UNL     1      -9.356 -37.666   5.622  1.00  0.00     0.007 A 
HETATM   37  C26 UNL     1      -9.696 -38.769   4.872  1.00  0.00     0.016 A 
HETATM   38  C27 UNL     1     -10.952 -38.899   4.263  1.00  0.00     0.018 A 
HETATM   39  C28 UNL     1     -11.889 -37.901   4.410  1.00  0.00     0.087 A 
HETATM   40  N6  UNL     1     -11.548 -36.835   5.139  1.00  0.00    -0.374 N 
HETATM   41  C29 UNL     1     -10.344 -36.702   5.727  1.00  0.00     0.101 A 
ATOM     42  H6  UNL     1     -12.232 -36.087   5.257  1.00  0.00     0.164 HD
ENDBRANCH  33  36
ENDBRANCH  26  28
ENDBRANCH   7  26
TORSDOF 7
ENDMDL
