MODEL 2
REMARK VINA RESULT: -8.734649652      2.828      4.497
REMARK  3 active torsions:
REMARK  status: ('A' for Active; 'I' for Inactive)
REMARK       I    between atoms: N1_2  and  C3_4 
REMARK    1  A    between atoms: C3_4  and  C4_6 
REMARK    2  A    between atoms: C6_8  and  C7_9 
REMARK    3  A    between atoms: C9_15  and  C10_16 
ROOT
HETATM    1  C7  UNL     1     -16.215  14.205  43.693  1.00  0.00     0.072 A 
HETATM    2  N2  UNL     1     -17.181  14.184  44.622  1.00  0.00    -0.299 N 
ATOM      3  H2  UNL     1     -17.319  14.884  45.350  1.00  0.00     0.187 HD
HETATM    4  N3  UNL     1     -17.920  13.112  44.440  1.00  0.00    -0.310 N 
ATOM      5  H3  UNL     1     -18.726  12.846  45.005  1.00  0.00     0.186 HD
HETATM    6  C8  UNL     1     -17.446  12.426  43.395  1.00  0.00     0.121 A 
HETATM    7  C9  UNL     1     -16.339  13.103  42.882  1.00  0.00     0.020 A 
ENDROOT
BRANCH   1   8
HETATM    8  C6  UNL     1     -15.166  15.228  43.516  1.00  0.00     0.011 A 
HETATM    9  C5  UNL     1     -13.946  15.217  44.130  1.00  0.00     0.050 A 
HETATM   10  C4  UNL     1     -13.186  16.355  43.738  1.00  0.00     0.101 A 
HETATM   11  N4  UNL     1     -14.004  16.999  42.897  1.00  0.00    -0.361 N 
HETATM   12  C16 UNL     1     -15.197  16.352  42.740  1.00  0.00     0.102 A 
ATOM     13  H4  UNL     1     -13.764  17.872  42.427  1.00  0.00     0.165 HD
BRANCH  10  14
HETATM   14  C3  UNL     1     -11.852  16.632  44.219  1.00  0.00     0.269 C 
HETATM   15  N1  UNL     1     -10.689  15.950  43.877  1.00  0.00    -0.355 N 
HETATM   16  C1  UNL     1      -9.389  16.340  44.465  1.00  0.00     0.152 C 
HETATM   17  C2  UNL     1     -10.621  14.850  42.952  1.00  0.00     0.152 C 
HETATM   18  O1  UNL     1     -11.704  17.601  45.046  1.00  0.00    -0.266 OA
ENDBRANCH  10  14
ENDBRANCH   1   8
BRANCH   7  19
HETATM   19  C10 UNL     1     -15.540  12.680  41.755  1.00  0.00    -0.022 A 
HETATM   20  C11 UNL     1     -14.183  12.873  41.715  1.00  0.00     0.012 A 
HETATM   21  C12 UNL     1     -13.404  12.474  40.639  1.00  0.00     0.001 A 
HETATM   22  C13 UNL     1     -14.001  11.853  39.548  1.00  0.00     0.000 A 
HETATM   23  C14 UNL     1     -15.360  11.655  39.579  1.00  0.00     0.001 A 
HETATM   24  C15 UNL     1     -16.115  12.058  40.655  1.00  0.00     0.012 A 
ENDBRANCH   7  19
TORSDOF 3
ENDMDL
