MODEL 7
REMARK VINA RESULT: -8.505418849      1.179      1.802
REMARK  3 active torsions:
REMARK  status: ('A' for Active; 'I' for Inactive)
REMARK       I    between atoms: N1_2  and  C3_4 
REMARK    1  A    between atoms: C3_4  and  C4_6 
REMARK    2  A    between atoms: C6_8  and  C7_9 
REMARK    3  A    between atoms: C9_15  and  C10_16 
ROOT
HETATM    1  C7  UNL     1     -16.301  12.260  41.167  1.00  0.00     0.072 A 
HETATM    2  N2  UNL     1     -17.299  11.367  41.136  1.00  0.00    -0.299 N 
ATOM      3  H2  UNL     1     -17.302  10.499  40.599  1.00  0.00     0.187 HD
HETATM    4  N3  UNL     1     -18.273  11.792  41.910  1.00  0.00    -0.310 N 
ATOM      5  H3  UNL     1     -19.155  11.307  42.072  1.00  0.00     0.186 HD
HETATM    6  C8  UNL     1     -17.921  12.962  42.452  1.00  0.00     0.121 A 
HETATM    7  C9  UNL     1     -16.647  13.301  41.994  1.00  0.00     0.020 A 
ENDROOT
BRANCH   1   8
HETATM    8  C6  UNL     1     -15.010  12.185  40.454  1.00  0.00     0.011 A 
HETATM    9  C5  UNL     1     -13.815  12.625  40.946  1.00  0.00     0.050 A 
HETATM   10  C4  UNL     1     -12.779  12.404  39.995  1.00  0.00     0.101 A 
HETATM   11  N4  UNL     1     -13.418  11.835  38.967  1.00  0.00    -0.361 N 
HETATM   12  C16 UNL     1     -14.755  11.688  39.208  1.00  0.00     0.102 A 
ATOM     13  H4  UNL     1     -12.961  11.545  38.103  1.00  0.00     0.165 HD
BRANCH  10  14
HETATM   14  C3  UNL     1     -11.397  12.765  40.216  1.00  0.00     0.269 C 
HETATM   15  N1  UNL     1     -10.297  11.917  40.141  1.00  0.00    -0.355 N 
HETATM   16  C1  UNL     1      -8.935  12.430  40.410  1.00  0.00     0.152 C 
HETATM   17  C2  UNL     1     -10.354  10.521  39.802  1.00  0.00     0.152 C 
HETATM   18  O1  UNL     1     -11.139  13.985  40.513  1.00  0.00    -0.266 OA
ENDBRANCH  10  14
ENDBRANCH   1   8
BRANCH   7  19
HETATM   19  C10 UNL     1     -15.917  14.497  42.343  1.00  0.00    -0.022 A 
HETATM   20  C11 UNL     1     -15.372  14.677  43.588  1.00  0.00     0.012 A 
HETATM   21  C12 UNL     1     -14.670  15.821  43.938  1.00  0.00     0.001 A 
HETATM   22  C13 UNL     1     -14.499  16.837  43.006  1.00  0.00     0.000 A 
HETATM   23  C14 UNL     1     -15.041  16.667  41.755  1.00  0.00     0.001 A 
HETATM   24  C15 UNL     1     -15.735  15.525  41.428  1.00  0.00     0.012 A 
ENDBRANCH   7  19
TORSDOF 3
ENDMDL
