MODEL 3
REMARK VINA RESULT: -8.587459372      3.042      4.830
REMARK  3 active torsions:
REMARK  status: ('A' for Active; 'I' for Inactive)
REMARK       I    between atoms: N1_2  and  C3_4 
REMARK    1  A    between atoms: C3_4  and  C4_6 
REMARK    2  A    between atoms: C6_8  and  C7_9 
REMARK    3  A    between atoms: C9_15  and  C10_16 
ROOT
HETATM    1  C7  UNL     1     -16.307  14.249  43.671  1.00  0.00     0.072 A 
HETATM    2  N2  UNL     1     -17.259  14.184  44.611  1.00  0.00    -0.299 N 
ATOM      3  H2  UNL     1     -17.451  14.899  45.313  1.00  0.00     0.187 HD
HETATM    4  N3  UNL     1     -17.905  13.045  44.482  1.00  0.00    -0.310 N 
ATOM      5  H3  UNL     1     -18.680  12.735  45.067  1.00  0.00     0.186 HD
HETATM    6  C8  UNL     1     -17.382  12.361  43.459  1.00  0.00     0.121 A 
HETATM    7  C9  UNL     1     -16.342  13.109  42.907  1.00  0.00     0.020 A 
ENDROOT
BRANCH   1   8
HETATM    8  C6  UNL     1     -15.351  15.351  43.441  1.00  0.00     0.011 A 
HETATM    9  C5  UNL     1     -14.205  15.558  44.152  1.00  0.00     0.050 A 
HETATM   10  C4  UNL     1     -13.525  16.712  43.668  1.00  0.00     0.101 A 
HETATM   11  N4  UNL     1     -14.313  17.142  42.677  1.00  0.00    -0.361 N 
HETATM   12  C16 UNL     1     -15.414  16.350  42.512  1.00  0.00     0.102 A 
ATOM     13  H4  UNL     1     -14.114  17.965  42.109  1.00  0.00     0.165 HD
BRANCH  10  14
HETATM   14  C3  UNL     1     -12.281  17.198  44.219  1.00  0.00     0.269 C 
HETATM   15  N1  UNL     1     -12.128  18.237  45.132  1.00  0.00    -0.355 N 
HETATM   16  C1  UNL     1     -10.782  18.635  45.598  1.00  0.00     0.152 C 
HETATM   17  C2  UNL     1     -13.208  18.995  45.706  1.00  0.00     0.152 C 
HETATM   18  O1  UNL     1     -11.197  16.629  43.840  1.00  0.00    -0.266 OA
ENDBRANCH  10  14
ENDBRANCH   1   8
BRANCH   7  19
HETATM   19  C10 UNL     1     -15.519  12.710  41.788  1.00  0.00    -0.022 A 
HETATM   20  C11 UNL     1     -16.049  12.104  40.678  1.00  0.00     0.012 A 
HETATM   21  C12 UNL     1     -15.272  11.714  39.597  1.00  0.00     0.001 A 
HETATM   22  C13 UNL     1     -13.900  11.937  39.619  1.00  0.00     0.000 A 
HETATM   23  C14 UNL     1     -13.359  12.543  40.726  1.00  0.00     0.001 A 
HETATM   24  C15 UNL     1     -14.147  12.922  41.788  1.00  0.00     0.012 A 
ENDBRANCH   7  19
TORSDOF 3
ENDMDL
