MODEL 1
REMARK VINA RESULT: -8.796001379      0.000      0.000
REMARK  3 active torsions:
REMARK  status: ('A' for Active; 'I' for Inactive)
REMARK       I    between atoms: N1_2  and  C3_4 
REMARK    1  A    between atoms: C3_4  and  C4_6 
REMARK    2  A    between atoms: C6_8  and  C7_9 
REMARK    3  A    between atoms: C9_15  and  C10_16 
ROOT
HETATM    1  C7  UNL     1     -15.734  11.923  40.957  1.00  0.00     0.072 A 
HETATM    2  N2  UNL     1     -16.577  10.896  40.788  1.00  0.00    -0.299 N 
ATOM      3  H2  UNL     1     -16.403  10.074  40.209  1.00  0.00     0.187 HD
HETATM    4  N3  UNL     1     -17.665  11.121  41.491  1.00  0.00    -0.310 N 
ATOM      5  H3  UNL     1     -18.473  10.501  41.545  1.00  0.00     0.186 HD
HETATM    6  C8  UNL     1     -17.543  12.292  42.123  1.00  0.00     0.121 A 
HETATM    7  C9  UNL     1     -16.303  12.845  41.802  1.00  0.00     0.020 A 
ENDROOT
BRANCH   1   8
HETATM    8  C6  UNL     1     -14.392  12.088  40.363  1.00  0.00     0.011 A 
HETATM    9  C5  UNL     1     -13.250  12.349  41.063  1.00  0.00     0.050 A 
HETATM   10  C4  UNL     1     -12.140  12.451  40.176  1.00  0.00     0.101 A 
HETATM   11  N4  UNL     1     -12.685  12.243  38.973  1.00  0.00    -0.361 N 
HETATM   12  C16 UNL     1     -14.032  12.021  39.047  1.00  0.00     0.102 A 
ATOM     13  H4  UNL     1     -12.157  12.249  38.101  1.00  0.00     0.165 HD
BRANCH  10  14
HETATM   14  C3  UNL     1     -10.790  12.727  40.611  1.00  0.00     0.269 C 
HETATM   15  N1  UNL     1     -10.392  13.724  41.496  1.00  0.00    -0.355 N 
HETATM   16  C1  UNL     1      -8.963  13.896  41.838  1.00  0.00     0.152 C 
HETATM   17  C2  UNL     1     -11.279  14.646  42.152  1.00  0.00     0.152 C 
HETATM   18  O1  UNL     1      -9.850  11.989  40.147  1.00  0.00    -0.266 OA
ENDBRANCH  10  14
ENDBRANCH   1   8
BRANCH   7  19
HETATM   19  C10 UNL     1     -15.796  14.111  42.278  1.00  0.00    -0.022 A 
HETATM   20  C11 UNL     1     -15.713  15.211  41.463  1.00  0.00     0.012 A 
HETATM   21  C12 UNL     1     -15.227  16.433  41.906  1.00  0.00     0.001 A 
HETATM   22  C13 UNL     1     -14.802  16.570  43.223  1.00  0.00     0.000 A 
HETATM   23  C14 UNL     1     -14.882  15.474  44.047  1.00  0.00     0.001 A 
HETATM   24  C15 UNL     1     -15.366  14.271  43.588  1.00  0.00     0.012 A 
ENDBRANCH   7  19
TORSDOF 3
ENDMDL
