MODEL 4
REMARK VINA RESULT: -8.582241107      3.043      4.876
REMARK  3 active torsions:
REMARK  status: ('A' for Active; 'I' for Inactive)
REMARK       I    between atoms: N1_2  and  C3_4 
REMARK    1  A    between atoms: C3_4  and  C4_6 
REMARK    2  A    between atoms: C6_8  and  C7_9 
REMARK    3  A    between atoms: C9_15  and  C10_16 
ROOT
HETATM    1  C7  UNL     1     -16.307  14.253  43.674  1.00  0.00     0.072 A 
HETATM    2  N2  UNL     1     -17.260  14.188  44.612  1.00  0.00    -0.299 N 
ATOM      3  H2  UNL     1     -17.454  14.905  45.312  1.00  0.00     0.187 HD
HETATM    4  N3  UNL     1     -17.906  13.050  44.484  1.00  0.00    -0.310 N 
ATOM      5  H3  UNL     1     -18.682  12.740  45.068  1.00  0.00     0.186 HD
HETATM    6  C8  UNL     1     -17.382  12.364  43.463  1.00  0.00     0.121 A 
HETATM    7  C9  UNL     1     -16.341  13.111  42.911  1.00  0.00     0.020 A 
ENDROOT
BRANCH   1   8
HETATM    8  C6  UNL     1     -15.351  15.354  43.443  1.00  0.00     0.011 A 
HETATM    9  C5  UNL     1     -14.204  15.560  44.154  1.00  0.00     0.050 A 
HETATM   10  C4  UNL     1     -13.524  16.714  43.670  1.00  0.00     0.101 A 
HETATM   11  N4  UNL     1     -14.312  17.144  42.679  1.00  0.00    -0.361 N 
HETATM   12  C16 UNL     1     -15.414  16.354  42.514  1.00  0.00     0.102 A 
ATOM     13  H4  UNL     1     -14.114  17.968  42.112  1.00  0.00     0.165 HD
BRANCH  10  14
HETATM   14  C3  UNL     1     -12.279  17.199  44.219  1.00  0.00     0.269 C 
HETATM   15  N1  UNL     1     -12.125  18.236  45.134  1.00  0.00    -0.355 N 
HETATM   16  C1  UNL     1     -10.778  18.634  45.598  1.00  0.00     0.152 C 
HETATM   17  C2  UNL     1     -13.204  18.994  45.709  1.00  0.00     0.152 C 
HETATM   18  O1  UNL     1     -11.195  16.630  43.839  1.00  0.00    -0.266 OA
ENDBRANCH  10  14
ENDBRANCH   1   8
BRANCH   7  19
HETATM   19  C10 UNL     1     -15.517  12.710  41.794  1.00  0.00    -0.022 A 
HETATM   20  C11 UNL     1     -14.162  12.921  41.781  1.00  0.00     0.012 A 
HETATM   21  C12 UNL     1     -13.358  12.544  40.715  1.00  0.00     0.001 A 
HETATM   22  C13 UNL     1     -13.927  11.926  39.607  1.00  0.00     0.000 A 
HETATM   23  C14 UNL     1     -15.283  11.711  39.611  1.00  0.00     0.001 A 
HETATM   24  C15 UNL     1     -16.063  12.093  40.678  1.00  0.00     0.012 A 
ENDBRANCH   7  19
TORSDOF 3
ENDMDL
