MODEL 5
REMARK VINA RESULT: -9.672522397      3.531      5.121
REMARK  7 active torsions:
REMARK  status: ('A' for Active; 'I' for Inactive)
REMARK       I    between atoms: C1_2  and  N1_3 
REMARK    1  A    between atoms: C1_2  and  C10_17 
REMARK    2  A    between atoms: N1_3  and  C2_5 
REMARK    3  A    between atoms: C2_5  and  C3_6 
REMARK    4  A    between atoms: C2_5  and  C4_9 
REMARK    5  A    between atoms: C3_6  and  O2_7 
REMARK    6  A    between atoms: C12_19  and  C13_20 
REMARK    7  A    between atoms: C15_26  and  C16_27 
ROOT
HETATM    1  C10 UNL     1     -12.948  12.257  39.133  1.00  0.00     0.101 A 
HETATM    2  C11 UNL     1     -13.933  12.237  40.115  1.00  0.00     0.050 A 
HETATM    3  C12 UNL     1     -15.150  11.928  39.548  1.00  0.00     0.011 A 
HETATM    4  C22 UNL     1     -14.879  11.762  38.203  1.00  0.00     0.102 A 
HETATM    5  N4  UNL     1     -13.550  11.964  37.974  1.00  0.00    -0.361 N 
ATOM      6  H4  UNL     1     -13.090  11.902  37.066  1.00  0.00     0.165 HD
ENDROOT
BRANCH   1   7
HETATM    7  C1  UNL     1     -11.525  12.549  39.388  1.00  0.00     0.268 C 
HETATM    8  O1  UNL     1     -10.654  11.643  39.322  1.00  0.00    -0.266 OA
HETATM    9  N1  UNL     1     -11.102  13.853  39.712  1.00  0.00    -0.345 N 
ATOM     10  H1  UNL     1     -11.797  14.598  39.770  1.00  0.00     0.163 HD
BRANCH   9  11
HETATM   11  C2  UNL     1      -9.709  14.170  39.967  1.00  0.00     0.141 C 
BRANCH  11  12
HETATM   12  C3  UNL     1      -9.588  15.078  41.199  1.00  0.00     0.194 C 
BRANCH  12  13
HETATM   13  O2  UNL     1      -9.091  14.311  42.260  1.00  0.00    -0.399 OA
ATOM     14  H2  UNL     1      -9.391  14.700  43.073  1.00  0.00     0.209 HD
ENDBRANCH  12  13
ENDBRANCH  11  12
BRANCH  11  15
HETATM   15  C4  UNL     1      -9.065  14.813  38.802  1.00  0.00    -0.032 A 
HETATM   16  C5  UNL     1      -9.018  16.189  38.744  1.00  0.00     0.012 A 
HETATM   17  C6  UNL     1      -8.421  16.826  37.674  1.00  0.00     0.044 A 
HETATM   18  C7  UNL     1      -7.863  16.093  36.649  1.00  0.00     0.138 A 
HETATM   19  F1  UNL     1      -7.268  16.684  35.583  1.00  0.00    -0.204 F 
HETATM   20  C8  UNL     1      -7.892  14.707  36.675  1.00  0.00     0.073 A 
HETATM   21 CL1  UNL     1      -7.178  13.779  35.367  1.00  0.00    -0.081 Cl
HETATM   22  C9  UNL     1      -8.496  14.109  37.760  1.00  0.00     0.036 A 
ENDBRANCH  11  15
ENDBRANCH   9  11
ENDBRANCH   1   7
BRANCH   3  23
HETATM   23  C13 UNL     1     -16.427  11.821  40.256  1.00  0.00     0.072 A 
HETATM   24  N2  UNL     1     -17.329  10.820  40.162  1.00  0.00    -0.299 N 
HETATM   25  N3  UNL     1     -18.367  11.020  40.931  1.00  0.00    -0.310 N 
ATOM     26  H2  UNL     1     -17.213  10.003  39.562  1.00  0.00     0.187 HD
HETATM   27  C14 UNL     1     -18.181  12.175  41.566  1.00  0.00     0.121 A 
ATOM     28  H3  UNL     1     -19.174  10.403  41.027  1.00  0.00     0.186 HD
HETATM   29  C15 UNL     1     -16.957  12.715  41.161  1.00  0.00     0.020 A 
BRANCH  29  30
HETATM   30  C16 UNL     1     -16.350  13.962  41.587  1.00  0.00    -0.021 A 
HETATM   31  C17 UNL     1     -16.267  14.215  42.947  1.00  0.00     0.012 A 
HETATM   32  C18 UNL     1     -15.705  15.378  43.438  1.00  0.00     0.003 A 
HETATM   33  C19 UNL     1     -15.203  16.339  42.584  1.00  0.00     0.024 A 
HETATM   34  C20 UNL     1     -15.279  16.098  41.210  1.00  0.00     0.034 A 
HETATM   35 CL2  UNL     1     -14.673  17.240  40.030  1.00  0.00    -0.084 Cl
HETATM   36  C21 UNL     1     -15.844  14.927  40.750  1.00  0.00     0.036 A 
ENDBRANCH  29  30
ENDBRANCH   3  23
TORSDOF 7
ENDMDL
