MODEL 7
REMARK VINA RESULT: -9.289230634      4.108      8.551
REMARK  7 active torsions:
REMARK  status: ('A' for Active; 'I' for Inactive)
REMARK       I    between atoms: C1_2  and  N1_3 
REMARK    1  A    between atoms: C1_2  and  C10_17 
REMARK    2  A    between atoms: N1_3  and  C2_5 
REMARK    3  A    between atoms: C2_5  and  C3_6 
REMARK    4  A    between atoms: C2_5  and  C4_9 
REMARK    5  A    between atoms: C3_6  and  O2_7 
REMARK    6  A    between atoms: C12_19  and  C13_20 
REMARK    7  A    between atoms: C15_26  and  C16_27 
ROOT
HETATM    1  C10 UNL     1     -10.678  14.659  40.515  1.00  0.00     0.101 A 
HETATM    2  C11 UNL     1      -9.288  14.613  40.478  1.00  0.00     0.050 A 
HETATM    3  C12 UNL     1      -8.776  15.879  40.659  1.00  0.00     0.011 A 
HETATM    4  C22 UNL     1      -9.885  16.689  40.806  1.00  0.00     0.102 A 
HETATM    5  N4  UNL     1     -11.019  15.937  40.717  1.00  0.00    -0.361 N 
ATOM      6  H4  UNL     1     -11.972  16.291  40.792  1.00  0.00     0.165 HD
ENDROOT
BRANCH   1   7
HETATM    7  C1  UNL     1     -11.553  13.481  40.360  1.00  0.00     0.268 C 
HETATM    8  O1  UNL     1     -11.094  12.313  40.456  1.00  0.00    -0.266 OA
HETATM    9  N1  UNL     1     -12.929  13.634  40.099  1.00  0.00    -0.345 N 
ATOM     10  H1  UNL     1     -13.315  14.574  40.016  1.00  0.00     0.163 HD
BRANCH   9  11
HETATM   11  C2  UNL     1     -13.813  12.494  39.943  1.00  0.00     0.141 C 
BRANCH  11  12
HETATM   12  C3  UNL     1     -13.840  12.040  38.476  1.00  0.00     0.194 C 
BRANCH  12  13
HETATM   13  O2  UNL     1     -12.669  11.314  38.222  1.00  0.00    -0.399 OA
ATOM     14  H2  UNL     1     -12.475  11.380  37.294  1.00  0.00     0.209 HD
ENDBRANCH  12  13
ENDBRANCH  11  12
BRANCH  11  15
HETATM   15  C4  UNL     1     -15.186  12.791  40.403  1.00  0.00    -0.032 A 
HETATM   16  C5  UNL     1     -16.241  12.121  39.822  1.00  0.00     0.012 A 
HETATM   17  C6  UNL     1     -17.538  12.369  40.228  1.00  0.00     0.044 A 
HETATM   18  C7  UNL     1     -17.794  13.289  41.221  1.00  0.00     0.138 A 
HETATM   19  F1  UNL     1     -19.054  13.557  41.646  1.00  0.00    -0.204 F 
HETATM   20  C8  UNL     1     -16.757  13.980  41.828  1.00  0.00     0.073 A 
HETATM   21 CL1  UNL     1     -17.089  15.151  43.094  1.00  0.00    -0.081 Cl
HETATM   22  C9  UNL     1     -15.477  13.705  41.395  1.00  0.00     0.036 A 
ENDBRANCH  11  15
ENDBRANCH   9  11
ENDBRANCH   1   7
BRANCH   3  23
HETATM   23  C13 UNL     1      -7.356  16.240  40.673  1.00  0.00     0.072 A 
HETATM   24  N2  UNL     1      -6.574  16.425  41.758  1.00  0.00    -0.299 N 
HETATM   25  N3  UNL     1      -5.347  16.734  41.432  1.00  0.00    -0.310 N 
ATOM     26  H2  UNL     1      -6.903  16.335  42.720  1.00  0.00     0.187 HD
HETATM   27  C14 UNL     1      -5.279  16.762  40.103  1.00  0.00     0.121 A 
ATOM     28  H3  UNL     1      -4.579  16.921  42.078  1.00  0.00     0.186 HD
HETATM   29  C15 UNL     1      -6.539  16.453  39.585  1.00  0.00     0.020 A 
BRANCH  29  30
HETATM   30  C16 UNL     1      -6.933  16.374  38.190  1.00  0.00    -0.021 A 
HETATM   31  C17 UNL     1      -7.335  17.541  37.560  1.00  0.00     0.012 A 
HETATM   32  C18 UNL     1      -7.728  17.554  36.236  1.00  0.00     0.003 A 
HETATM   33  C19 UNL     1      -7.735  16.396  35.485  1.00  0.00     0.024 A 
HETATM   34  C20 UNL     1      -7.332  15.211  36.107  1.00  0.00     0.034 A 
HETATM   35 CL2  UNL     1      -7.297  13.681  35.259  1.00  0.00    -0.084 Cl
HETATM   36  C21 UNL     1      -6.945  15.230  37.430  1.00  0.00     0.036 A 
ENDBRANCH  29  30
ENDBRANCH   3  23
TORSDOF 7
ENDMDL
