MODEL 3
REMARK VINA RESULT: -9.805085252      4.171      8.905
REMARK  7 active torsions:
REMARK  status: ('A' for Active; 'I' for Inactive)
REMARK       I    between atoms: C1_2  and  N1_3 
REMARK    1  A    between atoms: C1_2  and  C10_17 
REMARK    2  A    between atoms: N1_3  and  C2_5 
REMARK    3  A    between atoms: C2_5  and  C3_6 
REMARK    4  A    between atoms: C2_5  and  C4_9 
REMARK    5  A    between atoms: C3_6  and  O2_7 
REMARK    6  A    between atoms: C12_19  and  C13_20 
REMARK    7  A    between atoms: C15_26  and  C16_27 
ROOT
HETATM    1  C10 UNL     1     -10.610  13.683  39.585  1.00  0.00     0.101 A 
HETATM    2  C11 UNL     1     -10.364  14.405  38.422  1.00  0.00     0.050 A 
HETATM    3  C12 UNL     1      -9.227  15.167  38.578  1.00  0.00     0.011 A 
HETATM    4  C22 UNL     1      -8.791  14.888  39.859  1.00  0.00     0.102 A 
HETATM    5  N4  UNL     1      -9.635  13.995  40.448  1.00  0.00    -0.361 N 
ATOM      6  H4  UNL     1      -9.540  13.623  41.393  1.00  0.00     0.165 HD
ENDROOT
BRANCH   1   7
HETATM    7  C1  UNL     1     -11.745  12.759  39.766  1.00  0.00     0.268 C 
HETATM    8  O1  UNL     1     -11.560  11.525  39.926  1.00  0.00    -0.266 OA
HETATM    9  N1  UNL     1     -13.071  13.236  39.764  1.00  0.00    -0.345 N 
ATOM     10  H1  UNL     1     -13.237  14.234  39.633  1.00  0.00     0.163 HD
BRANCH   9  11
HETATM   11  C2  UNL     1     -14.207  12.351  39.941  1.00  0.00     0.141 C 
BRANCH  11  12
HETATM   12  C3  UNL     1     -14.790  11.956  38.576  1.00  0.00     0.194 C 
BRANCH  12  13
HETATM   13  O2  UNL     1     -13.725  11.645  37.720  1.00  0.00    -0.399 OA
ATOM     14  H2  UNL     1     -14.001  11.822  36.828  1.00  0.00     0.209 HD
ENDBRANCH  12  13
ENDBRANCH  11  12
BRANCH  11  15
HETATM   15  C4  UNL     1     -15.260  12.961  40.780  1.00  0.00    -0.032 A 
HETATM   16  C5  UNL     1     -16.528  12.422  40.752  1.00  0.00     0.012 A 
HETATM   17  C6  UNL     1     -17.536  12.963  41.526  1.00  0.00     0.044 A 
HETATM   18  C7  UNL     1     -17.288  14.050  42.336  1.00  0.00     0.138 A 
HETATM   19  F1  UNL     1     -18.254  14.607  43.109  1.00  0.00    -0.204 F 
HETATM   20  C8  UNL     1     -16.024  14.617  42.388  1.00  0.00     0.073 A 
HETATM   21 CL1  UNL     1     -15.713  16.000  43.424  1.00  0.00    -0.081 Cl
HETATM   22  C9  UNL     1     -15.044  14.049  41.603  1.00  0.00     0.036 A 
ENDBRANCH  11  15
ENDBRANCH   9  11
ENDBRANCH   1   7
BRANCH   3  23
HETATM   23  C13 UNL     1      -8.650  16.069  37.579  1.00  0.00     0.072 A 
HETATM   24  N2  UNL     1      -8.892  17.391  37.439  1.00  0.00    -0.299 N 
HETATM   25  N3  UNL     1      -8.214  17.912  36.451  1.00  0.00    -0.310 N 
ATOM     26  H2  UNL     1      -9.530  17.919  38.034  1.00  0.00     0.187 HD
HETATM   27  C14 UNL     1      -7.492  16.939  35.900  1.00  0.00     0.121 A 
ATOM     28  H3  UNL     1      -8.233  18.889  36.155  1.00  0.00     0.186 HD
HETATM   29  C15 UNL     1      -7.744  15.751  36.591  1.00  0.00     0.020 A 
BRANCH  29  30
HETATM   30  C16 UNL     1      -7.185  14.436  36.335  1.00  0.00    -0.021 A 
HETATM   31  C17 UNL     1      -6.368  13.876  37.306  1.00  0.00     0.012 A 
HETATM   32  C18 UNL     1      -5.793  12.631  37.142  1.00  0.00     0.003 A 
HETATM   33  C19 UNL     1      -6.013  11.892  35.997  1.00  0.00     0.024 A 
HETATM   34  C20 UNL     1      -6.835  12.443  35.011  1.00  0.00     0.034 A 
HETATM   35 CL2  UNL     1      -7.188  11.601  33.518  1.00  0.00    -0.084 Cl
HETATM   36  C21 UNL     1      -7.394  13.688  35.202  1.00  0.00     0.036 A 
ENDBRANCH  29  30
ENDBRANCH   3  23
TORSDOF 7
ENDMDL
