MODEL 1
REMARK VINA RESULT: -10.232506645      0.000      0.000
REMARK  7 active torsions:
REMARK  status: ('A' for Active; 'I' for Inactive)
REMARK       I    between atoms: C1_2  and  N1_3 
REMARK    1  A    between atoms: C1_2  and  C10_17 
REMARK    2  A    between atoms: N1_3  and  C2_5 
REMARK    3  A    between atoms: C2_5  and  C3_6 
REMARK    4  A    between atoms: C2_5  and  C4_9 
REMARK    5  A    between atoms: C3_6  and  O2_7 
REMARK    6  A    between atoms: C12_19  and  C13_20 
REMARK    7  A    between atoms: C15_26  and  C16_27 
ROOT
HETATM    1  C10 UNL     1     -10.528  16.814  39.423  1.00  0.00     0.101 A 
HETATM    2  C11 UNL     1     -10.739  16.274  40.687  1.00  0.00     0.050 A 
HETATM    3  C12 UNL     1     -12.077  16.352  41.010  1.00  0.00     0.011 A 
HETATM    4  C22 UNL     1     -12.668  16.950  39.913  1.00  0.00     0.102 A 
HETATM    5  N4  UNL     1     -11.721  17.219  38.971  1.00  0.00    -0.361 N 
ATOM      6  H4  UNL     1     -11.893  17.659  38.067  1.00  0.00     0.165 HD
ENDROOT
BRANCH   1   7
HETATM    7  C1  UNL     1      -9.213  16.889  38.760  1.00  0.00     0.268 C 
HETATM    8  O1  UNL     1      -8.351  17.732  39.120  1.00  0.00    -0.266 OA
HETATM    9  N1  UNL     1      -8.887  16.018  37.702  1.00  0.00    -0.345 N 
ATOM     10  H1  UNL     1      -9.576  15.331  37.397  1.00  0.00     0.163 HD
BRANCH   9  11
HETATM   11  C2  UNL     1      -7.601  16.069  37.032  1.00  0.00     0.141 C 
BRANCH  11  12
HETATM   12  C3  UNL     1      -7.711  16.881  35.733  1.00  0.00     0.194 C 
BRANCH  12  13
HETATM   13  O2  UNL     1      -7.673  18.241  36.064  1.00  0.00    -0.399 OA
ATOM     14  H2  UNL     1      -8.498  18.469  36.477  1.00  0.00     0.209 HD
ENDBRANCH  12  13
ENDBRANCH  11  12
BRANCH  11  15
HETATM   15  C4  UNL     1      -7.075  14.719  36.738  1.00  0.00    -0.032 A 
HETATM   16  C5  UNL     1      -6.251  14.111  37.661  1.00  0.00     0.012 A 
HETATM   17  C6  UNL     1      -5.743  12.849  37.422  1.00  0.00     0.044 A 
HETATM   18  C7  UNL     1      -6.055  12.179  36.259  1.00  0.00     0.138 A 
HETATM   19  F1  UNL     1      -5.576  10.939  35.992  1.00  0.00    -0.204 F 
HETATM   20  C8  UNL     1      -6.882  12.760  35.311  1.00  0.00     0.073 A 
HETATM   21 CL1  UNL     1      -7.277  11.902  33.831  1.00  0.00    -0.081 Cl
HETATM   22  C9  UNL     1      -7.369  14.021  35.584  1.00  0.00     0.036 A 
ENDBRANCH  11  15
ENDBRANCH   9  11
ENDBRANCH   1   7
BRANCH   3  23
HETATM   23  C13 UNL     1     -12.689  15.898  42.260  1.00  0.00     0.072 A 
HETATM   24  N2  UNL     1     -12.642  16.514  43.461  1.00  0.00    -0.299 N 
HETATM   25  N3  UNL     1     -13.297  15.853  44.379  1.00  0.00    -0.310 N 
ATOM     26  H2  UNL     1     -12.153  17.394  43.632  1.00  0.00     0.187 HD
HETATM   27  C14 UNL     1     -13.804  14.764  43.805  1.00  0.00     0.121 A 
ATOM     28  H3  UNL     1     -13.400  16.122  45.358  1.00  0.00     0.186 HD
HETATM   29  C15 UNL     1     -13.437  14.758  42.457  1.00  0.00     0.020 A 
BRANCH  29  30
HETATM   30  C16 UNL     1     -13.760  13.763  41.451  1.00  0.00    -0.021 A 
HETATM   31  C17 UNL     1     -15.074  13.677  41.018  1.00  0.00     0.012 A 
HETATM   32  C18 UNL     1     -15.467  12.757  40.066  1.00  0.00     0.003 A 
HETATM   33  C19 UNL     1     -14.559  11.882  39.505  1.00  0.00     0.024 A 
HETATM   34  C20 UNL     1     -13.230  11.958  39.932  1.00  0.00     0.034 A 
HETATM   35 CL2  UNL     1     -11.988  10.903  39.293  1.00  0.00    -0.084 Cl
HETATM   36  C21 UNL     1     -12.867  12.886  40.884  1.00  0.00     0.036 A 
ENDBRANCH  29  30
ENDBRANCH   3  23
TORSDOF 7
ENDMDL
