MODEL 4
REMARK VINA RESULT: -9.769433654      3.518      5.042
REMARK  7 active torsions:
REMARK  status: ('A' for Active; 'I' for Inactive)
REMARK       I    between atoms: C1_2  and  N1_3 
REMARK    1  A    between atoms: C1_2  and  C10_17 
REMARK    2  A    between atoms: N1_3  and  C2_5 
REMARK    3  A    between atoms: C2_5  and  C3_6 
REMARK    4  A    between atoms: C2_5  and  C4_9 
REMARK    5  A    between atoms: C3_6  and  O2_7 
REMARK    6  A    between atoms: C12_19  and  C13_20 
REMARK    7  A    between atoms: C15_26  and  C16_27 
ROOT
HETATM    1  C10 UNL     1     -13.077  12.209  39.202  1.00  0.00     0.101 A 
HETATM    2  C11 UNL     1     -14.003  12.458  40.210  1.00  0.00     0.050 A 
HETATM    3  C12 UNL     1     -15.262  12.089  39.788  1.00  0.00     0.011 A 
HETATM    4  C22 UNL     1     -15.076  11.611  38.505  1.00  0.00     0.102 A 
HETATM    5  N4  UNL     1     -13.757  11.691  38.171  1.00  0.00    -0.361 N 
ATOM      6  H4  UNL     1     -13.352  11.404  37.280  1.00  0.00     0.165 HD
ENDROOT
BRANCH   1   7
HETATM    7  C1  UNL     1     -11.632  12.480  39.314  1.00  0.00     0.268 C 
HETATM    8  O1  UNL     1     -10.784  11.568  39.138  1.00  0.00    -0.266 OA
HETATM    9  N1  UNL     1     -11.162  13.772  39.624  1.00  0.00    -0.345 N 
ATOM     10  H1  UNL     1     -11.838  14.521  39.772  1.00  0.00     0.163 HD
BRANCH   9  11
HETATM   11  C2  UNL     1      -9.747  14.068  39.740  1.00  0.00     0.141 C 
BRANCH  11  12
HETATM   12  C3  UNL     1      -9.496  15.005  40.931  1.00  0.00     0.194 C 
BRANCH  12  13
HETATM   13  O2  UNL     1      -9.180  14.218  42.046  1.00  0.00    -0.399 OA
ATOM     14  H2  UNL     1      -9.048  14.795  42.789  1.00  0.00     0.209 HD
ENDBRANCH  12  13
ENDBRANCH  11  12
BRANCH  11  15
HETATM   15  C4  UNL     1      -9.204  14.671  38.504  1.00  0.00    -0.032 A 
HETATM   16  C5  UNL     1      -9.441  16.006  38.255  1.00  0.00     0.012 A 
HETATM   17  C6  UNL     1      -8.946  16.604  37.113  1.00  0.00     0.044 A 
HETATM   18  C7  UNL     1      -8.207  15.874  36.207  1.00  0.00     0.138 A 
HETATM   19  F1  UNL     1      -7.705  16.429  35.075  1.00  0.00    -0.204 F 
HETATM   20  C8  UNL     1      -7.949  14.531  36.426  1.00  0.00     0.073 A 
HETATM   21 CL1  UNL     1      -7.006  13.606  35.269  1.00  0.00    -0.081 Cl
HETATM   22  C9  UNL     1      -8.460  13.969  37.577  1.00  0.00     0.036 A 
ENDBRANCH  11  15
ENDBRANCH   9  11
ENDBRANCH   1   7
BRANCH   3  23
HETATM   23  C13 UNL     1     -16.499  12.207  40.563  1.00  0.00     0.072 A 
HETATM   24  N2  UNL     1     -17.499  11.303  40.643  1.00  0.00    -0.299 N 
HETATM   25  N3  UNL     1     -18.464  11.706  41.427  1.00  0.00    -0.310 N 
ATOM     26  H2  UNL     1     -17.500  10.410  40.149  1.00  0.00     0.187 HD
HETATM   27  C14 UNL     1     -18.127  12.905  41.895  1.00  0.00     0.121 A 
ATOM     28  H3  UNL     1     -19.321  11.195  41.640  1.00  0.00     0.186 HD
HETATM   29  C15 UNL     1     -16.883  13.258  41.367  1.00  0.00     0.020 A 
BRANCH  29  30
HETATM   30  C16 UNL     1     -16.131  14.477  41.597  1.00  0.00    -0.021 A 
HETATM   31  C17 UNL     1     -16.329  15.539  40.727  1.00  0.00     0.012 A 
HETATM   32  C18 UNL     1     -15.652  16.734  40.873  1.00  0.00     0.003 A 
HETATM   33  C19 UNL     1     -14.747  16.918  41.899  1.00  0.00     0.024 A 
HETATM   34  C20 UNL     1     -14.537  15.857  42.784  1.00  0.00     0.034 A 
HETATM   35 CL2  UNL     1     -13.417  15.971  44.123  1.00  0.00    -0.084 Cl
HETATM   36  C21 UNL     1     -15.227  14.676  42.613  1.00  0.00     0.036 A 
ENDBRANCH  29  30
ENDBRANCH   3  23
TORSDOF 7
ENDMDL
