MODEL 2
REMARK VINA RESULT: -9.851439503      3.821      5.289
REMARK  7 active torsions:
REMARK  status: ('A' for Active; 'I' for Inactive)
REMARK       I    between atoms: C1_2  and  N1_3 
REMARK    1  A    between atoms: C1_2  and  C10_17 
REMARK    2  A    between atoms: N1_3  and  C2_5 
REMARK    3  A    between atoms: C2_5  and  C3_6 
REMARK    4  A    between atoms: C2_5  and  C4_9 
REMARK    5  A    between atoms: C3_6  and  O2_7 
REMARK    6  A    between atoms: C12_19  and  C13_20 
REMARK    7  A    between atoms: C15_26  and  C16_27 
ROOT
HETATM    1  C10 UNL     1     -13.224  11.988  39.153  1.00  0.00     0.101 A 
HETATM    2  C11 UNL     1     -14.156  12.232  40.156  1.00  0.00     0.050 A 
HETATM    3  C12 UNL     1     -15.427  11.997  39.678  1.00  0.00     0.011 A 
HETATM    4  C22 UNL     1     -15.242  11.607  38.366  1.00  0.00     0.102 A 
HETATM    5  N4  UNL     1     -13.912  11.607  38.069  1.00  0.00    -0.361 N 
ATOM      6  H4  UNL     1     -13.505  11.358  37.167  1.00  0.00     0.165 HD
ENDROOT
BRANCH   1   7
HETATM    7  C1  UNL     1     -11.766  12.135  39.318  1.00  0.00     0.268 C 
HETATM    8  O1  UNL     1     -10.991  11.156  39.154  1.00  0.00    -0.266 OA
HETATM    9  N1  UNL     1     -11.200  13.377  39.667  1.00  0.00    -0.345 N 
ATOM     10  H1  UNL     1     -11.815  14.178  39.806  1.00  0.00     0.163 HD
BRANCH   9  11
HETATM   11  C2  UNL     1      -9.770  13.551  39.835  1.00  0.00     0.141 C 
BRANCH  11  12
HETATM   12  C3  UNL     1      -9.475  14.286  41.151  1.00  0.00     0.194 C 
BRANCH  12  13
HETATM   13  O2  UNL     1     -10.067  13.564  42.196  1.00  0.00    -0.399 OA
ATOM     14  H2  UNL     1     -10.171  14.148  42.938  1.00  0.00     0.209 HD
ENDBRANCH  12  13
ENDBRANCH  11  12
BRANCH  11  15
HETATM   15  C4  UNL     1      -9.163  14.283  38.704  1.00  0.00    -0.032 A 
HETATM   16  C5  UNL     1      -8.055  13.749  38.083  1.00  0.00     0.012 A 
HETATM   17  C6  UNL     1      -7.463  14.404  37.021  1.00  0.00     0.044 A 
HETATM   18  C7  UNL     1      -7.974  15.600  36.565  1.00  0.00     0.138 A 
HETATM   19  F1  UNL     1      -7.420  16.269  35.524  1.00  0.00    -0.204 F 
HETATM   20  C8  UNL     1      -9.088  16.165  37.165  1.00  0.00     0.073 A 
HETATM   21 CL1  UNL     1      -9.736  17.688  36.580  1.00  0.00    -0.081 Cl
HETATM   22  C9  UNL     1      -9.650  15.482  38.223  1.00  0.00     0.036 A 
ENDBRANCH  11  15
ENDBRANCH   9  11
ENDBRANCH   1   7
BRANCH   3  23
HETATM   23  C13 UNL     1     -16.672  12.153  40.433  1.00  0.00     0.072 A 
HETATM   24  N2  UNL     1     -17.708  11.287  40.482  1.00  0.00    -0.299 N 
HETATM   25  N3  UNL     1     -18.671  11.717  41.254  1.00  0.00    -0.310 N 
ATOM     26  H2  UNL     1     -17.734  10.401  39.977  1.00  0.00     0.187 HD
HETATM   27  C14 UNL     1     -18.297  12.897  41.745  1.00  0.00     0.121 A 
ATOM     28  H3  UNL     1     -19.551  11.237  41.445  1.00  0.00     0.186 HD
HETATM   29  C15 UNL     1     -17.030  13.207  41.244  1.00  0.00     0.020 A 
BRANCH  29  30
HETATM   30  C16 UNL     1     -16.237  14.394  41.504  1.00  0.00    -0.021 A 
HETATM   31  C17 UNL     1     -16.395  15.482  40.660  1.00  0.00     0.012 A 
HETATM   32  C18 UNL     1     -15.678  16.649  40.835  1.00  0.00     0.003 A 
HETATM   33  C19 UNL     1     -14.769  16.776  41.866  1.00  0.00     0.024 A 
HETATM   34  C20 UNL     1     -14.599  15.688  42.726  1.00  0.00     0.034 A 
HETATM   35 CL2  UNL     1     -13.478  15.732  44.069  1.00  0.00    -0.084 Cl
HETATM   36  C21 UNL     1     -15.329  14.537  42.526  1.00  0.00     0.036 A 
ENDBRANCH  29  30
ENDBRANCH   3  23
TORSDOF 7
ENDMDL
