MODEL 6
REMARK VINA RESULT: -7.970496866      4.862      6.860
REMARK  8 active torsions:
REMARK  status: ('A' for Active; 'I' for Inactive)
REMARK    1  A    between atoms: N1_1  and  C1_5 
REMARK    2  A    between atoms: C1_5  and  C2_6 
REMARK    3  A    between atoms: C1_5  and  C16_25 
REMARK    4  A    between atoms: C2_6  and  C3_7 
REMARK       I    between atoms: C3_7  and  N2_9 
REMARK    5  A    between atoms: N3_15  and  C9_16 
REMARK    6  A    between atoms: C9_16  and  O2_17 
REMARK    7  A    between atoms: C9_16  and  C10_19 
REMARK    8  A    between atoms: C16_25  and  C17_26 
ROOT
HETATM    1  C3  UNL     1      -3.816   2.134  -3.390  1.00  0.00     0.240 C 
HETATM    2  O1  UNL     1      -3.268   1.194  -4.070  1.00  0.00    -0.272 OA
HETATM    3  N2  UNL     1      -3.478   3.453  -3.827  1.00  0.00    -0.257 N 
HETATM    4  C4  UNL     1      -2.703   3.464  -5.072  1.00  0.00     0.152 C 
HETATM    5  C5  UNL     1      -3.183   4.470  -6.069  1.00  0.00     0.022 C 
HETATM    6  C6  UNL     1      -3.547   5.803  -5.519  1.00  0.00     0.003 C 
HETATM    7  C7  UNL     1      -4.908   5.831  -4.867  1.00  0.00     0.022 C 
HETATM    8  C8  UNL     1      -4.843   5.545  -3.396  1.00  0.00     0.152 C 
HETATM    9  N3  UNL     1      -3.906   4.503  -3.029  1.00  0.00    -0.266 N 
ENDROOT
BRANCH   1  10
HETATM   10  C2  UNL     1      -4.684   1.719  -2.307  1.00  0.00     0.137 C 
BRANCH  10  11
HETATM   11  C1  UNL     1      -5.126   0.256  -2.449  1.00  0.00     0.196 C 
BRANCH  11  12
HETATM   12  N1  UNL     1      -6.253   0.204  -3.358  1.00  0.00    -0.074 N 
ATOM     13  H13 UNL     1      -6.988  -0.426  -3.034  1.00  0.00     0.274 HD
ATOM     14  H12 UNL     1      -6.798   1.066  -3.357  1.00  0.00     0.274 HD
ATOM     15  H11 UNL     1      -5.907  -0.041  -4.285  1.00  0.00     0.274 HD
ENDBRANCH  11  12
BRANCH  11  16
HETATM   16  C16 UNL     1      -5.569  -0.182  -1.074  1.00  0.00     0.075 C 
BRANCH  16  17
HETATM   17  C17 UNL     1      -5.131  -1.533  -0.727  1.00  0.00    -0.015 A 
HETATM   18  C18 UNL     1      -3.817  -1.825  -0.443  1.00  0.00     0.055 A 
HETATM   19  C19 UNL     1      -3.480  -3.127  -0.125  1.00  0.00     0.155 A 
HETATM   20  F1  UNL     1      -2.163  -3.378   0.151  1.00  0.00    -0.203 F 
HETATM   21  C20 UNL     1      -4.425  -4.144  -0.086  1.00  0.00     0.157 A 
HETATM   22  F2  UNL     1      -4.033  -5.410   0.233  1.00  0.00    -0.203 F 
HETATM   23  C21 UNL     1      -5.741  -3.847  -0.371  1.00  0.00     0.088 A 
HETATM   24  C22 UNL     1      -6.072  -2.552  -0.686  1.00  0.00     0.125 A 
HETATM   25  F3  UNL     1      -7.395  -2.309  -0.962  1.00  0.00    -0.205 F 
ENDBRANCH  16  17
ENDBRANCH  11  16
ENDBRANCH  10  11
ENDBRANCH   1  10
BRANCH   9  26
HETATM   26  C9  UNL     1      -3.463   4.543  -1.701  1.00  0.00     0.167 C 
BRANCH  26  27
HETATM   27  O2  UNL     1      -2.295   3.991  -1.522  1.00  0.00    -0.344 OA
ATOM     28  H2  UNL     1      -1.807   4.358  -0.794  1.00  0.00     0.219 HD
ENDBRANCH  26  27
BRANCH  26  29
HETATM   29  C10 UNL     1      -4.046   5.065  -0.504  1.00  0.00     0.016 A 
HETATM   30  C11 UNL     1      -3.462   4.769   0.735  1.00  0.00     0.016 A 
HETATM   31  C12 UNL     1      -3.996   5.190   1.928  1.00  0.00     0.001 A 
HETATM   32  C13 UNL     1      -5.154   5.933   1.964  1.00  0.00     0.000 A 
HETATM   33  C14 UNL     1      -5.752   6.239   0.775  1.00  0.00     0.001 A 
HETATM   34  C15 UNL     1      -5.198   5.806  -0.427  1.00  0.00     0.016 A 
ENDBRANCH  26  29
ENDBRANCH   9  26
TORSDOF 8
ENDMDL
