MODEL 17
REMARK VINA RESULT: -7.571691379      4.736      6.562
REMARK  8 active torsions:
REMARK  status: ('A' for Active; 'I' for Inactive)
REMARK    1  A    between atoms: N1_1  and  C1_5 
REMARK    2  A    between atoms: C1_5  and  C2_6 
REMARK    3  A    between atoms: C1_5  and  C16_25 
REMARK    4  A    between atoms: C2_6  and  C3_7 
REMARK       I    between atoms: C3_7  and  N2_9 
REMARK    5  A    between atoms: N3_15  and  C9_16 
REMARK    6  A    between atoms: C9_16  and  O2_17 
REMARK    7  A    between atoms: C9_16  and  C10_19 
REMARK    8  A    between atoms: C16_25  and  C17_26 
ROOT
HETATM    1  C3  UNL     1      -3.855   2.228  -3.494  1.00  0.00     0.240 C 
HETATM    2  O1  UNL     1      -3.361   1.245  -4.154  1.00  0.00    -0.272 OA
HETATM    3  N2  UNL     1      -3.290   3.501  -3.817  1.00  0.00    -0.257 N 
HETATM    4  C4  UNL     1      -2.373   3.448  -4.960  1.00  0.00     0.152 C 
HETATM    5  C5  UNL     1      -2.584   4.548  -5.950  1.00  0.00     0.022 C 
HETATM    6  C6  UNL     1      -2.828   5.898  -5.376  1.00  0.00     0.003 C 
HETATM    7  C7  UNL     1      -4.243   6.095  -4.888  1.00  0.00     0.022 C 
HETATM    8  C8  UNL     1      -4.400   5.748  -3.437  1.00  0.00     0.152 C 
HETATM    9  N3  UNL     1      -3.666   4.571  -3.019  1.00  0.00    -0.266 N 
ENDROOT
BRANCH   1  10
HETATM   10  C2  UNL     1      -4.900   1.901  -2.544  1.00  0.00     0.137 C 
BRANCH  10  11
HETATM   11  C1  UNL     1      -4.485   0.766  -1.598  1.00  0.00     0.196 C 
BRANCH  11  12
HETATM   12  N1  UNL     1      -3.074   0.909  -1.302  1.00  0.00    -0.074 N 
ATOM     13  H13 UNL     1      -2.581   1.461  -2.004  1.00  0.00     0.274 HD
ATOM     14  H12 UNL     1      -2.901   1.514  -0.500  1.00  0.00     0.274 HD
ATOM     15  H11 UNL     1      -2.674  -0.022  -1.184  1.00  0.00     0.274 HD
ENDBRANCH  11  12
BRANCH  11  16
HETATM   16  C16 UNL     1      -4.711  -0.518  -2.360  1.00  0.00     0.075 C 
BRANCH  16  17
HETATM   17  C17 UNL     1      -6.007  -1.134  -2.086  1.00  0.00    -0.015 A 
HETATM   18  C18 UNL     1      -7.014  -1.170  -3.024  1.00  0.00     0.055 A 
HETATM   19  C19 UNL     1      -8.213  -1.769  -2.688  1.00  0.00     0.155 A 
HETATM   20  F1  UNL     1      -9.189  -1.784  -3.648  1.00  0.00    -0.203 F 
HETATM   21  C20 UNL     1      -8.430  -2.333  -1.439  1.00  0.00     0.157 A 
HETATM   22  F2  UNL     1      -9.635  -2.909  -1.165  1.00  0.00    -0.203 F 
HETATM   23  C21 UNL     1      -7.420  -2.295  -0.501  1.00  0.00     0.088 A 
HETATM   24  C22 UNL     1      -6.229  -1.700  -0.838  1.00  0.00     0.125 A 
HETATM   25  F3  UNL     1      -5.255  -1.689   0.130  1.00  0.00    -0.205 F 
ENDBRANCH  16  17
ENDBRANCH  11  16
ENDBRANCH  10  11
ENDBRANCH   1  10
BRANCH   9  26
HETATM   26  C9  UNL     1      -3.390   4.499  -1.648  1.00  0.00     0.167 C 
BRANCH  26  27
HETATM   27  O2  UNL     1      -2.303   3.834  -1.367  1.00  0.00    -0.344 OA
ATOM     28  H2  UNL     1      -2.460   2.924  -1.145  1.00  0.00     0.219 HD
ENDBRANCH  26  27
BRANCH  26  29
HETATM   29  C10 UNL     1      -4.071   5.006  -0.497  1.00  0.00     0.016 A 
HETATM   30  C11 UNL     1      -3.486   4.871   0.768  1.00  0.00     0.016 A 
HETATM   31  C12 UNL     1      -4.105   5.285   1.922  1.00  0.00     0.001 A 
HETATM   32  C13 UNL     1      -5.354   5.862   1.889  1.00  0.00     0.000 A 
HETATM   33  C14 UNL     1      -5.956   6.008   0.673  1.00  0.00     0.001 A 
HETATM   34  C15 UNL     1      -5.316   5.584  -0.489  1.00  0.00     0.016 A 
ENDBRANCH  26  29
ENDBRANCH   9  26
TORSDOF 8
ENDMDL
