MODEL 7
REMARK VINA RESULT: -7.921148093      1.907      2.383
REMARK  8 active torsions:
REMARK  status: ('A' for Active; 'I' for Inactive)
REMARK    1  A    between atoms: N1_1  and  C1_5 
REMARK    2  A    between atoms: C1_5  and  C2_6 
REMARK    3  A    between atoms: C1_5  and  C16_25 
REMARK    4  A    between atoms: C2_6  and  C3_7 
REMARK       I    between atoms: C3_7  and  N2_9 
REMARK    5  A    between atoms: N3_15  and  C9_16 
REMARK    6  A    between atoms: C9_16  and  O2_17 
REMARK    7  A    between atoms: C9_16  and  C10_19 
REMARK    8  A    between atoms: C16_25  and  C17_26 
ROOT
HETATM    1  C3  UNL     1      -3.812   5.729  -5.492  1.00  0.00     0.240 C 
HETATM    2  O1  UNL     1      -4.721   6.615  -5.305  1.00  0.00    -0.272 OA
HETATM    3  N2  UNL     1      -4.032   4.887  -6.628  1.00  0.00    -0.257 N 
HETATM    4  C4  UNL     1      -5.170   5.316  -7.447  1.00  0.00     0.152 C 
HETATM    5  C5  UNL     1      -4.884   5.320  -8.915  1.00  0.00     0.022 C 
HETATM    6  C6  UNL     1      -4.118   4.153  -9.428  1.00  0.00     0.003 C 
HETATM    7  C7  UNL     1      -2.635   4.247  -9.162  1.00  0.00     0.022 C 
HETATM    8  C8  UNL     1      -2.244   3.590  -7.871  1.00  0.00     0.152 C 
HETATM    9  N3  UNL     1      -3.173   3.810  -6.781  1.00  0.00    -0.266 N 
ENDROOT
BRANCH   1  10
HETATM   10  C2  UNL     1      -2.717   5.724  -4.544  1.00  0.00     0.137 C 
BRANCH  10  11
HETATM   11  C1  UNL     1      -3.162   6.175  -3.146  1.00  0.00     0.196 C 
BRANCH  11  12
HETATM   12  N1  UNL     1      -1.999   6.658  -2.428  1.00  0.00    -0.074 N 
ATOM     13  H13 UNL     1      -1.462   5.903  -2.000  1.00  0.00     0.274 HD
ATOM     14  H12 UNL     1      -1.273   7.010  -3.052  1.00  0.00     0.274 HD
ATOM     15  H11 UNL     1      -2.306   7.355  -1.750  1.00  0.00     0.274 HD
ENDBRANCH  11  12
BRANCH  11  16
HETATM   16  C16 UNL     1      -3.699   4.942  -2.460  1.00  0.00     0.075 C 
BRANCH  16  17
HETATM   17  C17 UNL     1      -3.917   5.125  -1.026  1.00  0.00    -0.015 A 
HETATM   18  C18 UNL     1      -4.906   5.948  -0.536  1.00  0.00     0.055 A 
HETATM   19  C19 UNL     1      -5.049   6.071   0.832  1.00  0.00     0.155 A 
HETATM   20  F1  UNL     1      -6.044   6.898   1.281  1.00  0.00    -0.203 F 
HETATM   21  C20 UNL     1      -4.228   5.394   1.723  1.00  0.00     0.157 A 
HETATM   22  F2  UNL     1      -4.416   5.556   3.064  1.00  0.00    -0.203 F 
HETATM   23  C21 UNL     1      -3.238   4.571   1.229  1.00  0.00     0.088 A 
HETATM   24  C22 UNL     1      -3.099   4.450  -0.132  1.00  0.00     0.125 A 
HETATM   25  F3  UNL     1      -2.099   3.619  -0.573  1.00  0.00    -0.205 F 
ENDBRANCH  16  17
ENDBRANCH  11  16
ENDBRANCH  10  11
ENDBRANCH   1  10
BRANCH   9  26
HETATM   26  C9  UNL     1      -3.119   2.859  -5.754  1.00  0.00     0.167 C 
BRANCH  26  27
HETATM   27  O2  UNL     1      -1.906   2.545  -5.393  1.00  0.00    -0.344 OA
ATOM     28  H2  UNL     1      -1.281   3.253  -5.500  1.00  0.00     0.219 HD
ENDBRANCH  26  27
BRANCH  26  29
HETATM   29  C10 UNL     1      -4.137   2.162  -5.029  1.00  0.00     0.016 A 
HETATM   30  C11 UNL     1      -3.825   1.567  -3.801  1.00  0.00     0.016 A 
HETATM   31  C12 UNL     1      -4.735   0.837  -3.076  1.00  0.00     0.001 A 
HETATM   32  C13 UNL     1      -6.020   0.650  -3.533  1.00  0.00     0.000 A 
HETATM   33  C14 UNL     1      -6.359   1.216  -4.729  1.00  0.00     0.001 A 
HETATM   34  C15 UNL     1      -5.425   1.954  -5.452  1.00  0.00     0.016 A 
ENDBRANCH  26  29
ENDBRANCH   9  26
TORSDOF 8
ENDMDL
