MODEL 11
REMARK VINA RESULT: -7.738589113      3.814      6.482
REMARK  8 active torsions:
REMARK  status: ('A' for Active; 'I' for Inactive)
REMARK    1  A    between atoms: N1_1  and  C1_5 
REMARK    2  A    between atoms: C1_5  and  C2_6 
REMARK    3  A    between atoms: C1_5  and  C16_25 
REMARK    4  A    between atoms: C2_6  and  C3_7 
REMARK       I    between atoms: C3_7  and  N2_9 
REMARK    5  A    between atoms: N3_15  and  C9_16 
REMARK    6  A    between atoms: C9_16  and  O2_17 
REMARK    7  A    between atoms: C9_16  and  C10_19 
REMARK    8  A    between atoms: C16_25  and  C17_26 
ROOT
HETATM    1  C3  UNL     1      -3.668   2.440  -1.706  1.00  0.00     0.240 C 
HETATM    2  O1  UNL     1      -2.818   2.466  -0.745  1.00  0.00    -0.272 OA
HETATM    3  N2  UNL     1      -3.957   1.130  -2.203  1.00  0.00    -0.257 N 
HETATM    4  C4  UNL     1      -3.347   0.065  -1.402  1.00  0.00     0.152 C 
HETATM    5  C5  UNL     1      -4.278  -1.066  -1.100  1.00  0.00     0.022 C 
HETATM    6  C6  UNL     1      -5.139  -1.514  -2.228  1.00  0.00     0.003 C 
HETATM    7  C7  UNL     1      -6.334  -0.622  -2.459  1.00  0.00     0.022 C 
HETATM    8  C8  UNL     1      -6.054   0.460  -3.460  1.00  0.00     0.152 C 
HETATM    9  N3  UNL     1      -4.739   1.056  -3.346  1.00  0.00    -0.266 N 
ENDROOT
BRANCH   1  10
HETATM   10  C2  UNL     1      -4.201   3.720  -2.125  1.00  0.00     0.137 C 
BRANCH  10  11
HETATM   11  C1  UNL     1      -3.098   4.677  -2.600  1.00  0.00     0.196 C 
BRANCH  11  12
HETATM   12  N1  UNL     1      -2.476   5.273  -1.435  1.00  0.00    -0.074 N 
ATOM     13  H13 UNL     1      -2.667   4.751  -0.579  1.00  0.00     0.274 HD
ATOM     14  H12 UNL     1      -1.462   5.172  -1.438  1.00  0.00     0.274 HD
ATOM     15  H11 UNL     1      -2.773   6.247  -1.375  1.00  0.00     0.274 HD
ENDBRANCH  11  12
BRANCH  11  16
HETATM   16  C16 UNL     1      -3.792   5.750  -3.403  1.00  0.00     0.075 C 
BRANCH  16  17
HETATM   17  C17 UNL     1      -3.350   5.809  -4.795  1.00  0.00    -0.015 A 
HETATM   18  C18 UNL     1      -2.349   4.999  -5.280  1.00  0.00     0.055 A 
HETATM   19  C19 UNL     1      -1.985   5.115  -6.607  1.00  0.00     0.155 A 
HETATM   20  F1  UNL     1      -0.985   4.292  -7.051  1.00  0.00    -0.203 F 
HETATM   21  C20 UNL     1      -2.597   6.022  -7.462  1.00  0.00     0.157 A 
HETATM   22  F2  UNL     1      -2.194   6.092  -8.763  1.00  0.00    -0.203 F 
HETATM   23  C21 UNL     1      -3.599   6.832  -6.974  1.00  0.00     0.088 A 
HETATM   24  C22 UNL     1      -3.959   6.714  -5.654  1.00  0.00     0.125 A 
HETATM   25  F3  UNL     1      -4.962   7.543  -5.216  1.00  0.00    -0.205 F 
ENDBRANCH  16  17
ENDBRANCH  11  16
ENDBRANCH  10  11
ENDBRANCH   1  10
BRANCH   9  26
HETATM   26  C9  UNL     1      -4.267   1.682  -4.508  1.00  0.00     0.167 C 
BRANCH  26  27
HETATM   27  O2  UNL     1      -2.990   1.513  -4.712  1.00  0.00    -0.344 OA
ATOM     28  H2  UNL     1      -2.681   1.889  -5.527  1.00  0.00     0.219 HD
ENDBRANCH  26  27
BRANCH  26  29
HETATM   29  C10 UNL     1      -4.913   2.476  -5.507  1.00  0.00     0.016 A 
HETATM   30  C11 UNL     1      -4.451   2.432  -6.829  1.00  0.00     0.016 A 
HETATM   31  C12 UNL     1      -4.986   3.206  -7.829  1.00  0.00     0.001 A 
HETATM   32  C13 UNL     1      -6.019   4.078  -7.576  1.00  0.00     0.000 A 
HETATM   33  C14 UNL     1      -6.494   4.148  -6.298  1.00  0.00     0.001 A 
HETATM   34  C15 UNL     1      -5.942   3.357  -5.293  1.00  0.00     0.016 A 
ENDBRANCH  26  29
ENDBRANCH   9  26
TORSDOF 8
ENDMDL
