MODEL 7
REMARK VINA RESULT: -7.206384077      2.763      6.790
REMARK  5 active torsions:
REMARK  status: ('A' for Active; 'I' for Inactive)
REMARK    1  A    between atoms: C4_9  and  C5_10 
REMARK    2  A    between atoms: C6_14  and  C7_15 
REMARK    3  A    between atoms: C7_15  and  O2_16 
REMARK    4  A    between atoms: C8_18  and  O3_19 
REMARK    5  A    between atoms: C9_21  and  O4_22 
ROOT
HETATM    1  C5  UNL     1      14.495  12.810  60.009  1.00  0.00     0.254 C 
HETATM    2  N3  UNL     1      15.542  13.061  59.108  1.00  0.00    -0.055 N 
ATOM      3  H31 UNL     1      16.492  12.939  59.461  1.00  0.00     0.278 HD
ATOM      4  H32 UNL     1      15.697  14.033  58.844  1.00  0.00     0.278 HD
HETATM    5  C6  UNL     1      15.098  12.121  58.015  1.00  0.00     0.241 C 
HETATM    6  C8  UNL     1      13.737  12.763  57.742  1.00  0.00     0.182 C 
HETATM    7  C9  UNL     1      13.213  12.827  59.167  1.00  0.00     0.184 C 
ENDROOT
BRANCH   1   8
HETATM    8  C4  UNL     1      14.324  13.502  61.255  1.00  0.00     0.019 A 
HETATM    9  C3  UNL     1      14.173  14.821  61.504  1.00  0.00     0.075 A 
HETATM   10  N2  UNL     1      13.939  15.828  60.628  1.00  0.00    -0.350 N 
HETATM   11  C11 UNL     1      14.185  15.033  62.864  1.00  0.00     0.128 A 
HETATM   12  C2  UNL     1      13.709  17.067  61.077  1.00  0.00     0.184 A 
ATOM     13  H2  UNL     1      13.940  15.640  59.625  1.00  0.00     0.166 HD
HETATM   14  N1  UNL     1      13.720  17.299  62.425  1.00  0.00    -0.318 N 
HETATM   15  C1  UNL     1      13.950  16.314  63.311  1.00  0.00     0.275 A 
ATOM     16  H1  UNL     1      13.549  18.244  62.768  1.00  0.00     0.169 HD
HETATM   17  O1  UNL     1      13.966  16.506  64.554  1.00  0.00    -0.266 OA
HETATM   18  N4  UNL     1      14.342  13.831  63.442  1.00  0.00    -0.359 N 
HETATM   19  C10 UNL     1      14.429  12.879  62.505  1.00  0.00     0.100 A 
ATOM     20  H4  UNL     1      14.388  13.668  64.448  1.00  0.00     0.165 HD
ENDBRANCH   1   8
BRANCH   7  21
HETATM   21  O4  UNL     1      12.354  11.820  59.448  1.00  0.00    -0.390 OA
ATOM     22  H4  UNL     1      12.076  11.324  58.687  1.00  0.00     0.210 HD
ENDBRANCH   7  21
BRANCH   5  23
HETATM   23  C7  UNL     1      16.003  12.082  56.858  1.00  0.00     0.199 C 
BRANCH  23  24
HETATM   24  O2  UNL     1      15.711  12.992  55.829  1.00  0.00    -0.399 OA
ATOM     25  H2  UNL     1      14.824  12.959  55.491  1.00  0.00     0.209 HD
ENDBRANCH  23  24
ENDBRANCH   5  23
BRANCH   6  26
HETATM   26  O3  UNL     1      12.959  12.122  56.852  1.00  0.00    -0.391 OA
ATOM     27  H3  UNL     1      13.251  12.160  55.948  1.00  0.00     0.210 HD
ENDBRANCH   6  26
TORSDOF 5
ENDMDL
