MODEL 1
REMARK VINA RESULT: -8.757851215      0.000      0.000
REMARK  5 active torsions:
REMARK  status: ('A' for Active; 'I' for Inactive)
REMARK    1  A    between atoms: C4_9  and  C5_10 
REMARK    2  A    between atoms: C6_14  and  C7_15 
REMARK    3  A    between atoms: C7_15  and  O2_16 
REMARK    4  A    between atoms: C8_18  and  O3_19 
REMARK    5  A    between atoms: C9_21  and  O4_22 
ROOT
HETATM    1  C5  UNL     1      14.101  12.789  58.909  1.00  0.00     0.254 C 
HETATM    2  N3  UNL     1      14.841  12.526  60.073  1.00  0.00    -0.055 N 
ATOM      3  H31 UNL     1      15.839  12.739  60.042  1.00  0.00     0.278 HD
ATOM      4  H32 UNL     1      14.994  11.545  60.308  1.00  0.00     0.278 HD
HETATM    5  C6  UNL     1      14.002  13.334  61.032  1.00  0.00     0.241 C 
HETATM    6  C8  UNL     1      12.686  12.584  60.825  1.00  0.00     0.182 C 
HETATM    7  C9  UNL     1      12.630  12.614  59.306  1.00  0.00     0.184 C 
ENDROOT
BRANCH   1   8
HETATM    8  C4  UNL     1      14.382  12.201  57.629  1.00  0.00     0.019 A 
HETATM    9  C3  UNL     1      13.962  11.032  57.098  1.00  0.00     0.075 A 
HETATM   10  N2  UNL     1      13.001  10.192  57.551  1.00  0.00    -0.350 N 
HETATM   11  C11 UNL     1      14.602  10.821  55.898  1.00  0.00     0.128 A 
HETATM   12  C2  UNL     1      12.647   9.125  56.825  1.00  0.00     0.184 A 
ATOM     13  H2  UNL     1      12.547  10.373  58.446  1.00  0.00     0.166 HD
HETATM   14  N1  UNL     1      13.273   8.896  55.630  1.00  0.00    -0.318 N 
HETATM   15  C1  UNL     1      14.230   9.717  55.164  1.00  0.00     0.275 A 
ATOM     16  H1  UNL     1      13.008   8.080  55.078  1.00  0.00     0.169 HD
HETATM   17  O1  UNL     1      14.820   9.523  54.069  1.00  0.00    -0.266 OA
HETATM   18  N4  UNL     1      15.412  11.873  55.700  1.00  0.00    -0.359 N 
HETATM   19  C10 UNL     1      15.308  12.731  56.723  1.00  0.00     0.100 A 
ATOM     20  H4  UNL     1      16.019  12.000  54.890  1.00  0.00     0.165 HD
ENDBRANCH   1   8
BRANCH   7  21
HETATM   21  O4  UNL     1      11.812  13.585  58.838  1.00  0.00    -0.390 OA
ATOM     22  H4  UNL     1      11.482  14.171  59.509  1.00  0.00     0.210 HD
ENDBRANCH   7  21
BRANCH   5  23
HETATM   23  C7  UNL     1      14.503  13.327  62.414  1.00  0.00     0.199 C 
BRANCH  23  24
HETATM   24  O2  UNL     1      13.519  13.319  63.415  1.00  0.00    -0.399 OA
ATOM     25  H2  UNL     1      13.763  13.734  64.234  1.00  0.00     0.209 HD
ENDBRANCH  23  24
ENDBRANCH   5  23
BRANCH   6  26
HETATM   26  O3  UNL     1      11.620  13.091  61.468  1.00  0.00    -0.391 OA
ATOM     27  H3  UNL     1      10.878  12.505  61.561  1.00  0.00     0.210 HD
ENDBRANCH   6  26
TORSDOF 5
ENDMDL
