MODEL 5
REMARK VINA RESULT: -7.286594282      2.513      6.636
REMARK  5 active torsions:
REMARK  status: ('A' for Active; 'I' for Inactive)
REMARK    1  A    between atoms: C4_9  and  C5_10 
REMARK    2  A    between atoms: C6_14  and  C7_15 
REMARK    3  A    between atoms: C7_15  and  O2_16 
REMARK    4  A    between atoms: C8_18  and  O3_19 
REMARK    5  A    between atoms: C9_21  and  O4_22 
ROOT
HETATM    1  C5  UNL     1      14.295  13.064  59.283  1.00  0.00     0.254 C 
HETATM    2  N3  UNL     1      15.282  13.219  58.296  1.00  0.00    -0.055 N 
ATOM      3  H31 UNL     1      16.226  13.430  58.619  1.00  0.00     0.278 HD
ATOM      4  H32 UNL     1      15.224  14.056  57.716  1.00  0.00     0.278 HD
HETATM    5  C6  UNL     1      15.081  11.895  57.601  1.00  0.00     0.241 C 
HETATM    6  C8  UNL     1      13.619  12.099  57.203  1.00  0.00     0.182 C 
HETATM    7  C9  UNL     1      13.061  12.522  58.552  1.00  0.00     0.184 C 
ENDROOT
BRANCH   1   8
HETATM    8  C4  UNL     1      13.947  14.080  60.237  1.00  0.00     0.019 A 
HETATM    9  C3  UNL     1      14.422  14.305  61.481  1.00  0.00     0.075 A 
HETATM   10  N2  UNL     1      15.500  13.754  62.089  1.00  0.00    -0.350 N 
HETATM   11  C11 UNL     1      13.690  15.308  62.074  1.00  0.00     0.128 A 
HETATM   12  C2  UNL     1      15.881  14.185  63.297  1.00  0.00     0.184 A 
ATOM     13  H2  UNL     1      16.021  13.010  61.626  1.00  0.00     0.166 HD
HETATM   14  N1  UNL     1      15.164  15.179  63.906  1.00  0.00    -0.318 N 
HETATM   15  C1  UNL     1      14.091  15.738  63.319  1.00  0.00     0.275 A 
ATOM     16  H1  UNL     1      15.451  15.505  64.829  1.00  0.00     0.169 HD
HETATM   17  O1  UNL     1      13.418  16.652  63.862  1.00  0.00    -0.266 OA
HETATM   18  N4  UNL     1      12.767  15.695  61.180  1.00  0.00    -0.359 N 
HETATM   19  C10 UNL     1      12.889  14.979  60.055  1.00  0.00     0.100 A 
ATOM     20  H4  UNL     1      12.073  16.427  61.334  1.00  0.00     0.165 HD
ENDBRANCH   1   8
BRANCH   7  21
HETATM   21  O4  UNL     1      12.439  11.507  59.196  1.00  0.00    -0.390 OA
ATOM     22  H4  UNL     1      12.710  10.643  58.910  1.00  0.00     0.210 HD
ENDBRANCH   7  21
BRANCH   5  23
HETATM   23  C7  UNL     1      15.998  11.667  56.476  1.00  0.00     0.199 C 
BRANCH  23  24
HETATM   24  O2  UNL     1      15.388  11.371  55.246  1.00  0.00    -0.399 OA
ATOM     25  H2  UNL     1      14.850  12.062  54.878  1.00  0.00     0.209 HD
ENDBRANCH  23  24
ENDBRANCH   5  23
BRANCH   6  26
HETATM   26  O3  UNL     1      13.022  11.046  56.618  1.00  0.00    -0.391 OA
ATOM     27  H3  UNL     1      12.429  11.252  55.906  1.00  0.00     0.210 HD
ENDBRANCH   6  26
TORSDOF 5
ENDMDL
