MODEL 3
REMARK VINA RESULT: -8.211622974      2.330      6.266
REMARK  5 active torsions:
REMARK  status: ('A' for Active; 'I' for Inactive)
REMARK    1  A    between atoms: C4_9  and  C5_10 
REMARK    2  A    between atoms: C6_14  and  C7_15 
REMARK    3  A    between atoms: C7_15  and  O2_16 
REMARK    4  A    between atoms: C8_18  and  O3_19 
REMARK    5  A    between atoms: C9_21  and  O4_22 
ROOT
HETATM    1  C5  UNL     1      14.329  12.236  57.916  1.00  0.00     0.254 C 
HETATM    2  N3  UNL     1      13.812  10.935  58.019  1.00  0.00    -0.055 N 
ATOM      3  H31 UNL     1      12.958  10.821  58.566  1.00  0.00     0.278 HD
ATOM      4  H32 UNL     1      14.340  10.274  58.587  1.00  0.00     0.278 HD
HETATM    5  C6  UNL     1      13.717  10.639  56.542  1.00  0.00     0.241 C 
HETATM    6  C8  UNL     1      15.200  10.805  56.210  1.00  0.00     0.182 C 
HETATM    7  C9  UNL     1      15.441  12.157  56.863  1.00  0.00     0.184 C 
ENDROOT
BRANCH   1   8
HETATM    8  C4  UNL     1      14.719  13.036  59.043  1.00  0.00     0.019 A 
HETATM    9  C3  UNL     1      14.053  14.023  59.681  1.00  0.00     0.075 A 
HETATM   10  N2  UNL     1      12.754  14.389  59.556  1.00  0.00    -0.350 N 
HETATM   11  C11 UNL     1      14.880  14.598  60.619  1.00  0.00     0.128 A 
HETATM   12  C2  UNL     1      12.242  15.329  60.357  1.00  0.00     0.184 A 
ATOM     13  H2  UNL     1      12.167  13.946  58.849  1.00  0.00     0.166 HD
HETATM   14  N1  UNL     1      13.049  15.916  61.294  1.00  0.00    -0.318 N 
HETATM   15  C1  UNL     1      14.340  15.568  61.434  1.00  0.00     0.275 A 
ATOM     16  H1  UNL     1      12.660  16.637  61.903  1.00  0.00     0.169 HD
HETATM   17  O1  UNL     1      15.099  16.096  62.288  1.00  0.00    -0.266 OA
HETATM   18  N4  UNL     1      16.054  13.952  60.550  1.00  0.00    -0.359 N 
HETATM   19  C10 UNL     1      15.998  12.999  59.611  1.00  0.00     0.100 A 
ATOM     20  H4  UNL     1      16.869  14.157  61.127  1.00  0.00     0.165 HD
ENDBRANCH   1   8
BRANCH   7  21
HETATM   21  O4  UNL     1      15.428  13.172  55.968  1.00  0.00    -0.390 OA
ATOM     22  H4  UNL     1      14.674  13.169  55.390  1.00  0.00     0.210 HD
ENDBRANCH   7  21
BRANCH   5  23
HETATM   23  C7  UNL     1      13.162   9.313  56.234  1.00  0.00     0.199 C 
BRANCH  23  24
HETATM   24  O2  UNL     1      13.251   8.916  54.891  1.00  0.00    -0.399 OA
ATOM     25  H2  UNL     1      12.452   8.569  54.511  1.00  0.00     0.209 HD
ENDBRANCH  23  24
ENDBRANCH   5  23
BRANCH   6  26
HETATM   26  O3  UNL     1      15.520  10.709  54.908  1.00  0.00    -0.391 OA
ATOM     27  H3  UNL     1      15.822   9.856  54.620  1.00  0.00     0.210 HD
ENDBRANCH   6  26
TORSDOF 5
ENDMDL
