MODEL 2
REMARK VINA RESULT: -8.748267373      1.570      1.964
REMARK  5 active torsions:
REMARK  status: ('A' for Active; 'I' for Inactive)
REMARK    1  A    between atoms: C4_9  and  C5_10 
REMARK    2  A    between atoms: C6_14  and  C7_15 
REMARK    3  A    between atoms: C7_15  and  O2_16 
REMARK    4  A    between atoms: C8_18  and  O3_19 
REMARK    5  A    between atoms: C9_21  and  O4_22 
ROOT
HETATM    1  C5  UNL     1      14.020  12.632  58.829  1.00  0.00     0.254 C 
HETATM    2  N3  UNL     1      13.044  13.625  59.009  1.00  0.00    -0.055 N 
ATOM      3  H31 UNL     1      12.088  13.384  58.746  1.00  0.00     0.278 HD
ATOM      4  H32 UNL     1      13.083  14.427  58.380  1.00  0.00     0.278 HD
HETATM    5  C6  UNL     1      13.299  13.896  60.471  1.00  0.00     0.241 C 
HETATM    6  C8  UNL     1      14.760  14.329  60.342  1.00  0.00     0.182 C 
HETATM    7  C9  UNL     1      15.283  13.164  59.518  1.00  0.00     0.184 C 
ENDROOT
BRANCH   1   8
HETATM    8  C4  UNL     1      14.320  12.021  57.564  1.00  0.00     0.019 A 
HETATM    9  C3  UNL     1      13.872  10.864  57.029  1.00  0.00     0.075 A 
HETATM   10  N2  UNL     1      12.862  10.068  57.455  1.00  0.00    -0.350 N 
HETATM   11  C11 UNL     1      14.543  10.617  55.853  1.00  0.00     0.128 A 
HETATM   12  C2  UNL     1      12.490   9.010  56.727  1.00  0.00     0.184 A 
ATOM     13  H2  UNL     1      12.385  10.276  58.332  1.00  0.00     0.166 HD
HETATM   14  N1  UNL     1      13.147   8.743  55.556  1.00  0.00    -0.318 N 
HETATM   15  C1  UNL     1      14.152   9.521  55.116  1.00  0.00     0.275 A 
ATOM     16  H1  UNL     1      12.867   7.934  55.002  1.00  0.00     0.169 HD
HETATM   17  O1  UNL     1      14.770   9.293  54.044  1.00  0.00    -0.266 OA
HETATM   18  N4  UNL     1      15.402  11.633  55.675  1.00  0.00    -0.359 N 
HETATM   19  C10 UNL     1      15.298  12.504  56.686  1.00  0.00     0.100 A 
ATOM     20  H4  UNL     1      16.040  11.727  54.885  1.00  0.00     0.165 HD
ENDBRANCH   1   8
BRANCH   7  21
HETATM   21  O4  UNL     1      15.928  12.245  60.274  1.00  0.00    -0.390 OA
ATOM     22  H4  UNL     1      16.866  12.383  60.334  1.00  0.00     0.210 HD
ENDBRANCH   7  21
BRANCH   5  23
HETATM   23  C7  UNL     1      12.407  14.907  61.055  1.00  0.00     0.199 C 
BRANCH  23  24
HETATM   24  O2  UNL     1      12.516  15.082  62.444  1.00  0.00    -0.399 OA
ATOM     25  H2  UNL     1      12.766  15.952  62.730  1.00  0.00     0.209 HD
ENDBRANCH  23  24
ENDBRANCH   5  23
BRANCH   6  26
HETATM   26  O3  UNL     1      15.400  14.573  61.498  1.00  0.00    -0.391 OA
ATOM     27  H3  UNL     1      16.287  14.240  61.556  1.00  0.00     0.210 HD
ENDBRANCH   6  26
TORSDOF 5
ENDMDL
