MODEL 3
REMARK VINA RESULT: -7.432033421      0.098      1.153
REMARK  5 active torsions:
REMARK  status: ('A' for Active; 'I' for Inactive)
REMARK    1  A    between atoms: C4_6  and  C5_7 
REMARK    2  A    between atoms: C5_7  and  O1_8 
REMARK    3  A    between atoms: O1_8  and  P1_9 
REMARK    4  A    between atoms: C6_13  and  C7_14 
REMARK    5  A    between atoms: C8_16  and  O6_17 
ROOT
HETATM    1  C1  UNL     1     -35.296  23.610 -21.197  1.00  0.00     0.071 C 
HETATM    2  C2  UNL     1     -34.461  22.370 -21.328  1.00  0.00     0.039 A 
HETATM    3  N1  UNL     1     -33.769  22.007 -20.236  1.00  0.00    -0.367 N 
ATOM      4  H1  UNL     1     -33.837  22.569 -19.387  1.00  0.00     0.165 HD
HETATM    5  C3  UNL     1     -32.993  20.918 -20.246  1.00  0.00     0.098 A 
HETATM    6  C4  UNL     1     -32.923  20.174 -21.420  1.00  0.00    -0.003 A 
HETATM    7  C6  UNL     1     -33.625  20.524 -22.568  1.00  0.00     0.046 A 
HETATM    8  C8  UNL     1     -34.422  21.668 -22.508  1.00  0.00     0.101 A 
ENDROOT
BRANCH   6   9
HETATM    9  C5  UNL     1     -32.073  18.947 -21.470  1.00  0.00     0.223 C 
BRANCH   9  10
HETATM   10  O1  UNL     1     -30.737  19.348 -21.414  1.00  0.00    -0.278 OA
BRANCH  10  11
HETATM   11  P1  UNL     1     -29.733  18.346 -22.292  1.00  0.00     0.422 P 
HETATM   12  O2  UNL     1     -29.549  18.949 -23.666  1.00  0.00    -0.617 OA
HETATM   13  O3  UNL     1     -28.210  18.167 -21.605  1.00  0.00    -0.617 OA
HETATM   14  O4  UNL     1     -30.500  16.846 -22.507  1.00  0.00    -0.617 OA
ENDBRANCH  10  11
ENDBRANCH   9  10
ENDBRANCH   6   9
BRANCH   7  15
HETATM   15  C7  UNL     1     -33.532  19.731 -23.785  1.00  0.00     0.273 C 
HETATM   16  O5  UNL     1     -34.431  18.958 -24.180  1.00  0.00    -0.301 OA
ENDBRANCH   7  15
BRANCH   8  17
HETATM   17  O6  UNL     1     -35.146  22.087 -23.585  1.00  0.00    -0.358 OA
ATOM     18  H6  UNL     1     -36.087  22.197 -23.520  1.00  0.00     0.217 HD
ENDBRANCH   8  17
TORSDOF 5
ENDMDL
