MODEL 2
REMARK VINA RESULT: -7.484045886      0.112      1.149
REMARK  5 active torsions:
REMARK  status: ('A' for Active; 'I' for Inactive)
REMARK    1  A    between atoms: C4_6  and  C5_7 
REMARK    2  A    between atoms: C5_7  and  O1_8 
REMARK    3  A    between atoms: O1_8  and  P1_9 
REMARK    4  A    between atoms: C6_13  and  C7_14 
REMARK    5  A    between atoms: C8_16  and  O6_17 
ROOT
HETATM    1  C1  UNL     1     -35.355  23.677 -21.188  1.00  0.00     0.071 C 
HETATM    2  C2  UNL     1     -34.525  22.432 -21.292  1.00  0.00     0.039 A 
HETATM    3  N1  UNL     1     -33.858  22.073 -20.184  1.00  0.00    -0.367 N 
ATOM      4  H1  UNL     1     -33.939  22.643 -19.341  1.00  0.00     0.165 HD
HETATM    5  C3  UNL     1     -33.089  20.979 -20.169  1.00  0.00     0.098 A 
HETATM    6  C4  UNL     1     -33.001  20.225 -21.335  1.00  0.00    -0.003 A 
HETATM    7  C6  UNL     1     -33.677  20.569 -22.500  1.00  0.00     0.046 A 
HETATM    8  C8  UNL     1     -34.467  21.719 -22.466  1.00  0.00     0.101 A 
ENDROOT
BRANCH   6   9
HETATM    9  C5  UNL     1     -32.158  18.992 -21.358  1.00  0.00     0.223 C 
BRANCH   9  10
HETATM   10  O1  UNL     1     -30.819  19.387 -21.356  1.00  0.00    -0.278 OA
BRANCH  10  11
HETATM   11  P1  UNL     1     -29.852  18.370 -22.257  1.00  0.00     0.422 P 
HETATM   12  O2  UNL     1     -28.517  18.246 -21.559  1.00  0.00    -0.617 OA
HETATM   13  O3  UNL     1     -30.488  16.822 -22.419  1.00  0.00    -0.617 OA
HETATM   14  O4  UNL     1     -29.557  19.084 -23.769  1.00  0.00    -0.617 OA
ENDBRANCH  10  11
ENDBRANCH   9  10
ENDBRANCH   6   9
BRANCH   7  15
HETATM   15  C7  UNL     1     -33.565  19.766 -23.708  1.00  0.00     0.273 C 
HETATM   16  O5  UNL     1     -34.483  19.040 -24.146  1.00  0.00    -0.301 OA
ENDBRANCH   7  15
BRANCH   8  17
HETATM   17  O6  UNL     1     -35.167  22.134 -23.560  1.00  0.00    -0.358 OA
ATOM     18  H6  UNL     1     -34.986  22.979 -23.955  1.00  0.00     0.217 HD
ENDBRANCH   8  17
TORSDOF 5
ENDMDL
