MODEL 10
REMARK VINA RESULT: -5.642477044      1.101      1.217
REMARK  5 active torsions:
REMARK  status: ('A' for Active; 'I' for Inactive)
REMARK    1  A    between atoms: C4_6  and  C5_7 
REMARK    2  A    between atoms: C5_7  and  O1_8 
REMARK    3  A    between atoms: O1_8  and  P1_9 
REMARK    4  A    between atoms: C6_13  and  C7_14 
REMARK    5  A    between atoms: C8_16  and  O6_17 
ROOT
HETATM    1  C1  UNL     1     -34.852  24.352 -20.831  1.00  0.00     0.071 C 
HETATM    2  C2  UNL     1     -34.395  22.973 -21.208  1.00  0.00     0.039 A 
HETATM    3  N1  UNL     1     -33.705  22.303 -20.271  1.00  0.00    -0.367 N 
ATOM      4  H1  UNL     1     -33.524  22.743 -19.368  1.00  0.00     0.165 HD
HETATM    5  C3  UNL     1     -33.252  21.067 -20.505  1.00  0.00     0.098 A 
HETATM    6  C4  UNL     1     -33.515  20.497 -21.747  1.00  0.00    -0.003 A 
HETATM    7  C6  UNL     1     -34.225  21.164 -22.739  1.00  0.00     0.046 A 
HETATM    8  C8  UNL     1     -34.678  22.452 -22.447  1.00  0.00     0.101 A 
ENDROOT
BRANCH   6   9
HETATM    9  C5  UNL     1     -33.031  19.116 -22.046  1.00  0.00     0.223 C 
BRANCH   9  10
HETATM   10  O1  UNL     1     -32.067  19.206 -23.051  1.00  0.00    -0.278 OA
BRANCH  10  11
HETATM   11  P1  UNL     1     -30.551  18.755 -22.524  1.00  0.00     0.422 P 
HETATM   12  O2  UNL     1     -30.657  17.381 -21.901  1.00  0.00    -0.617 OA
HETATM   13  O3  UNL     1     -29.417  18.667 -23.762  1.00  0.00    -0.617 OA
HETATM   14  O4  UNL     1     -30.053  19.819 -21.298  1.00  0.00    -0.617 OA
ENDBRANCH  10  11
ENDBRANCH   9  10
ENDBRANCH   6   9
BRANCH   7  15
HETATM   15  C7  UNL     1     -34.483  20.548 -24.032  1.00  0.00     0.273 C 
HETATM   16  O5  UNL     1     -33.722  20.657 -25.017  1.00  0.00    -0.301 OA
ENDBRANCH   7  15
BRANCH   8  17
HETATM   17  O6  UNL     1     -35.382  23.181 -23.359  1.00  0.00    -0.358 OA
ATOM     18  H6  UNL     1     -34.972  23.904 -23.818  1.00  0.00     0.217 HD
ENDBRANCH   8  17
TORSDOF 5
ENDMDL
