MODEL 1
REMARK VINA RESULT: -7.554529470      0.000      0.000
REMARK  5 active torsions:
REMARK  status: ('A' for Active; 'I' for Inactive)
REMARK    1  A    between atoms: C4_6  and  C5_7 
REMARK    2  A    between atoms: C5_7  and  O1_8 
REMARK    3  A    between atoms: O1_8  and  P1_9 
REMARK    4  A    between atoms: C6_13  and  C7_14 
REMARK    5  A    between atoms: C8_16  and  O6_17 
ROOT
HETATM    1  C1  UNL     1     -35.284  23.618 -21.175  1.00  0.00     0.071 C 
HETATM    2  C2  UNL     1     -34.470  22.363 -21.297  1.00  0.00     0.039 A 
HETATM    3  N1  UNL     1     -33.801  21.985 -20.195  1.00  0.00    -0.367 N 
ATOM      4  H1  UNL     1     -33.870  22.547 -19.347  1.00  0.00     0.165 HD
HETATM    5  C3  UNL     1     -33.046  20.882 -20.196  1.00  0.00     0.098 A 
HETATM    6  C4  UNL     1     -32.972  20.139 -21.371  1.00  0.00    -0.003 A 
HETATM    7  C6  UNL     1     -33.651  20.504 -22.528  1.00  0.00     0.046 A 
HETATM    8  C8  UNL     1     -34.427  21.663 -22.478  1.00  0.00     0.101 A 
ENDROOT
BRANCH   6   9
HETATM    9  C5  UNL     1     -32.145  18.897 -21.411  1.00  0.00     0.223 C 
BRANCH   9  10
HETATM   10  O1  UNL     1     -30.804  19.270 -21.301  1.00  0.00    -0.278 OA
BRANCH  10  11
HETATM   11  P1  UNL     1     -29.804  18.352 -22.270  1.00  0.00     0.422 P 
HETATM   12  O2  UNL     1     -30.420  16.979 -22.418  1.00  0.00    -0.617 OA
HETATM   13  O3  UNL     1     -29.606  18.991 -23.812  1.00  0.00    -0.617 OA
HETATM   14  O4  UNL     1     -28.313  18.144 -21.485  1.00  0.00    -0.617 OA
ENDBRANCH  10  11
ENDBRANCH   9  10
ENDBRANCH   6   9
BRANCH   7  15
HETATM   15  C7  UNL     1     -33.555  19.712 -23.745  1.00  0.00     0.273 C 
HETATM   16  O5  UNL     1     -34.484  19.002 -24.186  1.00  0.00    -0.301 OA
ENDBRANCH   7  15
BRANCH   8  17
HETATM   17  O6  UNL     1     -35.127  22.097 -23.564  1.00  0.00    -0.358 OA
ATOM     18  H6  UNL     1     -34.784  21.969 -24.441  1.00  0.00     0.217 HD
ENDBRANCH   8  17
TORSDOF 5
ENDMDL
