MODEL 15
REMARK VINA RESULT: -5.511675899      2.696      5.378
REMARK  5 active torsions:
REMARK  status: ('A' for Active; 'I' for Inactive)
REMARK    1  A    between atoms: C4_6  and  C5_7 
REMARK    2  A    between atoms: C5_7  and  O1_8 
REMARK    3  A    between atoms: O1_8  and  P1_9 
REMARK    4  A    between atoms: C6_13  and  C7_14 
REMARK    5  A    between atoms: C8_16  and  O6_17 
ROOT
HETATM    1  C1  UNL     1     -30.033  18.513 -21.427  1.00  0.00     0.071 C 
HETATM    2  C2  UNL     1     -31.321  19.205 -21.765  1.00  0.00     0.039 A 
HETATM    3  N1  UNL     1     -31.896  19.899 -20.770  1.00  0.00    -0.367 N 
ATOM      4  H1  UNL     1     -31.449  19.929 -19.853  1.00  0.00     0.165 HD
HETATM    5  C3  UNL     1     -33.047  20.553 -20.965  1.00  0.00     0.098 A 
HETATM    6  C4  UNL     1     -33.630  20.491 -22.227  1.00  0.00    -0.003 A 
HETATM    7  C6  UNL     1     -33.061  19.779 -23.278  1.00  0.00     0.046 A 
HETATM    8  C8  UNL     1     -31.860  19.115 -23.026  1.00  0.00     0.101 A 
ENDROOT
BRANCH   6   9
HETATM    9  C5  UNL     1     -34.911  21.212 -22.487  1.00  0.00     0.223 C 
BRANCH   9  10
HETATM   10  O1  UNL     1     -34.609  22.555 -22.719  1.00  0.00    -0.278 OA
BRANCH  10  11
HETATM   11  P1  UNL     1     -35.268  23.565 -21.567  1.00  0.00     0.422 P 
HETATM   12  O2  UNL     1     -36.592  24.076 -22.088  1.00  0.00    -0.617 OA
HETATM   13  O3  UNL     1     -35.560  22.797 -20.101  1.00  0.00    -0.617 OA
HETATM   14  O4  UNL     1     -34.257  24.915 -21.372  1.00  0.00    -0.617 OA
ENDBRANCH  10  11
ENDBRANCH   9  10
ENDBRANCH   6   9
BRANCH   7  15
HETATM   15  C7  UNL     1     -33.693  19.727 -24.587  1.00  0.00     0.273 C 
HETATM   16  O5  UNL     1     -33.899  18.666 -25.216  1.00  0.00    -0.301 OA
ENDBRANCH   7  15
BRANCH   8  17
HETATM   17  O6  UNL     1     -31.230  18.393 -23.996  1.00  0.00    -0.358 OA
ATOM     18  H6  UNL     1     -31.048  17.470 -23.868  1.00  0.00     0.217 HD
ENDBRANCH   8  17
TORSDOF 5
ENDMDL
