MODEL 7
REMARK VINA RESULT: -6.296869258      2.998      5.834
REMARK  5 active torsions:
REMARK  status: ('A' for Active; 'I' for Inactive)
REMARK    1  A    between atoms: C4_6  and  C5_7 
REMARK    2  A    between atoms: C5_7  and  O1_8 
REMARK    3  A    between atoms: O1_8  and  P1_9 
REMARK    4  A    between atoms: C6_13  and  C7_14 
REMARK    5  A    between atoms: C8_16  and  O6_17 
ROOT
HETATM    1  C1  UNL     1     -29.730  17.982 -22.973  1.00  0.00     0.071 C 
HETATM    2  C2  UNL     1     -31.027  18.735 -22.952  1.00  0.00     0.039 A 
HETATM    3  N1  UNL     1     -31.625  18.913 -24.141  1.00  0.00    -0.367 N 
ATOM      4  H1  UNL     1     -31.189  18.542 -24.985  1.00  0.00     0.165 HD
HETATM    5  C3  UNL     1     -32.786  19.571 -24.234  1.00  0.00     0.098 A 
HETATM    6  C4  UNL     1     -33.354  20.066 -23.064  1.00  0.00    -0.003 A 
HETATM    7  C6  UNL     1     -32.761  19.899 -21.818  1.00  0.00     0.046 A 
HETATM    8  C8  UNL     1     -31.550  19.205 -21.772  1.00  0.00     0.101 A 
ENDROOT
BRANCH   6   9
HETATM    9  C5  UNL     1     -34.653  20.801 -23.124  1.00  0.00     0.223 C 
BRANCH   9  10
HETATM   10  O1  UNL     1     -34.387  22.112 -23.522  1.00  0.00    -0.278 OA
BRANCH  10  11
HETATM   11  P1  UNL     1     -35.257  23.233 -22.646  1.00  0.00     0.422 P 
HETATM   12  O2  UNL     1     -36.157  23.984 -23.602  1.00  0.00    -0.617 OA
HETATM   13  O3  UNL     1     -36.232  22.541 -21.465  1.00  0.00    -0.617 OA
HETATM   14  O4  UNL     1     -34.183  24.368 -21.981  1.00  0.00    -0.617 OA
ENDBRANCH  10  11
ENDBRANCH   9  10
ENDBRANCH   6   9
BRANCH   7  15
HETATM   15  C7  UNL     1     -33.373  20.430 -20.609  1.00  0.00     0.273 C 
HETATM   16  O5  UNL     1     -32.979  21.464 -20.028  1.00  0.00    -0.301 OA
ENDBRANCH   7  15
BRANCH   8  17
HETATM   17  O6  UNL     1     -30.896  18.994 -20.594  1.00  0.00    -0.358 OA
ATOM     18  H6  UNL     1     -30.656  18.115 -20.328  1.00  0.00     0.217 HD
ENDBRANCH   8  17
TORSDOF 5
ENDMDL
