MODEL 14
REMARK VINA RESULT: -5.520976547      2.649      4.772
REMARK  5 active torsions:
REMARK  status: ('A' for Active; 'I' for Inactive)
REMARK    1  A    between atoms: C4_6  and  C5_7 
REMARK    2  A    between atoms: C5_7  and  O1_8 
REMARK    3  A    between atoms: O1_8  and  P1_9 
REMARK    4  A    between atoms: C6_13  and  C7_14 
REMARK    5  A    between atoms: C8_16  and  O6_17 
ROOT
HETATM    1  C1  UNL     1     -33.418  21.262 -20.001  1.00  0.00     0.071 C 
HETATM    2  C2  UNL     1     -33.328  20.733 -21.402  1.00  0.00     0.039 A 
HETATM    3  N1  UNL     1     -34.328  21.079 -22.229  1.00  0.00    -0.367 N 
ATOM      4  H1  UNL     1     -35.085  21.670 -21.883  1.00  0.00     0.165 HD
HETATM    5  C3  UNL     1     -34.345  20.661 -23.499  1.00  0.00     0.098 A 
HETATM    6  C4  UNL     1     -33.297  19.856 -23.938  1.00  0.00    -0.003 A 
HETATM    7  C6  UNL     1     -32.248  19.478 -23.107  1.00  0.00     0.046 A 
HETATM    8  C8  UNL     1     -32.275  19.940 -21.790  1.00  0.00     0.101 A 
ENDROOT
BRANCH   6   9
HETATM    9  C5  UNL     1     -33.276  19.374 -25.351  1.00  0.00     0.223 C 
BRANCH   9  10
HETATM   10  O1  UNL     1     -34.263  18.396 -25.486  1.00  0.00    -0.278 OA
BRANCH  10  11
HETATM   11  P1  UNL     1     -34.290  17.724 -27.012  1.00  0.00     0.422 P 
HETATM   12  O2  UNL     1     -34.350  18.847 -28.022  1.00  0.00    -0.617 OA
HETATM   13  O3  UNL     1     -32.927  16.802 -27.355  1.00  0.00    -0.617 OA
HETATM   14  O4  UNL     1     -35.715  16.818 -27.192  1.00  0.00    -0.617 OA
ENDBRANCH  10  11
ENDBRANCH   9  10
ENDBRANCH   6   9
BRANCH   7  15
HETATM   15  C7  UNL     1     -31.167  18.632 -23.588  1.00  0.00     0.273 C 
HETATM   16  O5  UNL     1     -29.958  18.941 -23.512  1.00  0.00    -0.301 OA
ENDBRANCH   7  15
BRANCH   8  17
HETATM   17  O6  UNL     1     -31.289  19.620 -20.905  1.00  0.00    -0.358 OA
ATOM     18  H6  UNL     1     -30.626  18.980 -21.134  1.00  0.00     0.217 HD
ENDBRANCH   8  17
TORSDOF 5
ENDMDL
