MODEL 5
REMARK VINA RESULT: -10.487271910      3.497     11.031
REMARK  10 active torsions:
REMARK  status: ('A' for Active; 'I' for Inactive)
REMARK    1  A    between atoms: C5_5  and  C6_6 
REMARK       I    between atoms: C6_6  and  N1_8 
REMARK    2  A    between atoms: N1_8  and  C7_10 
REMARK    3  A    between atoms: C9_12  and  C10_13 
REMARK    4  A    between atoms: C10_13  and  C11_14 
REMARK    5  A    between atoms: C11_14  and  C12_15 
REMARK    6  A    between atoms: C12_15  and  N2_16 
REMARK    7  A    between atoms: C16_20  and  C17_21 
REMARK    8  A    between atoms: C20_27  and  N3_28 
REMARK    9  A    between atoms: N3_28  and  C21_30 
REMARK   10  A    between atoms: C25_36  and  C26_37 
ROOT
HETATM    1  C1  UNL     1      53.541   4.993  67.038  1.00  0.00     0.050 C 
HETATM    2  C2  UNL     1      53.699   4.178  68.272  1.00  0.00    -0.035 A 
HETATM    3  C3  UNL     1      54.879   4.171  68.962  1.00  0.00     0.010 A 
HETATM    4  C4  UNL     1      54.933   3.404  70.107  1.00  0.00     0.018 A 
HETATM    5  C5  UNL     1      53.859   2.659  70.575  1.00  0.00     0.034 A 
HETATM    6  C19 UNL     1      52.705   2.697  69.863  1.00  0.00     0.047 A 
HETATM    7  C20 UNL     1      52.564   3.447  68.686  1.00  0.00     0.040 A 
ENDROOT
BRANCH   5   8
HETATM    8  C6  UNL     1      54.026   1.794  71.755  1.00  0.00     0.256 C 
HETATM    9  O1  UNL     1      54.782   2.129  72.687  1.00  0.00    -0.267 OA
HETATM   10  N1  UNL     1      53.328   0.578  71.864  1.00  0.00    -0.323 N 
ATOM     11  H1  UNL     1      52.739   0.310  71.075  1.00  0.00     0.169 HD
BRANCH  10  12
HETATM   12  C7  UNL     1      53.367  -0.318  72.981  1.00  0.00     0.036 A 
HETATM   13  C8  UNL     1      53.459   0.080  74.279  1.00  0.00     0.036 A 
HETATM   14  C9  UNL     1      53.486  -0.915  75.269  1.00  0.00    -0.055 A 
HETATM   15  C15 UNL     1      53.426  -2.247  74.928  1.00  0.00     0.023 A 
HETATM   16  C16 UNL     1      53.337  -2.639  73.627  1.00  0.00     0.050 A 
HETATM   17  C18 UNL     1      53.307  -1.670  72.664  1.00  0.00     0.045 A 
BRANCH  14  18
HETATM   18  C10 UNL     1      53.584  -0.506  76.691  1.00  0.00     0.040 C 
BRANCH  18  19
HETATM   19  C11 UNL     1      54.415  -1.387  77.553  1.00  0.00     0.035 C 
BRANCH  19  20
HETATM   20  C12 UNL     1      54.899  -0.639  78.797  1.00  0.00     0.271 C 
BRANCH  20  21
HETATM   21  N2  UNL     1      55.947  -1.447  79.437  1.00  0.00     0.080 N 
HETATM   22  C13 UNL     1      57.132  -1.533  78.633  1.00  0.00     0.309 C 
HETATM   23  C14 UNL     1      56.255  -0.750  80.703  1.00  0.00     0.309 C 
ENDBRANCH  20  21
ENDBRANCH  19  20
ENDBRANCH  18  19
ENDBRANCH  14  18
BRANCH  16  24
HETATM   24  C17 UNL     1      53.266  -4.078  73.218  1.00  0.00     0.417 C 
HETATM   25  F1  UNL     1      54.313  -4.364  72.385  1.00  0.00    -0.166 F 
HETATM   26  F2  UNL     1      52.095  -4.221  72.464  1.00  0.00    -0.166 F 
HETATM   27  F3  UNL     1      53.220  -4.815  74.349  1.00  0.00    -0.166 F 
ENDBRANCH  16  24
ENDBRANCH  10  12
ENDBRANCH   5   8
BRANCH   7  28
HETATM   28  N3  UNL     1      51.484   3.384  67.798  1.00  0.00    -0.341 N 
ATOM     29  H3  UNL     1      51.678   3.181  66.818  1.00  0.00     0.167 HD
BRANCH  28  30
HETATM   30  C21 UNL     1      50.153   3.583  68.181  1.00  0.00     0.118 A 
HETATM   31  N4  UNL     1      49.568   2.841  69.173  1.00  0.00    -0.352 N 
HETATM   32  C22 UNL     1      48.414   3.241  69.724  1.00  0.00     0.090 A 
ATOM     33  H4  UNL     1      50.012   1.980  69.494  1.00  0.00     0.166 HD
HETATM   34  C23 UNL     1      47.771   4.407  69.316  1.00  0.00     0.018 A 
HETATM   35  C24 UNL     1      48.329   5.162  68.327  1.00  0.00     0.019 A 
HETATM   36  C25 UNL     1      49.520   4.749  67.751  1.00  0.00     0.035 A 
BRANCH  36  37
HETATM   37  C26 UNL     1      50.045   5.450  66.595  1.00  0.00     0.048 A 
HETATM   38  C27 UNL     1      50.067   4.955  65.314  1.00  0.00     0.047 A 
HETATM   39  C28 UNL     1      50.586   5.687  64.250  1.00  0.00     0.091 A 
HETATM   40  N5  UNL     1      51.082   6.901  64.452  1.00  0.00    -0.362 N 
HETATM   41  C29 UNL     1      51.077   7.415  65.697  1.00  0.00     0.180 A 
ATOM     42  H5  UNL     1      51.462   7.438  63.673  1.00  0.00     0.165 HD
HETATM   43  N6  UNL     1      50.573   6.694  66.708  1.00  0.00    -0.352 N 
ATOM     44  H6  UNL     1      50.588   7.115  67.637  1.00  0.00     0.166 HD
ENDBRANCH  36  37
ENDBRANCH  28  30
ENDBRANCH   7  28
TORSDOF 10
ENDMDL
