MODEL 1
REMARK VINA RESULT: -11.297094754      0.000      0.000
REMARK  10 active torsions:
REMARK  status: ('A' for Active; 'I' for Inactive)
REMARK    1  A    between atoms: C5_5  and  C6_6 
REMARK       I    between atoms: C6_6  and  N1_8 
REMARK    2  A    between atoms: N1_8  and  C7_10 
REMARK    3  A    between atoms: C9_12  and  C10_13 
REMARK    4  A    between atoms: C10_13  and  C11_14 
REMARK    5  A    between atoms: C11_14  and  C12_15 
REMARK    6  A    between atoms: C12_15  and  N2_16 
REMARK    7  A    between atoms: C16_20  and  C17_21 
REMARK    8  A    between atoms: C20_27  and  N3_28 
REMARK    9  A    between atoms: N3_28  and  C21_30 
REMARK   10  A    between atoms: C25_36  and  C26_37 
ROOT
HETATM    1  C1  UNL     1      53.266  -3.789  74.634  1.00  0.00     0.050 C 
HETATM    2  C2  UNL     1      53.358  -2.504  73.892  1.00  0.00    -0.035 A 
HETATM    3  C3  UNL     1      53.625  -2.486  72.551  1.00  0.00     0.010 A 
HETATM    4  C4  UNL     1      53.673  -1.252  71.937  1.00  0.00     0.018 A 
HETATM    5  C5  UNL     1      53.462  -0.057  72.612  1.00  0.00     0.034 A 
HETATM    6  C19 UNL     1      53.196  -0.120  73.939  1.00  0.00     0.047 A 
HETATM    7  C20 UNL     1      53.132  -1.330  74.645  1.00  0.00     0.040 A 
ENDROOT
BRANCH   5   8
HETATM    8  C6  UNL     1      53.622   1.224  71.901  1.00  0.00     0.256 C 
HETATM    9  O1  UNL     1      54.072   2.225  72.491  1.00  0.00    -0.267 OA
HETATM   10  N1  UNL     1      53.283   1.342  70.542  1.00  0.00    -0.323 N 
ATOM     11  H1  UNL     1      52.887   0.518  70.090  1.00  0.00     0.169 HD
BRANCH  10  12
HETATM   12  C7  UNL     1      53.443   2.514  69.734  1.00  0.00     0.036 A 
HETATM   13  C8  UNL     1      52.549   2.924  68.793  1.00  0.00     0.036 A 
HETATM   14  C9  UNL     1      52.841   4.096  68.079  1.00  0.00    -0.055 A 
HETATM   15  C15 UNL     1      53.998   4.800  68.326  1.00  0.00     0.023 A 
HETATM   16  C16 UNL     1      54.889   4.384  69.267  1.00  0.00     0.050 A 
HETATM   17  C18 UNL     1      54.604   3.244  69.964  1.00  0.00     0.045 A 
BRANCH  14  18
HETATM   18  C10 UNL     1      51.881   4.564  67.050  1.00  0.00     0.040 C 
BRANCH  18  19
HETATM   19  C11 UNL     1      51.196   3.491  66.282  1.00  0.00     0.035 C 
BRANCH  19  20
HETATM   20  C12 UNL     1      49.678   3.686  66.301  1.00  0.00     0.271 C 
BRANCH  20  21
HETATM   21  N2  UNL     1      49.103   2.694  67.221  1.00  0.00     0.080 N 
HETATM   22  C13 UNL     1      48.752   3.268  68.488  1.00  0.00     0.309 C 
HETATM   23  C14 UNL     1      47.884   2.201  66.544  1.00  0.00     0.309 C 
ENDBRANCH  20  21
ENDBRANCH  19  20
ENDBRANCH  18  19
ENDBRANCH  14  18
BRANCH  16  24
HETATM   24  C17 UNL     1      56.157   5.124  69.565  1.00  0.00     0.417 C 
HETATM   25  F1  UNL     1      55.853   6.337  70.122  1.00  0.00    -0.166 F 
HETATM   26  F2  UNL     1      56.765   5.385  68.330  1.00  0.00    -0.166 F 
HETATM   27  F3  UNL     1      56.921   4.319  70.333  1.00  0.00    -0.166 F 
ENDBRANCH  16  24
ENDBRANCH  10  12
ENDBRANCH   5   8
BRANCH   7  28
HETATM   28  N3  UNL     1      53.060  -1.467  76.036  1.00  0.00    -0.341 N 
ATOM     29  H3  UNL     1      53.804  -1.978  76.509  1.00  0.00     0.167 HD
BRANCH  28  30
HETATM   30  C21 UNL     1      52.021  -0.940  76.812  1.00  0.00     0.118 A 
HETATM   31  N4  UNL     1      50.801  -0.629  76.273  1.00  0.00    -0.352 N 
HETATM   32  C22 UNL     1      49.745  -0.417  77.069  1.00  0.00     0.090 A 
ATOM     33  H4  UNL     1      50.696  -0.557  75.260  1.00  0.00     0.166 HD
HETATM   34  C23 UNL     1      49.843  -0.502  78.456  1.00  0.00     0.018 A 
HETATM   35  C24 UNL     1      51.046  -0.806  79.020  1.00  0.00     0.019 A 
HETATM   36  C25 UNL     1      52.142  -1.020  78.200  1.00  0.00     0.035 A 
BRANCH  36  37
HETATM   37  C26 UNL     1      53.459  -1.187  78.784  1.00  0.00     0.048 A 
HETATM   38  C27 UNL     1      54.642  -0.850  78.173  1.00  0.00     0.047 A 
HETATM   39  C28 UNL     1      55.872  -1.038  78.796  1.00  0.00     0.091 A 
HETATM   40  N5  UNL     1      55.933  -1.558  80.015  1.00  0.00    -0.362 N 
HETATM   41  C29 UNL     1      54.791  -1.902  80.641  1.00  0.00     0.180 A 
ATOM     42  H5  UNL     1      56.834  -1.696  80.473  1.00  0.00     0.165 HD
HETATM   43  N6  UNL     1      53.616  -1.713  80.024  1.00  0.00    -0.352 N 
ATOM     44  H6  UNL     1      52.773  -1.986  80.528  1.00  0.00     0.166 HD
ENDBRANCH  36  37
ENDBRANCH  28  30
ENDBRANCH   7  28
TORSDOF 10
ENDMDL
