MODEL 6
REMARK VINA RESULT: -10.362003316      3.342     10.816
REMARK  10 active torsions:
REMARK  status: ('A' for Active; 'I' for Inactive)
REMARK    1  A    between atoms: C5_5  and  C6_6 
REMARK       I    between atoms: C6_6  and  N1_8 
REMARK    2  A    between atoms: N1_8  and  C7_10 
REMARK    3  A    between atoms: C9_12  and  C10_13 
REMARK    4  A    between atoms: C10_13  and  C11_14 
REMARK    5  A    between atoms: C11_14  and  C12_15 
REMARK    6  A    between atoms: C12_15  and  N2_16 
REMARK    7  A    between atoms: C16_20  and  C17_21 
REMARK    8  A    between atoms: C20_27  and  N3_28 
REMARK    9  A    between atoms: N3_28  and  C21_30 
REMARK   10  A    between atoms: C25_36  and  C26_37 
ROOT
HETATM    1  C1  UNL     1      54.029   4.804  67.447  1.00  0.00     0.050 C 
HETATM    2  C2  UNL     1      53.933   3.936  68.650  1.00  0.00    -0.035 A 
HETATM    3  C3  UNL     1      54.998   3.788  69.495  1.00  0.00     0.010 A 
HETATM    4  C4  UNL     1      54.817   2.981  70.599  1.00  0.00     0.018 A 
HETATM    5  C5  UNL     1      53.622   2.331  70.878  1.00  0.00     0.034 A 
HETATM    6  C19 UNL     1      52.590   2.508  70.018  1.00  0.00     0.047 A 
HETATM    7  C20 UNL     1      52.687   3.308  68.869  1.00  0.00     0.040 A 
ENDROOT
BRANCH   5   8
HETATM    8  C6  UNL     1      53.539   1.414  72.028  1.00  0.00     0.256 C 
HETATM    9  O1  UNL     1      54.492   1.304  72.824  1.00  0.00    -0.267 OA
HETATM   10  N1  UNL     1      52.381   0.652  72.261  1.00  0.00    -0.323 N 
ATOM     11  H1  UNL     1      51.626   0.735  71.579  1.00  0.00     0.169 HD
BRANCH  10  12
HETATM   12  C7  UNL     1      52.162  -0.229  73.368  1.00  0.00     0.036 A 
HETATM   13  C8  UNL     1      51.557   0.136  74.532  1.00  0.00     0.036 A 
HETATM   14  C9  UNL     1      51.412  -0.840  75.529  1.00  0.00    -0.055 A 
HETATM   15  C15 UNL     1      51.872  -2.121  75.332  1.00  0.00     0.023 A 
HETATM   16  C16 UNL     1      52.479  -2.481  74.167  1.00  0.00     0.050 A 
HETATM   17  C18 UNL     1      52.618  -1.532  73.194  1.00  0.00     0.045 A 
BRANCH  14  18
HETATM   18  C10 UNL     1      50.754  -0.465  76.805  1.00  0.00     0.040 C 
BRANCH  18  19
HETATM   19  C11 UNL     1      51.198  -1.229  78.001  1.00  0.00     0.035 C 
BRANCH  19  20
HETATM   20  C12 UNL     1      52.401  -0.556  78.666  1.00  0.00     0.271 C 
BRANCH  20  21
HETATM   21  N2  UNL     1      53.540  -1.482  78.591  1.00  0.00     0.080 N 
HETATM   22  C13 UNL     1      54.576  -0.998  77.724  1.00  0.00     0.309 C 
HETATM   23  C14 UNL     1      54.053  -1.577  79.974  1.00  0.00     0.309 C 
ENDBRANCH  20  21
ENDBRANCH  19  20
ENDBRANCH  18  19
ENDBRANCH  14  18
BRANCH  16  24
HETATM   24  C17 UNL     1      52.990  -3.866  73.914  1.00  0.00     0.417 C 
HETATM   25  F1  UNL     1      54.325  -3.810  73.620  1.00  0.00    -0.166 F 
HETATM   26  F2  UNL     1      52.339  -4.328  72.764  1.00  0.00    -0.166 F 
HETATM   27  F3  UNL     1      52.675  -4.613  74.995  1.00  0.00    -0.166 F 
ENDBRANCH  16  24
ENDBRANCH  10  12
ENDBRANCH   5   8
BRANCH   7  28
HETATM   28  N3  UNL     1      51.744   3.383  67.839  1.00  0.00    -0.341 N 
ATOM     29  H3  UNL     1      52.073   3.304  66.877  1.00  0.00     0.167 HD
BRANCH  28  30
HETATM   30  C21 UNL     1      50.373   3.560  68.056  1.00  0.00     0.118 A 
HETATM   31  N4  UNL     1      49.675   2.782  68.942  1.00  0.00    -0.352 N 
HETATM   32  C22 UNL     1      48.456   3.156  69.354  1.00  0.00     0.090 A 
ATOM     33  H4  UNL     1      50.084   1.915  69.290  1.00  0.00     0.166 HD
HETATM   34  C23 UNL     1      47.857   4.330  68.904  1.00  0.00     0.018 A 
HETATM   35  C24 UNL     1      48.527   5.120  68.019  1.00  0.00     0.019 A 
HETATM   36  C25 UNL     1      49.786   4.735  67.586  1.00  0.00     0.035 A 
BRANCH  36  37
HETATM   37  C26 UNL     1      50.445   5.477  66.528  1.00  0.00     0.048 A 
HETATM   38  C27 UNL     1      50.493   5.098  65.210  1.00  0.00     0.047 A 
HETATM   39  C28 UNL     1      51.144   5.863  64.246  1.00  0.00     0.091 A 
HETATM   40  N5  UNL     1      51.745   6.996  64.586  1.00  0.00    -0.362 N 
HETATM   41  C29 UNL     1      51.718   7.396  65.872  1.00  0.00     0.180 A 
ATOM     42  H5  UNL     1      52.222   7.558  63.881  1.00  0.00     0.165 HD
HETATM   43  N6  UNL     1      51.086   6.645  66.784  1.00  0.00    -0.352 N 
ATOM     44  H6  UNL     1      51.087   6.978  67.748  1.00  0.00     0.166 HD
ENDBRANCH  36  37
ENDBRANCH  28  30
ENDBRANCH   7  28
TORSDOF 10
ENDMDL
