MODEL 7
REMARK VINA RESULT: -10.180043551      4.107     10.419
REMARK  10 active torsions:
REMARK  status: ('A' for Active; 'I' for Inactive)
REMARK    1  A    between atoms: C5_5  and  C6_6 
REMARK       I    between atoms: C6_6  and  N1_8 
REMARK    2  A    between atoms: N1_8  and  C7_10 
REMARK    3  A    between atoms: C9_12  and  C10_13 
REMARK    4  A    between atoms: C10_13  and  C11_14 
REMARK    5  A    between atoms: C11_14  and  C12_15 
REMARK    6  A    between atoms: C12_15  and  N2_16 
REMARK    7  A    between atoms: C16_20  and  C17_21 
REMARK    8  A    between atoms: C20_27  and  N3_28 
REMARK    9  A    between atoms: N3_28  and  C21_30 
REMARK   10  A    between atoms: C25_36  and  C26_37 
ROOT
HETATM    1  C1  UNL     1      54.095   4.831  67.484  1.00  0.00     0.050 C 
HETATM    2  C2  UNL     1      53.957   3.953  68.676  1.00  0.00    -0.035 A 
HETATM    3  C3  UNL     1      54.998   3.782  69.545  1.00  0.00     0.010 A 
HETATM    4  C4  UNL     1      54.778   2.967  70.636  1.00  0.00     0.018 A 
HETATM    5  C5  UNL     1      53.568   2.332  70.880  1.00  0.00     0.034 A 
HETATM    6  C19 UNL     1      52.560   2.532  69.996  1.00  0.00     0.047 A 
HETATM    7  C20 UNL     1      52.697   3.341  68.858  1.00  0.00     0.040 A 
ENDROOT
BRANCH   5   8
HETATM    8  C6  UNL     1      53.443   1.405  72.018  1.00  0.00     0.256 C 
HETATM    9  O1  UNL     1      54.387   1.247  72.815  1.00  0.00    -0.267 OA
HETATM   10  N1  UNL     1      52.254   0.689  72.238  1.00  0.00    -0.323 N 
ATOM     11  H1  UNL     1      51.506   0.810  71.555  1.00  0.00     0.169 HD
BRANCH  10  12
HETATM   12  C7  UNL     1      51.995  -0.197  73.334  1.00  0.00     0.036 A 
HETATM   13  C8  UNL     1      51.278   0.142  74.440  1.00  0.00     0.036 A 
HETATM   14  C9  UNL     1      51.106  -0.834  75.433  1.00  0.00    -0.055 A 
HETATM   15  C15 UNL     1      51.653  -2.088  75.289  1.00  0.00     0.023 A 
HETATM   16  C16 UNL     1      52.373  -2.421  74.181  1.00  0.00     0.050 A 
HETATM   17  C18 UNL     1      52.537  -1.472  73.213  1.00  0.00     0.045 A 
BRANCH  14  18
HETATM   18  C10 UNL     1      50.325  -0.489  76.647  1.00  0.00     0.040 C 
BRANCH  18  19
HETATM   19  C11 UNL     1      49.054   0.243  76.401  1.00  0.00     0.035 C 
BRANCH  19  20
HETATM   20  C12 UNL     1      47.871  -0.480  77.048  1.00  0.00     0.271 C 
BRANCH  20  21
HETATM   21  N2  UNL     1      47.089  -1.121  75.981  1.00  0.00     0.080 N 
HETATM   22  C13 UNL     1      46.143  -2.067  76.496  1.00  0.00     0.309 C 
HETATM   23  C14 UNL     1      46.372  -0.016  75.310  1.00  0.00     0.309 C 
ENDBRANCH  20  21
ENDBRANCH  19  20
ENDBRANCH  18  19
ENDBRANCH  14  18
BRANCH  16  24
HETATM   24  C17 UNL     1      52.981  -3.776  73.988  1.00  0.00     0.417 C 
HETATM   25  F1  UNL     1      52.697  -4.559  75.073  1.00  0.00    -0.166 F 
HETATM   26  F2  UNL     1      54.369  -3.591  73.971  1.00  0.00    -0.166 F 
HETATM   27  F3  UNL     1      52.531  -4.253  72.807  1.00  0.00    -0.166 F 
ENDBRANCH  16  24
ENDBRANCH  10  12
ENDBRANCH   5   8
BRANCH   7  28
HETATM   28  N3  UNL     1      51.781   3.439  67.805  1.00  0.00    -0.341 N 
ATOM     29  H3  UNL     1      52.136   3.386  66.851  1.00  0.00     0.167 HD
BRANCH  28  30
HETATM   30  C21 UNL     1      50.404   3.605  67.990  1.00  0.00     0.118 A 
HETATM   31  N4  UNL     1      49.688   2.809  68.845  1.00  0.00    -0.352 N 
HETATM   32  C22 UNL     1      48.457   3.169  69.232  1.00  0.00     0.090 A 
ATOM     33  H4  UNL     1      50.093   1.937  69.188  1.00  0.00     0.166 HD
HETATM   34  C23 UNL     1      47.863   4.348  68.788  1.00  0.00     0.018 A 
HETATM   35  C24 UNL     1      48.551   5.157  67.933  1.00  0.00     0.019 A 
HETATM   36  C25 UNL     1      49.822   4.785  67.526  1.00  0.00     0.035 A 
BRANCH  36  37
HETATM   37  C26 UNL     1      50.504   5.549  66.498  1.00  0.00     0.048 A 
HETATM   38  C27 UNL     1      50.608   5.182  65.180  1.00  0.00     0.047 A 
HETATM   39  C28 UNL     1      51.278   5.968  64.246  1.00  0.00     0.091 A 
HETATM   40  N5  UNL     1      51.843   7.109  64.615  1.00  0.00    -0.362 N 
HETATM   41  C29 UNL     1      51.761   7.498  65.902  1.00  0.00     0.180 A 
ATOM     42  H5  UNL     1      52.334   7.686  63.932  1.00  0.00     0.165 HD
HETATM   43  N6  UNL     1      51.112   6.728  66.786  1.00  0.00    -0.352 N 
ATOM     44  H6  UNL     1      51.072   7.053  67.752  1.00  0.00     0.166 HD
ENDBRANCH  36  37
ENDBRANCH  28  30
ENDBRANCH   7  28
TORSDOF 10
ENDMDL
