MODEL 15
REMARK VINA RESULT: -9.886142235      4.987      7.459
REMARK  15 active torsions:
REMARK  status: ('A' for Active; 'I' for Inactive)
REMARK    1  A    between atoms: C1_2  and  C2_4 
REMARK    2  A    between atoms: N2_8  and  C6_9 
REMARK    3  A    between atoms: C7_11  and  C8_12 
REMARK    4  A    between atoms: C8_12  and  O3_13 
REMARK    5  A    between atoms: O3_13  and  P1_14 
REMARK    6  A    between atoms: P1_14  and  O6_17 
REMARK    7  A    between atoms: O6_17  and  P2_18 
REMARK    8  A    between atoms: P2_18  and  O9_21 
REMARK    9  A    between atoms: O9_21  and  C9_22 
REMARK   10  A    between atoms: C9_22  and  C10_23 
REMARK   11  A    between atoms: C11_25  and  N3_26 
REMARK   12  A    between atoms: C17_39  and  O11_40 
REMARK   13  A    between atoms: C18_42  and  O12_43 
REMARK   14  A    between atoms: C19_45  and  O13_46 
REMARK   15  A    between atoms: C20_48  and  O14_49 
ROOT
HETATM    1  P2  UNL     1      -7.872   4.063  26.093  1.00  0.00     0.417 P 
HETATM    2  O7  UNL     1      -7.112   4.096  24.802  1.00  0.00    -0.624 OA
HETATM    3  O8  UNL     1      -8.905   2.655  25.987  1.00  0.00    -0.624 OA
ENDROOT
BRANCH   1   4
HETATM    4  O6  UNL     1      -6.944   3.961  27.408  1.00  0.00    -0.180 OA
BRANCH   4   5
HETATM    5  P1  UNL     1      -5.350   4.379  27.273  1.00  0.00     0.417 P 
HETATM    6  O4  UNL     1      -5.109   5.752  26.812  1.00  0.00    -0.624 OA
HETATM    7  O5  UNL     1      -4.674   3.372  25.951  1.00  0.00    -0.624 OA
BRANCH   5   8
HETATM    8  O3  UNL     1      -4.502   3.910  28.594  1.00  0.00    -0.287 OA
BRANCH   8   9
HETATM    9  C8  UNL     1      -3.883   2.648  28.456  1.00  0.00     0.216 C 
BRANCH   9  10
HETATM   10  C7  UNL     1      -2.953   2.658  29.707  1.00  0.00     0.180 C 
HETATM   11  O2  UNL     1      -3.678   3.075  30.796  1.00  0.00    -0.353 OA
HETATM   12  C6  UNL     1      -3.468   2.250  31.877  1.00  0.00     0.259 C 
HETATM   13  C20 UNL     1      -2.146   1.547  31.550  1.00  0.00     0.198 C 
HETATM   14  C19 UNL     1      -2.343   1.358  30.017  1.00  0.00     0.182 C 
BRANCH  12  15
HETATM   15  N2  UNL     1      -4.519   1.215  31.773  1.00  0.00    -0.336 N 
HETATM   16  C5  UNL     1      -4.256  -0.075  31.993  1.00  0.00     0.093 A 
HETATM   17  C4  UNL     1      -5.246  -1.032  31.769  1.00  0.00     0.018 A 
HETATM   18  C3  UNL     1      -6.476  -0.643  31.322  1.00  0.00     0.019 A 
HETATM   19  C2  UNL     1      -6.709   0.689  31.105  1.00  0.00     0.044 A 
HETATM   20  C21 UNL     1      -5.717   1.618  31.334  1.00  0.00     0.110 A 
BRANCH  19  21
HETATM   21  C1  UNL     1      -7.984   1.146  30.586  1.00  0.00     0.266 C 
HETATM   22  N1  UNL     1      -8.190   1.238  29.191  1.00  0.00    -0.057 NA
HETATM   23  O1  UNL     1      -8.959   1.484  31.340  1.00  0.00    -0.271 OA
ENDBRANCH  19  21
ENDBRANCH  12  15
BRANCH  13  24
HETATM   24  O14 UNL     1      -1.090   2.449  31.675  1.00  0.00    -0.388 OA
ATOM     25  H14 UNL     1      -1.430   3.333  31.754  1.00  0.00     0.210 HD
ENDBRANCH  13  24
BRANCH  14  26
HETATM   26  O13 UNL     1      -1.111   1.116  29.398  1.00  0.00    -0.390 OA
ATOM     27  H13 UNL     1      -0.420   0.816  29.977  1.00  0.00     0.210 HD
ENDBRANCH  14  26
ENDBRANCH   9  10
ENDBRANCH   8   9
ENDBRANCH   5   8
ENDBRANCH   4   5
ENDBRANCH   1   4
BRANCH   1  28
HETATM   28  O9  UNL     1      -9.018   5.355  25.995  1.00  0.00    -0.287 OA
BRANCH  28  29
HETATM   29  C9  UNL     1     -10.270   4.658  26.030  1.00  0.00     0.216 C 
BRANCH  29  30
HETATM   30  C10 UNL     1     -11.320   5.537  25.499  1.00  0.00     0.180 C 
HETATM   31  O10 UNL     1     -11.977   6.180  26.585  1.00  0.00    -0.353 OA
HETATM   32  C11 UNL     1     -12.864   7.002  25.859  1.00  0.00     0.262 C 
HETATM   33  C17 UNL     1     -11.768   7.804  25.106  1.00  0.00     0.198 C 
HETATM   34  C18 UNL     1     -10.902   6.616  24.594  1.00  0.00     0.182 C 
BRANCH  32  35
HETATM   35  N3  UNL     1     -13.616   7.790  26.755  1.00  0.00    -0.297 N 
HETATM   36  C12 UNL     1     -13.177   8.775  27.610  1.00  0.00     0.188 A 
HETATM   37  N4  UNL     1     -14.200   9.295  28.290  1.00  0.00    -0.346 N 
HETATM   38  C13 UNL     1     -15.322   8.644  27.864  1.00  0.00     0.119 A 
ATOM     39  H4  UNL     1     -14.153  10.034  28.991  1.00  0.00     0.167 HD
HETATM   40  C14 UNL     1     -16.630   8.772  28.233  1.00  0.00     0.148 A 
HETATM   41  C16 UNL     1     -14.934   7.711  26.914  1.00  0.00     0.142 A 
HETATM   42  N5  UNL     1     -17.033   9.754  29.181  1.00  0.00    -0.080 NA
HETATM   43  N6  UNL     1     -17.560   7.976  27.681  1.00  0.00    -0.339 N 
HETATM   44  C15 UNL     1     -17.212   7.061  26.772  1.00  0.00     0.183 A 
ATOM     45  H6  UNL     1     -18.537   8.071  27.957  1.00  0.00     0.167 HD
HETATM   46  N7  UNL     1     -15.902   6.942  26.399  1.00  0.00    -0.336 N 
ATOM     47  H7  UNL     1     -15.652   6.241  25.701  1.00  0.00     0.168 HD
ENDBRANCH  32  35
BRANCH  33  48
HETATM   48  O11 UNL     1     -12.242   8.616  24.135  1.00  0.00    -0.388 OA
ATOM     49  H11 UNL     1     -13.139   8.899  24.266  1.00  0.00     0.210 HD
ENDBRANCH  33  48
BRANCH  34  50
HETATM   50  O12 UNL     1     -11.391   6.349  23.278  1.00  0.00    -0.390 OA
ATOM     51  H12 UNL     1     -10.948   5.586  22.926  1.00  0.00     0.210 HD
ENDBRANCH  34  50
ENDBRANCH  29  30
ENDBRANCH  28  29
ENDBRANCH   1  28
TORSDOF 15
ENDMDL
