MODEL 9
REMARK VINA RESULT: -10.084486445      1.616      2.814
REMARK  15 active torsions:
REMARK  status: ('A' for Active; 'I' for Inactive)
REMARK    1  A    between atoms: C1_2  and  C2_4 
REMARK    2  A    between atoms: N2_8  and  C6_9 
REMARK    3  A    between atoms: C7_11  and  C8_12 
REMARK    4  A    between atoms: C8_12  and  O3_13 
REMARK    5  A    between atoms: O3_13  and  P1_14 
REMARK    6  A    between atoms: P1_14  and  O6_17 
REMARK    7  A    between atoms: O6_17  and  P2_18 
REMARK    8  A    between atoms: P2_18  and  O9_21 
REMARK    9  A    between atoms: O9_21  and  C9_22 
REMARK   10  A    between atoms: C9_22  and  C10_23 
REMARK   11  A    between atoms: C11_25  and  N3_26 
REMARK   12  A    between atoms: C17_39  and  O11_40 
REMARK   13  A    between atoms: C18_42  and  O12_43 
REMARK   14  A    between atoms: C19_45  and  O13_46 
REMARK   15  A    between atoms: C20_48  and  O14_49 
ROOT
HETATM    1  P2  UNL     1      -7.799   4.002  25.885  1.00  0.00     0.417 P 
HETATM    2  O7  UNL     1      -8.643   2.783  26.110  1.00  0.00    -0.624 OA
HETATM    3  O8  UNL     1      -7.309   4.526  27.480  1.00  0.00    -0.624 OA
ENDROOT
BRANCH   1   4
HETATM    4  O6  UNL     1      -6.496   3.748  24.970  1.00  0.00    -0.180 OA
BRANCH   4   5
HETATM    5  P1  UNL     1      -5.827   5.042  24.186  1.00  0.00     0.417 P 
HETATM    6  O4  UNL     1      -4.379   4.949  23.965  1.00  0.00    -0.624 OA
HETATM    7  O5  UNL     1      -5.989   6.443  25.295  1.00  0.00    -0.624 OA
BRANCH   5   8
HETATM    8  O3  UNL     1      -6.723   5.470  22.883  1.00  0.00    -0.287 OA
BRANCH   8   9
HETATM    9  C8  UNL     1      -7.160   6.813  22.907  1.00  0.00     0.216 C 
BRANCH   9  10
HETATM   10  C7  UNL     1      -7.375   7.060  21.382  1.00  0.00     0.180 C 
HETATM   11  O2  UNL     1      -6.555   8.085  20.979  1.00  0.00    -0.353 OA
HETATM   12  C6  UNL     1      -5.886   7.760  19.822  1.00  0.00     0.259 C 
HETATM   13  C20 UNL     1      -6.723   6.626  19.222  1.00  0.00     0.198 C 
HETATM   14  C19 UNL     1      -7.113   5.887  20.537  1.00  0.00     0.182 C 
BRANCH  12  15
HETATM   15  N2  UNL     1      -4.623   7.141  20.277  1.00  0.00    -0.336 N 
HETATM   16  C5  UNL     1      -3.957   7.602  21.337  1.00  0.00     0.093 A 
HETATM   17  C4  UNL     1      -2.712   7.065  21.661  1.00  0.00     0.018 A 
HETATM   18  C3  UNL     1      -2.179   6.073  20.890  1.00  0.00     0.019 A 
HETATM   19  C2  UNL     1      -2.890   5.626  19.807  1.00  0.00     0.044 A 
HETATM   20  C21 UNL     1      -4.119   6.170  19.506  1.00  0.00     0.110 A 
BRANCH  19  21
HETATM   21  C1  UNL     1      -2.345   4.607  18.930  1.00  0.00     0.266 C 
HETATM   22  N1  UNL     1      -3.118   4.108  17.858  1.00  0.00    -0.057 NA
HETATM   23  O1  UNL     1      -1.173   4.119  19.077  1.00  0.00    -0.271 OA
ENDBRANCH  19  21
ENDBRANCH  12  15
BRANCH  13  24
HETATM   24  O14 UNL     1      -7.919   7.137  18.721  1.00  0.00    -0.388 OA
ATOM     25  H14 UNL     1      -7.932   7.053  17.774  1.00  0.00     0.210 HD
ENDBRANCH  13  24
BRANCH  14  26
HETATM   26  O13 UNL     1      -8.217   5.056  20.315  1.00  0.00    -0.390 OA
ATOM     27  H13 UNL     1      -8.418   4.454  21.023  1.00  0.00     0.210 HD
ENDBRANCH  14  26
ENDBRANCH   9  10
ENDBRANCH   8   9
ENDBRANCH   5   8
ENDBRANCH   4   5
ENDBRANCH   1   4
BRANCH   1  28
HETATM   28  O9  UNL     1      -8.898   5.254  25.420  1.00  0.00    -0.287 OA
BRANCH  28  29
HETATM   29  C9  UNL     1     -10.135   4.802  25.989  1.00  0.00     0.216 C 
BRANCH  29  30
HETATM   30  C10 UNL     1     -11.229   5.634  25.471  1.00  0.00     0.180 C 
HETATM   31  O10 UNL     1     -11.884   6.267  26.564  1.00  0.00    -0.353 OA
HETATM   32  C11 UNL     1     -12.818   7.045  25.848  1.00  0.00     0.262 C 
HETATM   33  C17 UNL     1     -11.771   7.876  25.058  1.00  0.00     0.198 C 
HETATM   34  C18 UNL     1     -10.874   6.715  24.542  1.00  0.00     0.182 C 
BRANCH  32  35
HETATM   35  N3  UNL     1     -13.579   7.817  26.752  1.00  0.00    -0.297 N 
HETATM   36  C12 UNL     1     -13.150   8.795  27.619  1.00  0.00     0.188 A 
HETATM   37  N4  UNL     1     -14.178   9.300  28.302  1.00  0.00    -0.346 N 
HETATM   38  C13 UNL     1     -15.294   8.646  27.864  1.00  0.00     0.119 A 
ATOM     39  H4  UNL     1     -14.138  10.031  29.012  1.00  0.00     0.167 HD
HETATM   40  C14 UNL     1     -16.604   8.761  28.230  1.00  0.00     0.148 A 
HETATM   41  C16 UNL     1     -14.897   7.728  26.904  1.00  0.00     0.142 A 
HETATM   42  N5  UNL     1     -17.017   9.729  29.189  1.00  0.00    -0.080 NA
HETATM   43  N6  UNL     1     -17.527   7.966  27.666  1.00  0.00    -0.339 N 
HETATM   44  C15 UNL     1     -17.170   7.064  26.747  1.00  0.00     0.183 A 
ATOM     45  H6  UNL     1     -18.505   8.051  27.940  1.00  0.00     0.167 HD
HETATM   46  N7  UNL     1     -15.857   6.958  26.377  1.00  0.00    -0.336 N 
ATOM     47  H7  UNL     1     -15.601   6.267  25.672  1.00  0.00     0.168 HD
ENDBRANCH  32  35
BRANCH  33  48
HETATM   48  O11 UNL     1     -12.298   8.656  24.088  1.00  0.00    -0.388 OA
ATOM     49  H11 UNL     1     -11.833   8.619  23.261  1.00  0.00     0.210 HD
ENDBRANCH  33  48
BRANCH  34  50
HETATM   50  O12 UNL     1     -11.382   6.410  23.242  1.00  0.00    -0.390 OA
ATOM     51  H12 UNL     1     -12.279   6.715  23.175  1.00  0.00     0.210 HD
ENDBRANCH  34  50
ENDBRANCH  29  30
ENDBRANCH  28  29
ENDBRANCH   1  28
TORSDOF 15
ENDMDL
