MODEL 14
REMARK VINA RESULT: -9.943947106      1.934      3.080
REMARK  15 active torsions:
REMARK  status: ('A' for Active; 'I' for Inactive)
REMARK    1  A    between atoms: C1_2  and  C2_4 
REMARK    2  A    between atoms: N2_8  and  C6_9 
REMARK    3  A    between atoms: C7_11  and  C8_12 
REMARK    4  A    between atoms: C8_12  and  O3_13 
REMARK    5  A    between atoms: O3_13  and  P1_14 
REMARK    6  A    between atoms: P1_14  and  O6_17 
REMARK    7  A    between atoms: O6_17  and  P2_18 
REMARK    8  A    between atoms: P2_18  and  O9_21 
REMARK    9  A    between atoms: O9_21  and  C9_22 
REMARK   10  A    between atoms: C9_22  and  C10_23 
REMARK   11  A    between atoms: C11_25  and  N3_26 
REMARK   12  A    between atoms: C17_39  and  O11_40 
REMARK   13  A    between atoms: C18_42  and  O12_43 
REMARK   14  A    between atoms: C19_45  and  O13_46 
REMARK   15  A    between atoms: C20_48  and  O14_49 
ROOT
HETATM    1  P2  UNL     1      -7.447   4.327  26.080  1.00  0.00     0.417 P 
HETATM    2  O7  UNL     1      -7.424   3.019  25.349  1.00  0.00    -0.624 OA
HETATM    3  O8  UNL     1      -8.177   3.977  27.631  1.00  0.00    -0.624 OA
ENDROOT
BRANCH   1   4
HETATM    4  O6  UNL     1      -5.994   4.991  26.299  1.00  0.00    -0.180 OA
BRANCH   4   5
HETATM    5  P1  UNL     1      -4.838   4.738  25.144  1.00  0.00     0.417 P 
HETATM    6  O4  UNL     1      -4.131   3.455  25.249  1.00  0.00    -0.624 OA
HETATM    7  O5  UNL     1      -3.548   5.948  25.445  1.00  0.00    -0.624 OA
BRANCH   5   8
HETATM    8  O3  UNL     1      -5.397   5.125  23.654  1.00  0.00    -0.287 OA
BRANCH   8   9
HETATM    9  C8  UNL     1      -4.529   5.962  22.919  1.00  0.00     0.216 C 
BRANCH   9  10
HETATM   10  C7  UNL     1      -5.569   6.852  22.172  1.00  0.00     0.180 C 
HETATM   11  O2  UNL     1      -4.982   8.053  21.859  1.00  0.00    -0.353 OA
HETATM   12  C6  UNL     1      -5.226   8.399  20.550  1.00  0.00     0.259 C 
HETATM   13  C20 UNL     1      -6.454   7.563  20.174  1.00  0.00     0.198 C 
HETATM   14  C19 UNL     1      -6.102   6.254  20.941  1.00  0.00     0.182 C 
BRANCH  12  15
HETATM   15  N2  UNL     1      -4.094   7.828  19.790  1.00  0.00    -0.336 N 
HETATM   16  C5  UNL     1      -4.284   7.118  18.677  1.00  0.00     0.093 A 
HETATM   17  C4  UNL     1      -3.200   6.498  18.056  1.00  0.00     0.018 A 
HETATM   18  C3  UNL     1      -1.950   6.618  18.594  1.00  0.00     0.019 A 
HETATM   19  C2  UNL     1      -1.793   7.353  19.739  1.00  0.00     0.044 A 
HETATM   20  C21 UNL     1      -2.878   7.958  20.335  1.00  0.00     0.110 A 
BRANCH  19  21
HETATM   21  C1  UNL     1      -0.495   7.471  20.374  1.00  0.00     0.266 C 
HETATM   22  N1  UNL     1       0.675   7.563  19.586  1.00  0.00    -0.057 NA
HETATM   23  O1  UNL     1      -0.342   7.494  21.643  1.00  0.00    -0.271 OA
ENDBRANCH  19  21
ENDBRANCH  12  15
BRANCH  13  24
HETATM   24  O14 UNL     1      -7.583   8.071  20.814  1.00  0.00    -0.388 OA
ATOM     25  H14 UNL     1      -8.269   8.232  20.176  1.00  0.00     0.210 HD
ENDBRANCH  13  24
BRANCH  14  26
HETATM   26  O13 UNL     1      -7.250   5.470  21.110  1.00  0.00    -0.390 OA
ATOM     27  H13 UNL     1      -7.916   5.846  21.674  1.00  0.00     0.210 HD
ENDBRANCH  14  26
ENDBRANCH   9  10
ENDBRANCH   8   9
ENDBRANCH   5   8
ENDBRANCH   4   5
ENDBRANCH   1   4
BRANCH   1  28
HETATM   28  O9  UNL     1      -8.675   5.272  25.312  1.00  0.00    -0.287 OA
BRANCH  28  29
HETATM   29  C9  UNL     1      -9.836   4.957  26.092  1.00  0.00     0.216 C 
BRANCH  29  30
HETATM   30  C10 UNL     1     -10.987   5.692  25.550  1.00  0.00     0.180 C 
HETATM   31  O10 UNL     1     -11.672   6.331  26.621  1.00  0.00    -0.353 OA
HETATM   32  C11 UNL     1     -12.661   7.013  25.881  1.00  0.00     0.262 C 
HETATM   33  C17 UNL     1     -11.678   7.873  25.041  1.00  0.00     0.198 C 
HETATM   34  C18 UNL     1     -10.711   6.749  24.568  1.00  0.00     0.182 C 
BRANCH  32  35
HETATM   35  N3  UNL     1     -13.462   7.776  26.758  1.00  0.00    -0.297 N 
HETATM   36  C12 UNL     1     -13.074   8.758  27.641  1.00  0.00     0.188 A 
HETATM   37  N4  UNL     1     -14.132   9.251  28.287  1.00  0.00    -0.346 N 
HETATM   38  C13 UNL     1     -15.225   8.586  27.809  1.00  0.00     0.119 A 
ATOM     39  H4  UNL     1     -14.125   9.981  28.998  1.00  0.00     0.167 HD
HETATM   40  C14 UNL     1     -16.548   8.685  28.128  1.00  0.00     0.148 A 
HETATM   41  C16 UNL     1     -14.784   7.672  26.863  1.00  0.00     0.142 A 
HETATM   42  N5  UNL     1     -17.005   9.648  29.072  1.00  0.00    -0.080 NA
HETATM   43  N6  UNL     1     -17.441   7.881  27.530  1.00  0.00    -0.339 N 
HETATM   44  C15 UNL     1     -17.042   6.984  26.624  1.00  0.00     0.183 A 
ATOM     45  H6  UNL     1     -18.430   7.955  27.770  1.00  0.00     0.167 HD
HETATM   46  N7  UNL     1     -15.716   6.893  26.301  1.00  0.00    -0.336 N 
ATOM     47  H7  UNL     1     -15.427   6.206  25.605  1.00  0.00     0.168 HD
ENDBRANCH  32  35
BRANCH  33  48
HETATM   48  O11 UNL     1     -12.264   8.570  24.043  1.00  0.00    -0.388 OA
ATOM     49  H11 UNL     1     -12.307   8.106  23.215  1.00  0.00     0.210 HD
ENDBRANCH  33  48
BRANCH  34  50
HETATM   50  O12 UNL     1     -11.211   6.351  23.290  1.00  0.00    -0.390 OA
ATOM     51  H12 UNL     1     -10.765   6.842  22.610  1.00  0.00     0.210 HD
ENDBRANCH  34  50
ENDBRANCH  29  30
ENDBRANCH  28  29
ENDBRANCH   1  28
TORSDOF 15
ENDMDL
