MODEL 18
REMARK VINA RESULT: -9.819948221      1.891      3.147
REMARK  15 active torsions:
REMARK  status: ('A' for Active; 'I' for Inactive)
REMARK    1  A    between atoms: C1_2  and  C2_4 
REMARK    2  A    between atoms: N2_8  and  C6_9 
REMARK    3  A    between atoms: C7_11  and  C8_12 
REMARK    4  A    between atoms: C8_12  and  O3_13 
REMARK    5  A    between atoms: O3_13  and  P1_14 
REMARK    6  A    between atoms: P1_14  and  O6_17 
REMARK    7  A    between atoms: O6_17  and  P2_18 
REMARK    8  A    between atoms: P2_18  and  O9_21 
REMARK    9  A    between atoms: O9_21  and  C9_22 
REMARK   10  A    between atoms: C9_22  and  C10_23 
REMARK   11  A    between atoms: C11_25  and  N3_26 
REMARK   12  A    between atoms: C17_39  and  O11_40 
REMARK   13  A    between atoms: C18_42  and  O12_43 
REMARK   14  A    between atoms: C19_45  and  O13_46 
REMARK   15  A    between atoms: C20_48  and  O14_49 
ROOT
HETATM    1  P2  UNL     1      -8.118   5.532  26.422  1.00  0.00     0.417 P 
HETATM    2  O7  UNL     1      -7.879   4.331  25.557  1.00  0.00    -0.624 OA
HETATM    3  O8  UNL     1      -7.124   5.286  27.840  1.00  0.00    -0.624 OA
ENDROOT
BRANCH   1   4
HETATM    4  O6  UNL     1      -7.740   6.937  25.727  1.00  0.00    -0.180 OA
BRANCH   4   5
HETATM    5  P1  UNL     1      -6.767   6.911  24.391  1.00  0.00     0.417 P 
HETATM    6  O4  UNL     1      -5.377   6.511  24.647  1.00  0.00    -0.624 OA
HETATM    7  O5  UNL     1      -6.615   8.612  23.841  1.00  0.00    -0.624 OA
BRANCH   5   8
HETATM    8  O3  UNL     1      -7.506   6.160  23.136  1.00  0.00    -0.287 OA
BRANCH   8   9
HETATM    9  C8  UNL     1      -6.617   5.490  22.268  1.00  0.00     0.216 C 
BRANCH   9  10
HETATM   10  C7  UNL     1      -7.342   5.711  20.905  1.00  0.00     0.180 C 
HETATM   11  O2  UNL     1      -7.476   7.061  20.688  1.00  0.00    -0.353 OA
HETATM   12  C6  UNL     1      -7.094   7.399  19.411  1.00  0.00     0.259 C 
HETATM   13  C20 UNL     1      -7.176   6.076  18.642  1.00  0.00     0.198 C 
HETATM   14  C19 UNL     1      -6.653   5.115  19.752  1.00  0.00     0.182 C 
BRANCH  12  15
HETATM   15  N2  UNL     1      -5.655   7.720  19.519  1.00  0.00    -0.336 N 
HETATM   16  C5  UNL     1      -5.179   8.484  20.504  1.00  0.00     0.093 A 
HETATM   17  C4  UNL     1      -3.836   8.861  20.503  1.00  0.00     0.018 A 
HETATM   18  C3  UNL     1      -3.017   8.448  19.492  1.00  0.00     0.019 A 
HETATM   19  C2  UNL     1      -3.540   7.667  18.496  1.00  0.00     0.044 A 
HETATM   20  C21 UNL     1      -4.870   7.305  18.517  1.00  0.00     0.110 A 
BRANCH  19  21
HETATM   21  C1  UNL     1      -2.722   7.243  17.376  1.00  0.00     0.266 C 
HETATM   22  N1  UNL     1      -1.335   7.513  17.369  1.00  0.00    -0.057 NA
HETATM   23  O1  UNL     1      -3.197   6.624  16.363  1.00  0.00    -0.271 OA
ENDBRANCH  19  21
ENDBRANCH  12  15
BRANCH  13  24
HETATM   24  O14 UNL     1      -8.511   5.724  18.452  1.00  0.00    -0.388 OA
ATOM     25  H14 UNL     1      -8.580   5.099  17.739  1.00  0.00     0.210 HD
ENDBRANCH  13  24
BRANCH  14  26
HETATM   26  O13 UNL     1      -7.018   3.796  19.459  1.00  0.00    -0.390 OA
ATOM     27  H13 UNL     1      -6.571   3.131  19.970  1.00  0.00     0.210 HD
ENDBRANCH  14  26
ENDBRANCH   9  10
ENDBRANCH   8   9
ENDBRANCH   5   8
ENDBRANCH   4   5
ENDBRANCH   1   4
BRANCH   1  28
HETATM   28  O9  UNL     1      -9.712   5.335  27.064  1.00  0.00    -0.287 OA
BRANCH  28  29
HETATM   29  C9  UNL     1     -10.397   4.678  25.989  1.00  0.00     0.216 C 
BRANCH  29  30
HETATM   30  C10 UNL     1     -11.430   5.579  25.462  1.00  0.00     0.180 C 
HETATM   31  O10 UNL     1     -12.085   6.218  26.551  1.00  0.00    -0.353 OA
HETATM   32  C11 UNL     1     -12.955   7.062  25.829  1.00  0.00     0.262 C 
HETATM   33  C17 UNL     1     -11.842   7.856  25.091  1.00  0.00     0.198 C 
HETATM   34  C18 UNL     1     -10.991   6.662  24.572  1.00  0.00     0.182 C 
BRANCH  32  35
HETATM   35  N3  UNL     1     -13.701   7.850  26.729  1.00  0.00    -0.297 N 
HETATM   36  C12 UNL     1     -13.261   8.857  27.558  1.00  0.00     0.188 A 
HETATM   37  N4  UNL     1     -14.277   9.370  28.253  1.00  0.00    -0.346 N 
HETATM   38  C13 UNL     1     -15.397   8.692  27.862  1.00  0.00     0.119 A 
ATOM     39  H4  UNL     1     -14.228  10.121  28.941  1.00  0.00     0.167 HD
HETATM   40  C14 UNL     1     -16.698   8.803  28.258  1.00  0.00     0.148 A 
HETATM   41  C16 UNL     1     -15.014   7.751  26.918  1.00  0.00     0.142 A 
HETATM   42  N5  UNL     1     -17.098   9.793  29.199  1.00  0.00    -0.080 NA
HETATM   43  N6  UNL     1     -17.626   7.982  27.740  1.00  0.00    -0.339 N 
HETATM   44  C15 UNL     1     -17.282   7.059  26.837  1.00  0.00     0.183 A 
ATOM     45  H6  UNL     1     -18.598   8.064  28.037  1.00  0.00     0.167 HD
HETATM   46  N7  UNL     1     -15.978   6.957  26.437  1.00  0.00    -0.336 N 
ATOM     47  H7  UNL     1     -15.731   6.249  25.745  1.00  0.00     0.168 HD
ENDBRANCH  32  35
BRANCH  33  48
HETATM   48  O11 UNL     1     -12.298   8.686  24.127  1.00  0.00    -0.388 OA
ATOM     49  H11 UNL     1     -11.907   9.551  24.139  1.00  0.00     0.210 HD
ENDBRANCH  33  48
BRANCH  34  50
HETATM   50  O12 UNL     1     -11.475   6.416  23.250  1.00  0.00    -0.390 OA
ATOM     51  H12 UNL     1     -11.366   7.199  22.724  1.00  0.00     0.210 HD
ENDBRANCH  34  50
ENDBRANCH  29  30
ENDBRANCH  28  29
ENDBRANCH   1  28
TORSDOF 15
ENDMDL
