MODEL 7
REMARK VINA RESULT: -10.090565465      4.210      6.618
REMARK  15 active torsions:
REMARK  status: ('A' for Active; 'I' for Inactive)
REMARK    1  A    between atoms: C1_2  and  C2_4 
REMARK    2  A    between atoms: N2_8  and  C6_9 
REMARK    3  A    between atoms: C7_11  and  C8_12 
REMARK    4  A    between atoms: C8_12  and  O3_13 
REMARK    5  A    between atoms: O3_13  and  P1_14 
REMARK    6  A    between atoms: P1_14  and  O6_17 
REMARK    7  A    between atoms: O6_17  and  P2_18 
REMARK    8  A    between atoms: P2_18  and  O9_21 
REMARK    9  A    between atoms: O9_21  and  C9_22 
REMARK   10  A    between atoms: C9_22  and  C10_23 
REMARK   11  A    between atoms: C11_25  and  N3_26 
REMARK   12  A    between atoms: C17_39  and  O11_40 
REMARK   13  A    between atoms: C18_42  and  O12_43 
REMARK   14  A    between atoms: C19_45  and  O13_46 
REMARK   15  A    between atoms: C20_48  and  O14_49 
ROOT
HETATM    1  P2  UNL     1      -7.595   5.225  26.089  1.00  0.00     0.417 P 
HETATM    2  O7  UNL     1      -7.600   6.654  26.544  1.00  0.00    -0.624 OA
HETATM    3  O8  UNL     1      -6.379   5.144  24.834  1.00  0.00    -0.624 OA
ENDROOT
BRANCH   1   4
HETATM    4  O6  UNL     1      -7.252   4.160  27.251  1.00  0.00    -0.180 OA
BRANCH   4   5
HETATM    5  P1  UNL     1      -7.335   2.550  26.883  1.00  0.00     0.417 P 
HETATM    6  O4  UNL     1      -6.737   2.180  25.593  1.00  0.00    -0.624 OA
HETATM    7  O5  UNL     1      -9.074   2.172  26.658  1.00  0.00    -0.624 OA
BRANCH   5   8
HETATM    8  O3  UNL     1      -6.897   1.629  28.164  1.00  0.00    -0.287 OA
BRANCH   8   9
HETATM    9  C8  UNL     1      -7.392   2.098  29.400  1.00  0.00     0.216 C 
BRANCH   9  10
HETATM   10  C7  UNL     1      -6.537   1.241  30.384  1.00  0.00     0.180 C 
HETATM   11  O2  UNL     1      -5.383   0.855  29.748  1.00  0.00    -0.353 OA
HETATM   12  C6  UNL     1      -4.282   1.071  30.544  1.00  0.00     0.259 C 
HETATM   13  C20 UNL     1      -4.865   1.164  31.958  1.00  0.00     0.198 C 
HETATM   14  C19 UNL     1      -6.180   1.932  31.631  1.00  0.00     0.182 C 
BRANCH  12  15
HETATM   15  N2  UNL     1      -3.828   2.435  30.199  1.00  0.00    -0.336 N 
HETATM   16  C5  UNL     1      -3.508   3.327  31.139  1.00  0.00     0.093 A 
HETATM   17  C4  UNL     1      -3.199   4.637  30.775  1.00  0.00     0.018 A 
HETATM   18  C3  UNL     1      -3.228   5.001  29.460  1.00  0.00     0.019 A 
HETATM   19  C2  UNL     1      -3.562   4.060  28.522  1.00  0.00     0.044 A 
HETATM   20  C21 UNL     1      -3.863   2.771  28.903  1.00  0.00     0.110 A 
BRANCH  19  21
HETATM   21  C1  UNL     1      -3.653   4.410  27.117  1.00  0.00     0.266 C 
HETATM   22  N1  UNL     1      -3.620   5.765  26.721  1.00  0.00    -0.057 NA
HETATM   23  O1  UNL     1      -3.768   3.537  26.191  1.00  0.00    -0.271 OA
ENDBRANCH  19  21
ENDBRANCH  12  15
BRANCH  13  24
HETATM   24  O14 UNL     1      -5.274  -0.100  32.382  1.00  0.00    -0.388 OA
ATOM     25  H14 UNL     1      -5.351  -0.111  33.329  1.00  0.00     0.210 HD
ENDBRANCH  13  24
BRANCH  14  26
HETATM   26  O13 UNL     1      -7.099   1.784  32.677  1.00  0.00    -0.390 OA
ATOM     27  H13 UNL     1      -7.226   0.892  32.979  1.00  0.00     0.210 HD
ENDBRANCH  14  26
ENDBRANCH   9  10
ENDBRANCH   8   9
ENDBRANCH   5   8
ENDBRANCH   4   5
ENDBRANCH   1   4
BRANCH   1  28
HETATM   28  O9  UNL     1      -9.056   5.016  25.187  1.00  0.00    -0.287 OA
BRANCH  28  29
HETATM   29  C9  UNL     1     -10.063   5.164  26.197  1.00  0.00     0.216 C 
BRANCH  29  30
HETATM   30  C10 UNL     1     -11.199   5.903  25.631  1.00  0.00     0.180 C 
HETATM   31  O10 UNL     1     -11.916   6.528  26.689  1.00  0.00    -0.353 OA
HETATM   32  C11 UNL     1     -12.885   7.217  25.930  1.00  0.00     0.262 C 
HETATM   33  C17 UNL     1     -11.879   8.090  25.130  1.00  0.00     0.198 C 
HETATM   34  C18 UNL     1     -10.897   6.973  24.671  1.00  0.00     0.182 C 
BRANCH  32  35
HETATM   35  N3  UNL     1     -13.712   7.967  26.792  1.00  0.00    -0.297 N 
HETATM   36  C12 UNL     1     -13.367   9.007  27.625  1.00  0.00     0.188 A 
HETATM   37  N4  UNL     1     -14.439   9.463  28.274  1.00  0.00    -0.346 N 
HETATM   38  C13 UNL     1     -15.499   8.714  27.849  1.00  0.00     0.119 A 
ATOM     39  H4  UNL     1     -14.463  10.222  28.955  1.00  0.00     0.167 HD
HETATM   40  C14 UNL     1     -16.819   8.749  28.193  1.00  0.00     0.148 A 
HETATM   41  C16 UNL     1     -15.023   7.790  26.931  1.00  0.00     0.142 A 
HETATM   42  N5  UNL     1     -17.315   9.721  29.107  1.00  0.00    -0.080 NA
HETATM   43  N6  UNL     1     -17.674   7.868  27.649  1.00  0.00    -0.339 N 
HETATM   44  C15 UNL     1     -17.240   6.959  26.772  1.00  0.00     0.183 A 
ATOM     45  H6  UNL     1     -18.661   7.893  27.908  1.00  0.00     0.167 HD
HETATM   46  N7  UNL     1     -15.918   6.934  26.423  1.00  0.00    -0.336 N 
ATOM     47  H7  UNL     1     -15.602   6.236  25.749  1.00  0.00     0.168 HD
ENDBRANCH  32  35
BRANCH  33  48
HETATM   48  O11 UNL     1     -12.436   8.799  24.124  1.00  0.00    -0.388 OA
ATOM     49  H11 UNL     1     -12.518   9.729  24.301  1.00  0.00     0.210 HD
ENDBRANCH  33  48
BRANCH  34  50
HETATM   50  O12 UNL     1     -11.358   6.592  23.374  1.00  0.00    -0.390 OA
ATOM     51  H12 UNL     1     -11.561   7.371  22.869  1.00  0.00     0.210 HD
ENDBRANCH  34  50
ENDBRANCH  29  30
ENDBRANCH  28  29
ENDBRANCH   1  28
TORSDOF 15
ENDMDL
