MODEL 5
REMARK VINA RESULT: -10.441582855      6.048      8.522
REMARK  15 active torsions:
REMARK  status: ('A' for Active; 'I' for Inactive)
REMARK    1  A    between atoms: C1_2  and  C2_4 
REMARK    2  A    between atoms: N2_8  and  C6_9 
REMARK    3  A    between atoms: C7_11  and  C8_12 
REMARK    4  A    between atoms: C8_12  and  O3_13 
REMARK    5  A    between atoms: O3_13  and  P1_14 
REMARK    6  A    between atoms: P1_14  and  O6_17 
REMARK    7  A    between atoms: O6_17  and  P2_18 
REMARK    8  A    between atoms: P2_18  and  O9_21 
REMARK    9  A    between atoms: O9_21  and  C9_22 
REMARK   10  A    between atoms: C9_22  and  C10_23 
REMARK   11  A    between atoms: C11_25  and  N3_26 
REMARK   12  A    between atoms: C17_39  and  O11_40 
REMARK   13  A    between atoms: C18_42  and  O12_43 
REMARK   14  A    between atoms: C19_45  and  O13_46 
REMARK   15  A    between atoms: C20_48  and  O14_49 
ROOT
HETATM    1  P2  UNL     1      -7.960   5.056  27.060  1.00  0.00     0.417 P 
HETATM    2  O7  UNL     1      -7.028   6.132  27.533  1.00  0.00    -0.624 OA
HETATM    3  O8  UNL     1      -7.635   4.884  25.349  1.00  0.00    -0.624 OA
ENDROOT
BRANCH   1   4
HETATM    4  O6  UNL     1      -7.764   3.636  27.798  1.00  0.00    -0.180 OA
BRANCH   4   5
HETATM    5  P1  UNL     1      -6.353   2.812  27.544  1.00  0.00     0.417 P 
HETATM    6  O4  UNL     1      -5.190   3.656  27.244  1.00  0.00    -0.624 OA
HETATM    7  O5  UNL     1      -6.583   1.869  26.035  1.00  0.00    -0.624 OA
BRANCH   5   8
HETATM    8  O3  UNL     1      -6.126   1.664  28.691  1.00  0.00    -0.287 OA
BRANCH   8   9
HETATM    9  C8  UNL     1      -5.603   2.164  29.904  1.00  0.00     0.216 C 
BRANCH   9  10
HETATM   10  C7  UNL     1      -5.753   0.905  30.811  1.00  0.00     0.180 C 
HETATM   11  O2  UNL     1      -5.085  -0.144  30.227  1.00  0.00    -0.353 OA
HETATM   12  C6  UNL     1      -4.296  -0.800  31.142  1.00  0.00     0.259 C 
HETATM   13  C20 UNL     1      -4.895  -0.401  32.495  1.00  0.00     0.198 C 
HETATM   14  C19 UNL     1      -5.247   1.083  32.178  1.00  0.00     0.182 C 
BRANCH  12  15
HETATM   15  N2  UNL     1      -2.982  -0.126  31.062  1.00  0.00    -0.336 N 
HETATM   16  C5  UNL     1      -2.561   0.459  29.939  1.00  0.00     0.093 A 
HETATM   17  C4  UNL     1      -1.270   0.979  29.870  1.00  0.00     0.018 A 
HETATM   18  C3  UNL     1      -0.442   0.885  30.951  1.00  0.00     0.019 A 
HETATM   19  C2  UNL     1      -0.907   0.276  32.087  1.00  0.00     0.044 A 
HETATM   20  C21 UNL     1      -2.187  -0.230  32.134  1.00  0.00     0.110 A 
BRANCH  19  21
HETATM   21  C1  UNL     1      -0.049   0.109  33.245  1.00  0.00     0.266 C 
HETATM   22  N1  UNL     1      -0.007   1.106  34.245  1.00  0.00    -0.057 NA
HETATM   23  O1  UNL     1       0.695  -0.916  33.416  1.00  0.00    -0.271 OA
ENDBRANCH  19  21
ENDBRANCH  12  15
BRANCH  13  24
HETATM   24  O14 UNL     1      -6.121  -1.039  32.673  1.00  0.00    -0.388 OA
ATOM     25  H14 UNL     1      -5.992  -1.859  33.136  1.00  0.00     0.210 HD
ENDBRANCH  13  24
BRANCH  14  26
HETATM   26  O13 UNL     1      -6.184   1.564  33.101  1.00  0.00    -0.390 OA
ATOM     27  H13 UNL     1      -5.840   1.748  33.967  1.00  0.00     0.210 HD
ENDBRANCH  14  26
ENDBRANCH   9  10
ENDBRANCH   8   9
ENDBRANCH   5   8
ENDBRANCH   4   5
ENDBRANCH   1   4
BRANCH   1  28
HETATM   28  O9  UNL     1      -9.535   5.770  27.054  1.00  0.00    -0.287 OA
BRANCH  28  29
HETATM   29  C9  UNL     1     -10.208   5.018  26.035  1.00  0.00     0.216 C 
BRANCH  29  30
HETATM   30  C10 UNL     1     -11.314   5.824  25.501  1.00  0.00     0.180 C 
HETATM   31  O10 UNL     1     -11.997   6.445  26.584  1.00  0.00    -0.353 OA
HETATM   32  C11 UNL     1     -12.939   7.200  25.855  1.00  0.00     0.262 C 
HETATM   33  C17 UNL     1     -11.900   8.053  25.075  1.00  0.00     0.198 C 
HETATM   34  C18 UNL     1     -10.971   6.910  24.574  1.00  0.00     0.182 C 
BRANCH  32  35
HETATM   35  N3  UNL     1     -13.727   7.958  26.746  1.00  0.00    -0.297 N 
HETATM   36  C12 UNL     1     -13.343   8.994  27.566  1.00  0.00     0.188 A 
HETATM   37  N4  UNL     1     -14.386   9.460  28.254  1.00  0.00    -0.346 N 
HETATM   38  C13 UNL     1     -15.468   8.721  27.868  1.00  0.00     0.119 A 
ATOM     39  H4  UNL     1     -14.378  10.219  28.935  1.00  0.00     0.167 HD
HETATM   40  C14 UNL     1     -16.774   8.767  28.260  1.00  0.00     0.148 A 
HETATM   41  C16 UNL     1     -15.034   7.792  26.934  1.00  0.00     0.142 A 
HETATM   42  N5  UNL     1     -17.227   9.744  29.192  1.00  0.00    -0.080 NA
HETATM   43  N6  UNL     1     -17.656   7.894  27.749  1.00  0.00    -0.339 N 
HETATM   44  C15 UNL     1     -17.263   6.981  26.856  1.00  0.00     0.183 A 
ATOM     45  H6  UNL     1     -18.632   7.927  28.043  1.00  0.00     0.167 HD
HETATM   46  N7  UNL     1     -15.954   6.944  26.459  1.00  0.00    -0.336 N 
ATOM     47  H7  UNL     1     -15.669   6.243  25.774  1.00  0.00     0.168 HD
ENDBRANCH  32  35
BRANCH  33  48
HETATM   48  O11 UNL     1     -12.433   8.818  24.096  1.00  0.00    -0.388 OA
ATOM     49  H11 UNL     1     -12.416   9.751  24.277  1.00  0.00     0.210 HD
ENDBRANCH  33  48
BRANCH  34  50
HETATM   50  O12 UNL     1     -11.457   6.591  23.268  1.00  0.00    -0.390 OA
ATOM     51  H12 UNL     1     -10.780   6.135  22.783  1.00  0.00     0.210 HD
ENDBRANCH  34  50
ENDBRANCH  29  30
ENDBRANCH  28  29
ENDBRANCH   1  28
TORSDOF 15
ENDMDL
