MODEL 12
REMARK VINA RESULT: -9.962166207      2.292      3.548
REMARK  15 active torsions:
REMARK  status: ('A' for Active; 'I' for Inactive)
REMARK    1  A    between atoms: C1_2  and  C2_4 
REMARK    2  A    between atoms: N2_8  and  C6_9 
REMARK    3  A    between atoms: C7_11  and  C8_12 
REMARK    4  A    between atoms: C8_12  and  O3_13 
REMARK    5  A    between atoms: O3_13  and  P1_14 
REMARK    6  A    between atoms: P1_14  and  O6_17 
REMARK    7  A    between atoms: O6_17  and  P2_18 
REMARK    8  A    between atoms: P2_18  and  O9_21 
REMARK    9  A    between atoms: O9_21  and  C9_22 
REMARK   10  A    between atoms: C9_22  and  C10_23 
REMARK   11  A    between atoms: C11_25  and  N3_26 
REMARK   12  A    between atoms: C17_39  and  O11_40 
REMARK   13  A    between atoms: C18_42  and  O12_43 
REMARK   14  A    between atoms: C19_45  and  O13_46 
REMARK   15  A    between atoms: C20_48  and  O14_49 
ROOT
HETATM    1  P2  UNL     1      -7.574   4.743  25.561  1.00  0.00     0.417 P 
HETATM    2  O7  UNL     1      -8.070   3.430  26.088  1.00  0.00    -0.624 OA
HETATM    3  O8  UNL     1      -6.321   5.245  26.675  1.00  0.00    -0.624 OA
ENDROOT
BRANCH   1   4
HETATM    4  O6  UNL     1      -6.977   4.676  24.064  1.00  0.00    -0.180 OA
BRANCH   4   5
HETATM    5  P1  UNL     1      -6.721   6.098  23.261  1.00  0.00     0.417 P 
HETATM    6  O4  UNL     1      -6.386   7.241  24.121  1.00  0.00    -0.624 OA
HETATM    7  O5  UNL     1      -8.298   6.566  22.545  1.00  0.00    -0.624 OA
BRANCH   5   8
HETATM    8  O3  UNL     1      -5.752   5.875  21.960  1.00  0.00    -0.287 OA
BRANCH   8   9
HETATM    9  C8  UNL     1      -4.822   6.918  21.755  1.00  0.00     0.216 C 
BRANCH   9  10
HETATM   10  C7  UNL     1      -5.688   7.898  20.906  1.00  0.00     0.180 C 
HETATM   11  O2  UNL     1      -4.957   9.033  20.656  1.00  0.00    -0.353 OA
HETATM   12  C6  UNL     1      -5.031   9.389  19.329  1.00  0.00     0.259 C 
HETATM   13  C20 UNL     1      -6.291   8.674  18.829  1.00  0.00     0.198 C 
HETATM   14  C19 UNL     1      -6.149   7.343  19.627  1.00  0.00     0.182 C 
BRANCH  12  15
HETATM   15  N2  UNL     1      -3.889   8.703  18.689  1.00  0.00    -0.336 N 
HETATM   16  C5  UNL     1      -4.006   8.104  17.502  1.00  0.00     0.093 A 
HETATM   17  C4  UNL     1      -2.939   7.368  16.988  1.00  0.00     0.018 A 
HETATM   18  C3  UNL     1      -1.782   7.262  17.704  1.00  0.00     0.019 A 
HETATM   19  C2  UNL     1      -1.698   7.888  18.920  1.00  0.00     0.044 A 
HETATM   20  C21 UNL     1      -2.764   8.611  19.408  1.00  0.00     0.110 A 
BRANCH  19  21
HETATM   21  C1  UNL     1      -0.507   7.765  19.738  1.00  0.00     0.266 C 
HETATM   22  N1  UNL     1       0.772   7.806  19.139  1.00  0.00    -0.057 NA
HETATM   23  O1  UNL     1      -0.549   7.614  21.007  1.00  0.00    -0.271 OA
ENDBRANCH  19  21
ENDBRANCH  12  15
BRANCH  13  24
HETATM   24  O14 UNL     1      -7.424   9.295  19.350  1.00  0.00    -0.388 OA
ATOM     25  H14 UNL     1      -7.813   8.744  20.020  1.00  0.00     0.210 HD
ENDBRANCH  13  24
BRANCH  14  26
HETATM   26  O13 UNL     1      -7.380   6.677  19.676  1.00  0.00    -0.390 OA
ATOM     27  H13 UNL     1      -8.089   7.105  19.212  1.00  0.00     0.210 HD
ENDBRANCH  14  26
ENDBRANCH   9  10
ENDBRANCH   8   9
ENDBRANCH   5   8
ENDBRANCH   4   5
ENDBRANCH   1   4
BRANCH   1  28
HETATM   28  O9  UNL     1      -8.828   5.886  25.895  1.00  0.00    -0.287 OA
BRANCH  28  29
HETATM   29  C9  UNL     1      -9.997   5.056  25.933  1.00  0.00     0.216 C 
BRANCH  29  30
HETATM   30  C10 UNL     1     -11.145   5.827  25.440  1.00  0.00     0.180 C 
HETATM   31  O10 UNL     1     -11.810   6.425  26.547  1.00  0.00    -0.353 OA
HETATM   32  C11 UNL     1     -12.799   7.151  25.852  1.00  0.00     0.262 C 
HETATM   33  C17 UNL     1     -11.816   8.037  25.039  1.00  0.00     0.198 C 
HETATM   34  C18 UNL     1     -10.869   6.925  24.504  1.00  0.00     0.182 C 
BRANCH  32  35
HETATM   35  N3  UNL     1     -13.580   7.881  26.772  1.00  0.00    -0.297 N 
HETATM   36  C12 UNL     1     -13.173   8.833  27.679  1.00  0.00     0.188 A 
HETATM   37  N4  UNL     1     -14.216   9.302  28.366  1.00  0.00    -0.346 N 
HETATM   38  C13 UNL     1     -15.319   8.652  27.891  1.00  0.00     0.119 A 
ATOM     39  H4  UNL     1     -14.194  10.007  29.102  1.00  0.00     0.167 HD
HETATM   40  C14 UNL     1     -16.634   8.738  28.244  1.00  0.00     0.148 A 
HETATM   41  C16 UNL     1     -14.899   7.772  26.905  1.00  0.00     0.142 A 
HETATM   42  N5  UNL     1     -17.071   9.667  29.230  1.00  0.00    -0.080 NA
HETATM   43  N6  UNL     1     -17.541   7.954  27.639  1.00  0.00    -0.339 N 
HETATM   44  C15 UNL     1     -17.162   7.089  26.694  1.00  0.00     0.183 A 
ATOM     45  H6  UNL     1     -18.524   8.017  27.904  1.00  0.00     0.167 HD
HETATM   46  N7  UNL     1     -15.844   7.011  26.337  1.00  0.00    -0.336 N 
ATOM     47  H7  UNL     1     -15.570   6.349  25.612  1.00  0.00     0.168 HD
ENDBRANCH  32  35
BRANCH  33  48
HETATM   48  O11 UNL     1     -12.405   8.786  24.082  1.00  0.00    -0.388 OA
ATOM     49  H11 UNL     1     -11.798   9.190  23.472  1.00  0.00     0.210 HD
ENDBRANCH  33  48
BRANCH  34  50
HETATM   50  O12 UNL     1     -11.389   6.592  23.215  1.00  0.00    -0.390 OA
ATOM     51  H12 UNL     1     -11.620   5.671  23.196  1.00  0.00     0.210 HD
ENDBRANCH  34  50
ENDBRANCH  29  30
ENDBRANCH  28  29
ENDBRANCH   1  28
TORSDOF 15
ENDMDL
