MODEL 4
REMARK VINA RESULT: -10.446949244      1.730      2.328
REMARK  15 active torsions:
REMARK  status: ('A' for Active; 'I' for Inactive)
REMARK    1  A    between atoms: C1_2  and  C2_4 
REMARK    2  A    between atoms: N2_8  and  C6_9 
REMARK    3  A    between atoms: C7_11  and  C8_12 
REMARK    4  A    between atoms: C8_12  and  O3_13 
REMARK    5  A    between atoms: O3_13  and  P1_14 
REMARK    6  A    between atoms: P1_14  and  O6_17 
REMARK    7  A    between atoms: O6_17  and  P2_18 
REMARK    8  A    between atoms: P2_18  and  O9_21 
REMARK    9  A    between atoms: O9_21  and  C9_22 
REMARK   10  A    between atoms: C9_22  and  C10_23 
REMARK   11  A    between atoms: C11_25  and  N3_26 
REMARK   12  A    between atoms: C17_39  and  O11_40 
REMARK   13  A    between atoms: C18_42  and  O12_43 
REMARK   14  A    between atoms: C19_45  and  O13_46 
REMARK   15  A    between atoms: C20_48  and  O14_49 
ROOT
HETATM    1  P2  UNL     1      -8.000   5.575  26.590  1.00  0.00     0.417 P 
HETATM    2  O7  UNL     1      -8.847   5.545  27.827  1.00  0.00    -0.624 OA
HETATM    3  O8  UNL     1      -7.592   7.259  26.350  1.00  0.00    -0.624 OA
ENDROOT
BRANCH   1   4
HETATM    4  O6  UNL     1      -6.652   4.695  26.687  1.00  0.00    -0.180 OA
BRANCH   4   5
HETATM    5  P1  UNL     1      -6.297   3.671  25.438  1.00  0.00     0.417 P 
HETATM    6  O4  UNL     1      -6.931   2.349  25.524  1.00  0.00    -0.624 OA
HETATM    7  O5  UNL     1      -4.546   3.301  25.569  1.00  0.00    -0.624 OA
BRANCH   5   8
HETATM    8  O3  UNL     1      -6.428   4.434  23.994  1.00  0.00    -0.287 OA
BRANCH   8   9
HETATM    9  C8  UNL     1      -5.362   5.318  23.717  1.00  0.00     0.216 C 
BRANCH   9  10
HETATM   10  C7  UNL     1      -6.093   6.360  22.816  1.00  0.00     0.180 C 
HETATM   11  O2  UNL     1      -5.392   7.540  22.844  1.00  0.00    -0.353 OA
HETATM   12  C6  UNL     1      -5.217   8.043  21.576  1.00  0.00     0.259 C 
HETATM   13  C20 UNL     1      -6.307   7.348  20.753  1.00  0.00     0.198 C 
HETATM   14  C19 UNL     1      -6.254   5.940  21.417  1.00  0.00     0.182 C 
BRANCH  12  15
HETATM   15  N2  UNL     1      -3.932   7.475  21.117  1.00  0.00    -0.336 N 
HETATM   16  C5  UNL     1      -2.952   7.175  21.972  1.00  0.00     0.093 A 
HETATM   17  C4  UNL     1      -1.715   6.753  21.488  1.00  0.00     0.018 A 
HETATM   18  C3  UNL     1      -1.511   6.651  20.142  1.00  0.00     0.019 A 
HETATM   19  C2  UNL     1      -2.539   6.969  19.294  1.00  0.00     0.044 A 
HETATM   20  C21 UNL     1      -3.754   7.384  19.793  1.00  0.00     0.110 A 
BRANCH  19  21
HETATM   21  C1  UNL     1      -2.357   6.923  17.856  1.00  0.00     0.266 C 
HETATM   22  N1  UNL     1      -1.257   7.579  17.259  1.00  0.00    -0.057 NA
HETATM   23  O1  UNL     1      -3.159   6.309  17.074  1.00  0.00    -0.271 OA
ENDBRANCH  19  21
ENDBRANCH  12  15
BRANCH  13  24
HETATM   24  O14 UNL     1      -7.555   7.866  21.090  1.00  0.00    -0.388 OA
ATOM     25  H14 UNL     1      -8.238   7.375  20.647  1.00  0.00     0.210 HD
ENDBRANCH  13  24
BRANCH  14  26
HETATM   26  O13 UNL     1      -7.429   5.231  21.140  1.00  0.00    -0.390 OA
ATOM     27  H13 UNL     1      -7.726   5.279  20.239  1.00  0.00     0.210 HD
ENDBRANCH  14  26
ENDBRANCH   9  10
ENDBRANCH   8   9
ENDBRANCH   5   8
ENDBRANCH   4   5
ENDBRANCH   1   4
BRANCH   1  28
HETATM   28  O9  UNL     1      -9.082   5.278  25.274  1.00  0.00    -0.287 OA
BRANCH  28  29
HETATM   29  C9  UNL     1     -10.296   4.924  25.950  1.00  0.00     0.216 C 
BRANCH  29  30
HETATM   30  C10 UNL     1     -11.385   5.774  25.449  1.00  0.00     0.180 C 
HETATM   31  O10 UNL     1     -12.030   6.397  26.554  1.00  0.00    -0.353 OA
HETATM   32  C11 UNL     1     -12.960   7.193  25.854  1.00  0.00     0.262 C 
HETATM   33  C17 UNL     1     -11.908   8.027  25.072  1.00  0.00     0.198 C 
HETATM   34  C18 UNL     1     -11.024   6.865  24.535  1.00  0.00     0.182 C 
BRANCH  32  35
HETATM   35  N3  UNL     1     -13.709   7.959  26.772  1.00  0.00    -0.297 N 
HETATM   36  C12 UNL     1     -13.275   8.952  27.619  1.00  0.00     0.188 A 
HETATM   37  N4  UNL     1     -14.293   9.444  28.326  1.00  0.00    -0.346 N 
HETATM   38  C13 UNL     1     -15.408   8.766  27.925  1.00  0.00     0.119 A 
ATOM     39  H4  UNL     1     -14.247  10.181  29.029  1.00  0.00     0.167 HD
HETATM   40  C14 UNL     1     -16.709   8.860  28.326  1.00  0.00     0.148 A 
HETATM   41  C16 UNL     1     -15.021   7.847  26.962  1.00  0.00     0.142 A 
HETATM   42  N5  UNL     1     -17.114   9.828  29.288  1.00  0.00    -0.080 NA
HETATM   43  N6  UNL     1     -17.632   8.043  27.794  1.00  0.00    -0.339 N 
HETATM   44  C15 UNL     1     -17.285   7.140  26.873  1.00  0.00     0.183 A 
ATOM     45  H6  UNL     1     -18.605   8.112  28.095  1.00  0.00     0.167 HD
HETATM   46  N7  UNL     1     -15.981   7.056  26.467  1.00  0.00    -0.336 N 
ATOM     47  H7  UNL     1     -15.731   6.363  25.761  1.00  0.00     0.168 HD
ENDBRANCH  32  35
BRANCH  33  48
HETATM   48  O11 UNL     1     -12.432   8.826  24.116  1.00  0.00    -0.388 OA
ATOM     49  H11 UNL     1     -12.176   8.595  23.230  1.00  0.00     0.210 HD
ENDBRANCH  33  48
BRANCH  34  50
HETATM   50  O12 UNL     1     -11.541   6.585  23.233  1.00  0.00    -0.390 OA
ATOM     51  H12 UNL     1     -11.589   5.644  23.108  1.00  0.00     0.210 HD
ENDBRANCH  34  50
ENDBRANCH  29  30
ENDBRANCH  28  29
ENDBRANCH   1  28
TORSDOF 15
ENDMDL
