MODEL 1
REMARK VINA RESULT: -9.309405754      0.000      0.000
REMARK  6 active torsions:
REMARK  status: ('A' for Active; 'I' for Inactive)
REMARK    1  A    between atoms: C4_4  and  N1_5 
REMARK    2  A    between atoms: C8_9  and  C9_10 
REMARK       I    between atoms: C9_10  and  N2_12 
REMARK    3  A    between atoms: N2_12  and  C10_14 
REMARK    4  A    between atoms: C10_14  and  C11_15 
REMARK    5  A    between atoms: C11_15  and  C12_16 
REMARK    6  A    between atoms: C19_27  and  N4_28 
ROOT
HETATM    1  N1  UNL     1      72.505  -4.991  48.598  1.00  0.00    -0.353 N 
HETATM    2  C5  UNL     1      73.738  -4.760  47.878  1.00  0.00     0.125 C 
HETATM    3  C6  UNL     1      74.218  -3.447  48.391  1.00  0.00     0.022 C 
HETATM    4  C7  UNL     1      72.884  -2.695  48.527  1.00  0.00     0.037 C 
HETATM    5  C8  UNL     1      71.933  -3.750  49.065  1.00  0.00     0.178 C 
ENDROOT
BRANCH   1   6
HETATM    6  C4  UNL     1      71.984  -6.298  48.785  1.00  0.00     0.121 A 
HETATM    7  C3  UNL     1      70.667  -6.534  48.470  1.00  0.00     0.074 A 
HETATM    8  C2  UNL     1      70.093  -7.790  48.631  1.00  0.00     0.026 A 
HETATM    9  C1  UNL     1      68.676  -8.042  48.291  1.00  0.00     0.069 C 
HETATM   10  N6  UNL     1      70.871  -8.771  49.108  1.00  0.00    -0.195 N 
HETATM   11  C19 UNL     1      72.178  -8.562  49.427  1.00  0.00     0.691 A 
ATOM     12  H6  UNL     1      70.473  -9.701  49.236  1.00  0.00     0.184 HD
HETATM   13  N3  UNL     1      72.705  -7.317  49.255  1.00  0.00    -0.176 N 
ATOM     14  H3  UNL     1      73.685  -7.159  49.493  1.00  0.00     0.186 HD
BRANCH  11  15
HETATM   15  N4  UNL     1      72.941  -9.645  49.927  1.00  0.00    -0.153 N 
HETATM   16  C20 UNL     1      72.780 -10.925  49.555  1.00  0.00     0.133 A 
HETATM   17  C21 UNL     1      73.684 -11.727  50.233  1.00  0.00     0.107 A 
HETATM   18  N5  UNL     1      74.388 -10.897  51.018  1.00  0.00    -0.360 N 
HETATM   19  C22 UNL     1      73.924  -9.632  50.820  1.00  0.00     0.205 A 
ATOM     20  H5  UNL     1      75.139 -11.167  51.652  1.00  0.00     0.166 HD
ENDBRANCH  11  15
ENDBRANCH   1   6
BRANCH   5  21
HETATM   21  C9  UNL     1      71.849  -3.696  50.543  1.00  0.00     0.240 C 
HETATM   22  O1  UNL     1      72.855  -3.874  51.272  1.00  0.00    -0.271 OA
HETATM   23  N2  UNL     1      70.608  -3.435  51.209  1.00  0.00    -0.359 N 
ATOM     24  H2  UNL     1      69.771  -3.285  50.646  1.00  0.00     0.162 HD
BRANCH  23  25
HETATM   25  C10 UNL     1      70.499  -3.377  52.639  1.00  0.00     0.127 C 
BRANCH  25  26
HETATM   26  C11 UNL     1      69.174  -3.860  53.110  1.00  0.00     0.058 C 
BRANCH  26  27
HETATM   27  C12 UNL     1      68.940  -5.306  52.998  1.00  0.00    -0.054 A 
HETATM   28  C13 UNL     1      69.957  -6.181  52.709  1.00  0.00     0.010 A 
HETATM   29  C14 UNL     1      69.753  -7.544  52.613  1.00  0.00     0.040 A 
HETATM   30  C15 UNL     1      68.505  -8.063  52.807  1.00  0.00     0.105 A 
HETATM   31  C16 UNL     1      67.454  -7.221  53.099  1.00  0.00     0.105 A 
HETATM   32  O3  UNL     1      68.070  -9.379  52.760  1.00  0.00    -0.323 OA
HETATM   33  C17 UNL     1      67.671  -5.860  53.193  1.00  0.00     0.047 A 
HETATM   34  O2  UNL     1      66.339  -8.055  53.234  1.00  0.00    -0.323 OA
HETATM   35  C18 UNL     1      66.656  -9.315  52.672  1.00  0.00     0.352 C 
ENDBRANCH  26  27
ENDBRANCH  25  26
ENDBRANCH  23  25
ENDBRANCH   5  21
TORSDOF 6
ENDMDL
