MODEL 3
REMARK VINA RESULT: -9.123656593      2.147      3.310
REMARK  6 active torsions:
REMARK  status: ('A' for Active; 'I' for Inactive)
REMARK    1  A    between atoms: C4_4  and  N1_5 
REMARK    2  A    between atoms: C8_9  and  C9_10 
REMARK       I    between atoms: C9_10  and  N2_12 
REMARK    3  A    between atoms: N2_12  and  C10_14 
REMARK    4  A    between atoms: C10_14  and  C11_15 
REMARK    5  A    between atoms: C11_15  and  C12_16 
REMARK    6  A    between atoms: C19_27  and  N4_28 
ROOT
HETATM    1  N1  UNL     1      72.453  -2.131  48.829  1.00  0.00    -0.353 N 
HETATM    2  C5  UNL     1      73.715  -1.449  48.640  1.00  0.00     0.125 C 
HETATM    3  C6  UNL     1      74.009  -0.852  49.973  1.00  0.00     0.022 C 
HETATM    4  C7  UNL     1      72.597  -0.423  50.404  1.00  0.00     0.037 C 
HETATM    5  C8  UNL     1      71.716  -1.569  49.936  1.00  0.00     0.178 C 
ENDROOT
BRANCH   1   6
HETATM    6  C4  UNL     1      72.056  -3.209  47.995  1.00  0.00     0.121 A 
HETATM    7  C3  UNL     1      72.350  -3.148  46.654  1.00  0.00     0.074 A 
HETATM    8  C2  UNL     1      71.988  -4.168  45.781  1.00  0.00     0.026 A 
HETATM    9  C1  UNL     1      72.305  -4.100  44.339  1.00  0.00     0.069 C 
HETATM   10  N6  UNL     1      71.337  -5.221  46.295  1.00  0.00    -0.195 N 
HETATM   11  C19 UNL     1      71.035  -5.305  47.619  1.00  0.00     0.691 A 
ATOM     12  H6  UNL     1      71.061  -5.982  45.675  1.00  0.00     0.184 HD
HETATM   13  N3  UNL     1      71.408  -4.285  48.443  1.00  0.00    -0.176 N 
ATOM     14  H3  UNL     1      71.183  -4.347  49.436  1.00  0.00     0.186 HD
BRANCH  11  15
HETATM   15  N4  UNL     1      70.345  -6.448  48.092  1.00  0.00    -0.153 N 
HETATM   16  C20 UNL     1      69.060  -6.725  47.823  1.00  0.00     0.133 A 
HETATM   17  C21 UNL     1      68.700  -7.915  48.437  1.00  0.00     0.107 A 
HETATM   18  N5  UNL     1      69.798  -8.338  49.079  1.00  0.00    -0.360 N 
HETATM   19  C22 UNL     1      70.793  -7.435  48.860  1.00  0.00     0.205 A 
ATOM     20  H5  UNL     1      69.876  -9.190  49.636  1.00  0.00     0.166 HD
ENDBRANCH  11  15
ENDBRANCH   1   6
BRANCH   5  21
HETATM   21  C9  UNL     1      71.496  -2.556  51.018  1.00  0.00     0.240 C 
HETATM   22  O1  UNL     1      72.163  -3.616  51.095  1.00  0.00    -0.271 OA
HETATM   23  N2  UNL     1      70.507  -2.342  52.031  1.00  0.00    -0.359 N 
ATOM     24  H2  UNL     1      69.947  -1.489  51.998  1.00  0.00     0.162 HD
BRANCH  23  25
HETATM   25  C10 UNL     1      70.273  -3.281  53.091  1.00  0.00     0.127 C 
BRANCH  25  26
HETATM   26  C11 UNL     1      68.879  -3.798  53.070  1.00  0.00     0.058 C 
BRANCH  26  27
HETATM   27  C12 UNL     1      68.736  -5.258  52.986  1.00  0.00    -0.054 A 
HETATM   28  C13 UNL     1      69.810  -6.074  52.733  1.00  0.00     0.010 A 
HETATM   29  C14 UNL     1      69.690  -7.449  52.662  1.00  0.00     0.040 A 
HETATM   30  C15 UNL     1      68.473  -8.039  52.846  1.00  0.00     0.105 A 
HETATM   31  C16 UNL     1      67.368  -7.257  53.102  1.00  0.00     0.105 A 
HETATM   32  O3  UNL     1      68.120  -9.380  52.819  1.00  0.00    -0.323 OA
HETATM   33  C17 UNL     1      67.500  -5.884  53.170  1.00  0.00     0.047 A 
HETATM   34  O2  UNL     1      66.303  -8.156  53.236  1.00  0.00    -0.323 OA
HETATM   35  C18 UNL     1      66.706  -9.405  52.706  1.00  0.00     0.352 C 
ENDBRANCH  26  27
ENDBRANCH  25  26
ENDBRANCH  23  25
ENDBRANCH   5  21
TORSDOF 6
ENDMDL
