MODEL 2
REMARK VINA RESULT: -9.274249367      1.301      1.505
REMARK  6 active torsions:
REMARK  status: ('A' for Active; 'I' for Inactive)
REMARK    1  A    between atoms: C4_4  and  N1_5 
REMARK    2  A    between atoms: C8_9  and  C9_10 
REMARK       I    between atoms: C9_10  and  N2_12 
REMARK    3  A    between atoms: N2_12  and  C10_14 
REMARK    4  A    between atoms: C10_14  and  C11_15 
REMARK    5  A    between atoms: C11_15  and  C12_16 
REMARK    6  A    between atoms: C19_27  and  N4_28 
ROOT
HETATM    1  N1  UNL     1      72.281  -5.506  47.867  1.00  0.00    -0.353 N 
HETATM    2  C5  UNL     1      73.438  -5.318  47.018  1.00  0.00     0.125 C 
HETATM    3  C6  UNL     1      74.062  -4.066  47.529  1.00  0.00     0.022 C 
HETATM    4  C7  UNL     1      72.807  -3.239  47.852  1.00  0.00     0.037 C 
HETATM    5  C8  UNL     1      71.853  -4.257  48.451  1.00  0.00     0.178 C 
ENDROOT
BRANCH   1   6
HETATM    6  C4  UNL     1      71.696  -6.786  48.056  1.00  0.00     0.121 A 
HETATM    7  C3  UNL     1      70.405  -6.858  48.523  1.00  0.00     0.074 A 
HETATM    8  C2  UNL     1      69.773  -8.078  48.732  1.00  0.00     0.026 A 
HETATM    9  C1  UNL     1      68.384  -8.153  49.235  1.00  0.00     0.069 C 
HETATM   10  N6  UNL     1      70.468  -9.191  48.462  1.00  0.00    -0.195 N 
HETATM   11  C19 UNL     1      71.747  -9.146  47.998  1.00  0.00     0.691 A 
ATOM     12  H6  UNL     1      70.026 -10.098  48.608  1.00  0.00     0.184 HD
HETATM   13  N3  UNL     1      72.333  -7.931  47.805  1.00  0.00    -0.176 N 
ATOM     14  H3  UNL     1      73.291  -7.895  47.456  1.00  0.00     0.186 HD
BRANCH  11  15
HETATM   15  N4  UNL     1      72.422 -10.363  47.734  1.00  0.00    -0.153 N 
HETATM   16  C20 UNL     1      72.956 -11.156  48.676  1.00  0.00     0.133 A 
HETATM   17  C21 UNL     1      73.540 -12.263  48.079  1.00  0.00     0.107 A 
HETATM   18  N5  UNL     1      73.342 -12.111  46.761  1.00  0.00    -0.360 N 
HETATM   19  C22 UNL     1      72.659 -10.949  46.566  1.00  0.00     0.205 A 
ATOM     20  H5  UNL     1      73.649 -12.754  46.032  1.00  0.00     0.166 HD
ENDBRANCH  11  15
ENDBRANCH   1   6
BRANCH   5  21
HETATM   21  C9  UNL     1      71.941  -4.274  49.929  1.00  0.00     0.240 C 
HETATM   22  O1  UNL     1      72.950  -4.719  50.529  1.00  0.00    -0.271 OA
HETATM   23  N2  UNL     1      70.872  -3.780  50.744  1.00  0.00    -0.359 N 
ATOM     24  H2  UNL     1      70.038  -3.411  50.288  1.00  0.00     0.162 HD
BRANCH  23  25
HETATM   25  C10 UNL     1      70.931  -3.784  52.178  1.00  0.00     0.127 C 
BRANCH  25  26
HETATM   26  C11 UNL     1      69.611  -4.103  52.783  1.00  0.00     0.058 C 
BRANCH  26  27
HETATM   27  C12 UNL     1      69.242  -5.524  52.810  1.00  0.00    -0.054 A 
HETATM   28  C13 UNL     1      70.171  -6.514  52.611  1.00  0.00     0.010 A 
HETATM   29  C14 UNL     1      69.839  -7.855  52.646  1.00  0.00     0.040 A 
HETATM   30  C15 UNL     1      68.549  -8.233  52.883  1.00  0.00     0.105 A 
HETATM   31  C16 UNL     1      67.583  -7.272  53.087  1.00  0.00     0.105 A 
HETATM   32  O3  UNL     1      67.992  -9.501  52.960  1.00  0.00    -0.323 OA
HETATM   33  C17 UNL     1      67.928  -5.935  53.051  1.00  0.00     0.047 A 
HETATM   34  O2  UNL     1      66.395  -7.981  53.297  1.00  0.00    -0.323 OA
HETATM   35  C18 UNL     1      66.590  -9.314  52.860  1.00  0.00     0.352 C 
ENDBRANCH  26  27
ENDBRANCH  25  26
ENDBRANCH  23  25
ENDBRANCH   5  21
TORSDOF 6
ENDMDL
