MODEL 2
REMARK VINA RESULT: -9.067269300      1.600      2.280
REMARK  4 active torsions:
REMARK  status: ('A' for Active; 'I' for Inactive)
REMARK       I    between atoms: C1_2  and  N1_3 
REMARK    1  A    between atoms: C1_2  and  C8_12 
REMARK    2  A    between atoms: N1_3  and  C2_5 
REMARK    3  A    between atoms: C17_21  and  O2_22 
REMARK    4  A    between atoms: O2_22  and  P1_23 
ROOT
HETATM    1  C8  UNL     1      44.141  36.962  54.102  1.00  0.00     0.067 A 
HETATM    2  C9  UNL     1      44.899  37.238  52.937  1.00  0.00     0.032 A 
HETATM    3  C10 UNL     1      44.821  36.527  51.778  1.00  0.00    -0.025 A 
HETATM    4  C11 UNL     1      45.567  36.811  50.655  1.00  0.00     0.012 A 
HETATM    5  C12 UNL     1      45.473  36.081  49.504  1.00  0.00     0.001 A 
HETATM    6  C13 UNL     1      44.597  35.020  49.466  1.00  0.00     0.001 A 
HETATM    7  C14 UNL     1      43.840  34.719  50.578  1.00  0.00     0.012 A 
HETATM    8  C15 UNL     1      43.941  35.461  51.739  1.00  0.00    -0.023 A 
HETATM    9  C16 UNL     1      43.193  35.174  52.856  1.00  0.00     0.050 A 
HETATM   10  C17 UNL     1      43.295  35.933  54.043  1.00  0.00     0.099 A 
ENDROOT
BRANCH   1  11
HETATM   11  C1  UNL     1      44.448  37.789  55.283  1.00  0.00     0.259 C 
HETATM   12  O1  UNL     1      43.477  38.151  56.031  1.00  0.00    -0.267 OA
HETATM   13  N1  UNL     1      45.708  38.222  55.681  1.00  0.00    -0.323 N 
ATOM     14  H1  UNL     1      46.489  37.956  55.080  1.00  0.00     0.169 HD
BRANCH  13  15
HETATM   15  C2  UNL     1      46.032  38.997  56.832  1.00  0.00     0.035 A 
HETATM   16  C3  UNL     1      46.385  38.504  58.053  1.00  0.00     0.031 A 
HETATM   17  C4  UNL     1      46.677  39.347  59.133  1.00  0.00     0.026 A 
HETATM   18  C5  UNL     1      46.618  40.710  59.000  1.00  0.00     0.034 A 
HETATM   19 CL1  UNL     1      46.969  41.829  60.307  1.00  0.00    -0.084 Cl
HETATM   20  C6  UNL     1      46.266  41.230  57.785  1.00  0.00     0.026 A 
HETATM   21  C7  UNL     1      45.980  40.400  56.726  1.00  0.00     0.031 A 
ENDBRANCH  13  15
ENDBRANCH   1  11
BRANCH  10  22
HETATM   22  O2  UNL     1      42.483  35.560  55.095  1.00  0.00    -0.239 OA
BRANCH  22  23
HETATM   23  P1  UNL     1      40.854  35.564  55.222  1.00  0.00     0.427 P 
HETATM   24  O3  UNL     1      39.906  34.853  54.062  1.00  0.00    -0.617 OA
HETATM   25  O4  UNL     1      40.110  36.437  56.465  1.00  0.00    -0.617 OA
HETATM   26  O5  UNL     1      40.759  34.292  56.073  1.00  0.00    -0.617 OA
ENDBRANCH  22  23
ENDBRANCH  10  22
TORSDOF 4
ENDMDL
