MODEL 1
REMARK VINA RESULT: -9.176055390      0.000      0.000
REMARK  4 active torsions:
REMARK  status: ('A' for Active; 'I' for Inactive)
REMARK       I    between atoms: C1_2  and  N1_3 
REMARK    1  A    between atoms: C1_2  and  C8_12 
REMARK    2  A    between atoms: N1_3  and  C2_5 
REMARK    3  A    between atoms: C17_21  and  O2_22 
REMARK    4  A    between atoms: O2_22  and  P1_23 
ROOT
HETATM    1  C8  UNL     1      44.361  38.206  55.014  1.00  0.00     0.067 A 
HETATM    2  C9  UNL     1      45.359  37.732  54.128  1.00  0.00     0.032 A 
HETATM    3  C10 UNL     1      45.244  36.613  53.361  1.00  0.00    -0.025 A 
HETATM    4  C11 UNL     1      46.226  36.166  52.505  1.00  0.00     0.012 A 
HETATM    5  C12 UNL     1      46.087  35.039  51.747  1.00  0.00     0.001 A 
HETATM    6  C13 UNL     1      44.917  34.321  51.842  1.00  0.00     0.001 A 
HETATM    7  C14 UNL     1      43.920  34.749  52.692  1.00  0.00     0.012 A 
HETATM    8  C15 UNL     1      44.067  35.890  53.456  1.00  0.00    -0.023 A 
HETATM    9  C16 UNL     1      43.083  36.331  54.308  1.00  0.00     0.050 A 
HETATM   10  C17 UNL     1      43.234  37.498  55.089  1.00  0.00     0.099 A 
ENDROOT
BRANCH   1  11
HETATM   11  C1  UNL     1      44.725  39.379  55.829  1.00  0.00     0.259 C 
HETATM   12  O1  UNL     1      44.153  40.492  55.567  1.00  0.00    -0.267 OA
HETATM   13  N1  UNL     1      45.640  39.405  56.875  1.00  0.00    -0.323 N 
ATOM     14  H1  UNL     1      46.118  38.527  57.080  1.00  0.00     0.169 HD
BRANCH  13  15
HETATM   15  C2  UNL     1      45.987  40.519  57.694  1.00  0.00     0.035 A 
HETATM   16  C3  UNL     1      45.990  41.826  57.305  1.00  0.00     0.031 A 
HETATM   17  C4  UNL     1      46.357  42.856  58.180  1.00  0.00     0.026 A 
HETATM   18  C5  UNL     1      46.730  42.584  59.471  1.00  0.00     0.034 A 
HETATM   19 CL1  UNL     1      47.202  43.821  60.625  1.00  0.00    -0.084 Cl
HETATM   20  C6  UNL     1      46.735  41.281  59.886  1.00  0.00     0.026 A 
HETATM   21  C7  UNL     1      46.375  40.272  59.024  1.00  0.00     0.031 A 
ENDBRANCH  13  15
ENDBRANCH   1  11
BRANCH  10  22
HETATM   22  O2  UNL     1      42.170  37.851  55.897  1.00  0.00    -0.239 OA
BRANCH  22  23
HETATM   23  P1  UNL     1      40.642  37.277  55.936  1.00  0.00     0.427 P 
HETATM   24  O3  UNL     1      40.336  35.684  56.280  1.00  0.00    -0.617 OA
HETATM   25  O4  UNL     1      39.358  38.274  55.469  1.00  0.00    -0.617 OA
HETATM   26  O5  UNL     1      40.375  37.641  57.402  1.00  0.00    -0.617 OA
ENDBRANCH  22  23
ENDBRANCH  10  22
TORSDOF 4
ENDMDL
