MODEL 3
REMARK VINA RESULT: -8.892029411      1.341      1.813
REMARK  4 active torsions:
REMARK  status: ('A' for Active; 'I' for Inactive)
REMARK       I    between atoms: C1_2  and  N1_3 
REMARK    1  A    between atoms: C1_2  and  C8_12 
REMARK    2  A    between atoms: N1_3  and  C2_5 
REMARK    3  A    between atoms: C17_21  and  O2_22 
REMARK    4  A    between atoms: O2_22  and  P1_23 
ROOT
HETATM    1  C8  UNL     1      43.856  37.491  54.169  1.00  0.00     0.067 A 
HETATM    2  C9  UNL     1      44.906  37.052  53.326  1.00  0.00     0.032 A 
HETATM    3  C10 UNL     1      44.736  36.287  52.213  1.00  0.00    -0.025 A 
HETATM    4  C11 UNL     1      45.770  35.869  51.405  1.00  0.00     0.012 A 
HETATM    5  C12 UNL     1      45.573  35.099  50.294  1.00  0.00     0.001 A 
HETATM    6  C13 UNL     1      44.289  34.727  49.969  1.00  0.00     0.001 A 
HETATM    7  C14 UNL     1      43.238  35.135  50.763  1.00  0.00     0.012 A 
HETATM    8  C15 UNL     1      43.444  35.912  51.885  1.00  0.00    -0.023 A 
HETATM    9  C16 UNL     1      42.408  36.327  52.687  1.00  0.00     0.050 A 
HETATM   10  C17 UNL     1      42.619  37.124  53.835  1.00  0.00     0.099 A 
ENDROOT
BRANCH   1  11
HETATM   11  C1  UNL     1      44.264  38.226  55.380  1.00  0.00     0.259 C 
HETATM   12  O1  UNL     1      43.347  38.641  56.168  1.00  0.00    -0.267 OA
HETATM   13  N1  UNL     1      45.567  38.519  55.767  1.00  0.00    -0.323 N 
ATOM     14  H1  UNL     1      46.307  38.211  55.135  1.00  0.00     0.169 HD
BRANCH  13  15
HETATM   15  C2  UNL     1      45.986  39.203  56.945  1.00  0.00     0.035 A 
HETATM   16  C3  UNL     1      46.388  38.616  58.108  1.00  0.00     0.031 A 
HETATM   17  C4  UNL     1      46.774  39.373  59.222  1.00  0.00     0.026 A 
HETATM   18  C5  UNL     1      46.761  40.743  59.182  1.00  0.00     0.034 A 
HETATM   19 CL1  UNL     1      47.229  41.758  60.536  1.00  0.00    -0.084 Cl
HETATM   20  C6  UNL     1      46.361  41.356  58.026  1.00  0.00     0.026 A 
HETATM   21  C7  UNL     1      45.983  40.610  56.934  1.00  0.00     0.031 A 
ENDBRANCH  13  15
ENDBRANCH   1  11
BRANCH  10  22
HETATM   22  O2  UNL     1      41.499  37.492  54.553  1.00  0.00    -0.239 OA
BRANCH  22  23
HETATM   23  P1  UNL     1      40.423  36.576  55.371  1.00  0.00     0.427 P 
HETATM   24  O3  UNL     1      40.851  35.092  55.976  1.00  0.00    -0.617 OA
HETATM   25  O4  UNL     1      38.807  37.065  55.473  1.00  0.00    -0.617 OA
HETATM   26  O5  UNL     1      40.688  37.207  56.743  1.00  0.00    -0.617 OA
ENDBRANCH  22  23
ENDBRANCH  10  22
TORSDOF 4
ENDMDL
