MODEL 1
REMARK VINA RESULT: -10.310343773      0.000      0.000
REMARK  5 active torsions:
REMARK  status: ('A' for Active; 'I' for Inactive)
REMARK    1  A    between atoms: O1_2  and  C2_3 
REMARK    2  A    between atoms: C6_11  and  N3_12 
REMARK    3  A    between atoms: C9_15  and  O2_16 
REMARK    4  A    between atoms: O2_16  and  C10_17 
REMARK    5  A    between atoms: C23_30  and  O3_31 
ROOT
HETATM    1  C2  UNL     1       8.584  24.026  50.381  1.00  0.00     0.103 A 
HETATM    2  C3  UNL     1       8.112  22.860  50.963  1.00  0.00     0.070 A 
HETATM    3  C4  UNL     1       8.791  21.666  50.916  1.00  0.00     0.050 A 
HETATM    4  N1  UNL     1       8.346  20.540  51.468  1.00  0.00    -0.351 N 
ATOM      5  H1  UNL     1       7.454  20.543  51.962  1.00  0.00     0.166 HD
HETATM    6  C5  UNL     1       9.054  19.401  51.387  1.00  0.00     0.182 A 
HETATM    7  N2  UNL     1      10.223  19.322  50.762  1.00  0.00    -0.338 N 
ATOM      8  H2  UNL     1      10.733  18.440  50.720  1.00  0.00     0.168 HD
HETATM    9  C6  UNL     1      10.729  20.458  50.173  1.00  0.00     0.117 A 
HETATM   10  C21 UNL     1      10.014  21.643  50.246  1.00  0.00     0.037 A 
HETATM   11  C22 UNL     1      10.498  22.794  49.661  1.00  0.00     0.057 A 
HETATM   12  C23 UNL     1       9.796  24.005  49.717  1.00  0.00     0.102 A 
ENDROOT
BRANCH   9  13
HETATM   13  N3  UNL     1      11.966  20.423  49.510  1.00  0.00    -0.364 N 
HETATM   14  C7  UNL     1      13.262  20.283  50.105  1.00  0.00     0.127 C 
HETATM   15  C8  UNL     1      13.767  19.074  49.282  1.00  0.00     0.054 C 
HETATM   16  C9  UNL     1      13.230  19.404  47.888  1.00  0.00     0.148 C 
HETATM   17  C20 UNL     1      12.183  20.506  48.096  1.00  0.00     0.157 C 
BRANCH  16  18
HETATM   18  O2  UNL     1      12.586  18.317  47.305  1.00  0.00    -0.344 OA
BRANCH  18  19
HETATM   19  C10 UNL     1      12.846  17.725  46.102  1.00  0.00     0.070 A 
HETATM   20  C11 UNL     1      12.137  18.131  44.978  1.00  0.00     0.037 A 
HETATM   21  C12 UNL     1      12.344  17.582  43.735  1.00  0.00     0.015 A 
HETATM   22  C13 UNL     1      13.295  16.589  43.599  1.00  0.00    -0.026 A 
HETATM   23  C14 UNL     1      13.530  16.014  42.360  1.00  0.00     0.012 A 
HETATM   24  C18 UNL     1      14.016  16.157  44.671  1.00  0.00    -0.023 A 
HETATM   25  C15 UNL     1      14.476  15.023  42.216  1.00  0.00     0.001 A 
HETATM   26  C16 UNL     1      15.204  14.589  43.309  1.00  0.00     0.001 A 
HETATM   27  C17 UNL     1      14.972  15.163  44.552  1.00  0.00     0.012 A 
HETATM   28  C19 UNL     1      13.776  16.740  45.918  1.00  0.00     0.049 A 
ENDBRANCH  18  19
ENDBRANCH  16  18
ENDBRANCH   9  13
BRANCH  12  29
HETATM   29  O3  UNL     1      10.273  25.149  49.138  1.00  0.00    -0.353 OA
HETATM   30  C24 UNL     1      10.280  25.403  47.754  1.00  0.00     0.210 C 
ENDBRANCH  12  29
BRANCH   1  31
HETATM   31  O1  UNL     1       7.832  25.188  50.478  1.00  0.00    -0.353 OA
HETATM   32  C1  UNL     1       6.802  25.437  49.542  1.00  0.00     0.210 C 
ENDBRANCH   1  31
TORSDOF 5
ENDMDL
