MODEL 3
REMARK VINA RESULT: -9.991354924      1.843      3.213
REMARK  5 active torsions:
REMARK  status: ('A' for Active; 'I' for Inactive)
REMARK    1  A    between atoms: O1_2  and  C2_3 
REMARK    2  A    between atoms: C6_11  and  N3_12 
REMARK    3  A    between atoms: C9_15  and  O2_16 
REMARK    4  A    between atoms: O2_16  and  C10_17 
REMARK    5  A    between atoms: C23_30  and  O3_31 
ROOT
HETATM    1  C2  UNL     1       8.641  24.081  50.092  1.00  0.00     0.103 A 
HETATM    2  C3  UNL     1       9.046  24.243  48.776  1.00  0.00     0.070 A 
HETATM    3  C4  UNL     1       9.646  23.246  48.045  1.00  0.00     0.050 A 
HETATM    4  N1  UNL     1      10.041  23.391  46.783  1.00  0.00    -0.351 N 
ATOM      5  H1  UNL     1       9.897  24.284  46.312  1.00  0.00     0.166 HD
HETATM    6  C5  UNL     1      10.626  22.380  46.119  1.00  0.00     0.182 A 
HETATM    7  N2  UNL     1      10.846  21.190  46.666  1.00  0.00    -0.338 N 
ATOM      8  H2  UNL     1      11.293  20.445  46.132  1.00  0.00     0.168 HD
HETATM    9  C6  UNL     1      10.457  20.986  47.969  1.00  0.00     0.117 A 
HETATM   10  C21 UNL     1       9.852  22.017  48.672  1.00  0.00     0.037 A 
HETATM   11  C22 UNL     1       9.456  21.839  49.981  1.00  0.00     0.057 A 
HETATM   12  C23 UNL     1       8.844  22.864  50.715  1.00  0.00     0.102 A 
ENDROOT
BRANCH   9  13
HETATM   13  N3  UNL     1      10.661  19.742  48.585  1.00  0.00    -0.364 N 
HETATM   14  C7  UNL     1       9.748  18.639  48.629  1.00  0.00     0.127 C 
HETATM   15  C8  UNL     1      10.683  17.541  48.067  1.00  0.00     0.054 C 
HETATM   16  C9  UNL     1      12.011  17.891  48.740  1.00  0.00     0.148 C 
HETATM   17  C20 UNL     1      11.836  19.315  49.287  1.00  0.00     0.157 C 
BRANCH  16  18
HETATM   18  O2  UNL     1      13.066  17.916  47.834  1.00  0.00    -0.344 OA
BRANCH  18  19
HETATM   19  C10 UNL     1      13.071  17.505  46.531  1.00  0.00     0.070 A 
HETATM   20  C11 UNL     1      13.778  16.361  46.182  1.00  0.00     0.037 A 
HETATM   21  C12 UNL     1      13.828  15.887  44.893  1.00  0.00     0.015 A 
HETATM   22  C13 UNL     1      13.149  16.576  43.907  1.00  0.00    -0.026 A 
HETATM   23  C14 UNL     1      13.178  16.127  42.596  1.00  0.00     0.012 A 
HETATM   24  C18 UNL     1      12.442  17.703  44.198  1.00  0.00    -0.023 A 
HETATM   25  C15 UNL     1      12.504  16.808  41.607  1.00  0.00     0.001 A 
HETATM   26  C16 UNL     1      11.788  17.952  41.910  1.00  0.00     0.001 A 
HETATM   27  C17 UNL     1      11.756  18.405  43.222  1.00  0.00     0.012 A 
HETATM   28  C19 UNL     1      12.415  18.153  45.521  1.00  0.00     0.049 A 
ENDBRANCH  18  19
ENDBRANCH  16  18
ENDBRANCH   9  13
BRANCH  12  29
HETATM   29  O3  UNL     1       8.450  22.691  52.014  1.00  0.00    -0.353 OA
HETATM   30  C24 UNL     1       7.910  21.501  52.534  1.00  0.00     0.210 C 
ENDBRANCH  12  29
BRANCH   1  31
HETATM   31  O1  UNL     1       8.042  25.142  50.756  1.00  0.00    -0.353 OA
HETATM   32  C1  UNL     1       8.088  26.438  50.192  1.00  0.00     0.210 C 
ENDBRANCH   1  31
TORSDOF 5
ENDMDL
