MODEL 2
REMARK VINA RESULT: -10.156536139      0.513      1.348
REMARK  5 active torsions:
REMARK  status: ('A' for Active; 'I' for Inactive)
REMARK    1  A    between atoms: O1_2  and  C2_3 
REMARK    2  A    between atoms: C6_11  and  N3_12 
REMARK    3  A    between atoms: C9_15  and  O2_16 
REMARK    4  A    between atoms: O2_16  and  C10_17 
REMARK    5  A    between atoms: C23_30  and  O3_31 
ROOT
HETATM    1  C2  UNL     1       8.466  24.080  50.327  1.00  0.00     0.103 A 
HETATM    2  C3  UNL     1       7.968  22.919  50.898  1.00  0.00     0.070 A 
HETATM    3  C4  UNL     1       8.648  21.725  50.890  1.00  0.00     0.050 A 
HETATM    4  N1  UNL     1       8.179  20.604  51.433  1.00  0.00    -0.351 N 
ATOM      5  H1  UNL     1       7.266  20.610  51.887  1.00  0.00     0.166 HD
HETATM    6  C5  UNL     1       8.889  19.464  51.392  1.00  0.00     0.182 A 
HETATM    7  N2  UNL     1      10.084  19.379  50.819  1.00  0.00    -0.338 N 
ATOM      8  H2  UNL     1      10.595  18.496  50.806  1.00  0.00     0.168 HD
HETATM    9  C6  UNL     1      10.616  20.510  50.243  1.00  0.00     0.117 A 
HETATM   10  C21 UNL     1       9.899  21.695  50.274  1.00  0.00     0.037 A 
HETATM   11  C22 UNL     1      10.409  22.841  49.701  1.00  0.00     0.057 A 
HETATM   12  C23 UNL     1       9.705  24.053  49.716  1.00  0.00     0.102 A 
ENDROOT
BRANCH   9  13
HETATM   13  N3  UNL     1      11.880  20.468  49.635  1.00  0.00    -0.364 N 
HETATM   14  C7  UNL     1      13.154  20.445  50.290  1.00  0.00     0.127 C 
HETATM   15  C8  UNL     1      13.744  19.188  49.606  1.00  0.00     0.054 C 
HETATM   16  C9  UNL     1      13.254  19.360  48.167  1.00  0.00     0.148 C 
HETATM   17  C20 UNL     1      12.154  20.429  48.228  1.00  0.00     0.157 C 
BRANCH  16  18
HETATM   18  O2  UNL     1      12.680  18.195  47.667  1.00  0.00    -0.344 OA
BRANCH  18  19
HETATM   19  C10 UNL     1      13.058  17.469  46.573  1.00  0.00     0.070 A 
HETATM   20  C11 UNL     1      13.949  16.415  46.733  1.00  0.00     0.037 A 
HETATM   21  C12 UNL     1      14.375  15.640  45.680  1.00  0.00     0.015 A 
HETATM   22  C13 UNL     1      13.898  15.923  44.415  1.00  0.00    -0.026 A 
HETATM   23  C14 UNL     1      14.306  15.162  43.330  1.00  0.00     0.012 A 
HETATM   24  C18 UNL     1      13.024  16.946  44.207  1.00  0.00    -0.023 A 
HETATM   25  C15 UNL     1      13.836  15.437  42.066  1.00  0.00     0.001 A 
HETATM   26  C16 UNL     1      12.948  16.478  41.861  1.00  0.00     0.001 A 
HETATM   27  C17 UNL     1      12.537  17.242  42.945  1.00  0.00     0.012 A 
HETATM   28  C19 UNL     1      12.615  17.710  45.303  1.00  0.00     0.049 A 
ENDBRANCH  18  19
ENDBRANCH  16  18
ENDBRANCH   9  13
BRANCH  12  29
HETATM   29  O3  UNL     1      10.208  25.192  49.149  1.00  0.00    -0.353 OA
HETATM   30  C24 UNL     1      10.302  25.423  47.765  1.00  0.00     0.210 C 
ENDBRANCH  12  29
BRANCH   1  31
HETATM   31  O1  UNL     1       7.711  25.243  50.381  1.00  0.00    -0.353 OA
HETATM   32  C1  UNL     1       6.669  25.447  49.448  1.00  0.00     0.210 C 
ENDBRANCH   1  31
TORSDOF 5
ENDMDL
