MODEL 2
REMARK VINA RESULT: -9.259774835      1.559      2.137
REMARK  5 active torsions:
REMARK  status: ('A' for Active; 'I' for Inactive)
REMARK    1  A    between atoms: O1_2  and  C2_3 
REMARK    2  A    between atoms: C6_11  and  N3_12 
REMARK    3  A    between atoms: C9_15  and  O2_16 
REMARK    4  A    between atoms: O2_16  and  C10_17 
REMARK    5  A    between atoms: C21_32  and  O3_33 
ROOT
HETATM    1  N3  UNL     1      10.636  19.033  49.668  1.00  0.00    -0.364 N 
HETATM    2  C7  UNL     1      10.033  18.258  48.624  1.00  0.00     0.127 C 
HETATM    3  C8  UNL     1      11.069  17.204  48.328  1.00  0.00     0.054 C 
HETATM    4  C9  UNL     1      12.370  17.994  48.404  1.00  0.00     0.150 C 
HETATM    5  C18 UNL     1      12.080  19.018  49.479  1.00  0.00     0.157 C 
ENDROOT
BRANCH   1   6
HETATM    6  C6  UNL     1      10.052  19.743  50.745  1.00  0.00     0.117 A 
HETATM    7  N2  UNL     1      10.150  19.293  52.028  1.00  0.00    -0.338 N 
HETATM    8  C5  UNL     1       9.620  19.964  53.065  1.00  0.00     0.182 A 
ATOM      9  H2  UNL     1      10.641  18.416  52.207  1.00  0.00     0.168 HD
HETATM   10  N1  UNL     1       8.969  21.120  52.849  1.00  0.00    -0.351 N 
HETATM   11  C4  UNL     1       8.834  21.628  51.607  1.00  0.00     0.050 A 
ATOM     12  H1  UNL     1       8.569  21.624  53.640  1.00  0.00     0.166 HD
HETATM   13  C3  UNL     1       8.166  22.806  51.364  1.00  0.00     0.070 A 
HETATM   14  C19 UNL     1       9.390  20.919  50.529  1.00  0.00     0.037 A 
HETATM   15  C2  UNL     1       8.048  23.284  50.054  1.00  0.00     0.103 A 
HETATM   16  C21 UNL     1       8.590  22.593  48.997  1.00  0.00     0.102 A 
HETATM   17  C20 UNL     1       9.270  21.394  49.240  1.00  0.00     0.057 A 
BRANCH  15  18
HETATM   18  O1  UNL     1       7.388  24.459  49.780  1.00  0.00    -0.353 OA
HETATM   19  C1  UNL     1       7.883  25.712  50.221  1.00  0.00     0.210 C 
ENDBRANCH  15  18
BRANCH  16  20
HETATM   20  O3  UNL     1       8.467  23.076  47.709  1.00  0.00    -0.353 OA
HETATM   21  C22 UNL     1       7.542  22.456  46.826  1.00  0.00     0.210 C 
ENDBRANCH  16  20
ENDBRANCH   1   6
BRANCH   4  22
HETATM   22  O2  UNL     1      12.693  18.610  47.218  1.00  0.00    -0.328 OA
BRANCH  22  23
HETATM   23  C10 UNL     1      12.851  18.034  45.982  1.00  0.00     0.159 A 
HETATM   24  C11 UNL     1      12.144  18.379  44.864  1.00  0.00     0.144 A 
HETATM   25  N4  UNL     1      12.359  17.760  43.671  1.00  0.00    -0.360 N 
HETATM   26  C12 UNL     1      13.274  16.792  43.561  1.00  0.00     0.059 A 
ATOM     27  H4  UNL     1      11.816  18.036  42.853  1.00  0.00     0.165 HD
HETATM   28  C13 UNL     1      13.511  16.149  42.363  1.00  0.00     0.032 A 
HETATM   29  C17 UNL     1      14.003  16.425  44.674  1.00  0.00     0.061 A 
HETATM   30  C14 UNL     1      14.443  15.161  42.244  1.00  0.00     0.002 A 
HETATM   31  C15 UNL     1      15.177  14.787  43.352  1.00  0.00     0.002 A 
HETATM   32  C16 UNL     1      14.944  15.424  44.544  1.00  0.00     0.032 A 
HETATM   33  N5  UNL     1      13.772  17.047  45.833  1.00  0.00    -0.334 N 
ATOM     34  H5  UNL     1      14.317  16.767  46.648  1.00  0.00     0.168 HD
ENDBRANCH  22  23
ENDBRANCH   4  22
TORSDOF 5
ENDMDL
