MODEL 1
REMARK VINA RESULT: -9.321542039      0.000      0.000
REMARK  5 active torsions:
REMARK  status: ('A' for Active; 'I' for Inactive)
REMARK    1  A    between atoms: O1_2  and  C2_3 
REMARK    2  A    between atoms: C6_11  and  N3_12 
REMARK    3  A    between atoms: C9_15  and  O2_16 
REMARK    4  A    between atoms: O2_16  and  C10_17 
REMARK    5  A    between atoms: C21_32  and  O3_33 
ROOT
HETATM    1  N3  UNL     1      11.198  19.757  49.903  1.00  0.00    -0.364 N 
HETATM    2  C7  UNL     1      12.554  19.749  50.365  1.00  0.00     0.127 C 
HETATM    3  C8  UNL     1      13.352  20.022  49.117  1.00  0.00     0.054 C 
HETATM    4  C9  UNL     1      12.616  19.193  48.070  1.00  0.00     0.150 C 
HETATM    5  C18 UNL     1      11.177  19.275  48.528  1.00  0.00     0.157 C 
ENDROOT
BRANCH   1   6
HETATM    6  C6  UNL     1      10.001  20.133  50.558  1.00  0.00     0.117 A 
HETATM    7  N2  UNL     1       9.217  19.214  51.188  1.00  0.00    -0.338 N 
HETATM    8  C5  UNL     1       8.088  19.557  51.833  1.00  0.00     0.182 A 
ATOM      9  H2  UNL     1       9.496  18.233  51.170  1.00  0.00     0.168 HD
HETATM   10  N1  UNL     1       7.704  20.844  51.866  1.00  0.00    -0.351 N 
HETATM   11  C4  UNL     1       8.430  21.810  51.266  1.00  0.00     0.050 A 
ATOM     12  H1  UNL     1       6.846  21.097  52.356  1.00  0.00     0.166 HD
HETATM   13  C3  UNL     1       8.051  23.132  51.284  1.00  0.00     0.070 A 
HETATM   14  C19 UNL     1       9.607  21.442  50.594  1.00  0.00     0.037 A 
HETATM   15  C2  UNL     1       8.837  24.092  50.637  1.00  0.00     0.103 A 
HETATM   16  C21 UNL     1       9.990  23.736  49.979  1.00  0.00     0.102 A 
HETATM   17  C20 UNL     1      10.378  22.392  49.958  1.00  0.00     0.057 A 
BRANCH  15  18
HETATM   18  O1  UNL     1       8.485  25.421  50.639  1.00  0.00    -0.353 OA
HETATM   19  C1  UNL     1       7.422  25.911  49.839  1.00  0.00     0.210 C 
ENDBRANCH  15  18
BRANCH  16  20
HETATM   20  O3  UNL     1      10.757  24.694  49.345  1.00  0.00    -0.353 OA
HETATM   21  C22 UNL     1      10.593  24.895  47.948  1.00  0.00     0.210 C 
ENDBRANCH  16  20
ENDBRANCH   1   6
BRANCH   4  22
HETATM   22  O2  UNL     1      13.041  17.886  48.027  1.00  0.00    -0.328 OA
BRANCH  22  23
HETATM   23  C10 UNL     1      13.502  17.182  46.942  1.00  0.00     0.159 A 
HETATM   24  C11 UNL     1      14.468  16.216  46.991  1.00  0.00     0.144 A 
HETATM   25  N4  UNL     1      14.872  15.561  45.869  1.00  0.00    -0.360 N 
HETATM   26  C12 UNL     1      14.330  15.846  44.681  1.00  0.00     0.059 A 
ATOM     27  H4  UNL     1      15.596  14.845  45.935  1.00  0.00     0.165 HD
HETATM   28  C13 UNL     1      14.722  15.196  43.528  1.00  0.00     0.032 A 
HETATM   29  C17 UNL     1      13.352  16.817  44.603  1.00  0.00     0.061 A 
HETATM   30  C14 UNL     1      14.174  15.483  42.314  1.00  0.00     0.002 A 
HETATM   31  C15 UNL     1      13.195  16.452  42.226  1.00  0.00     0.002 A 
HETATM   32  C16 UNL     1      12.802  17.100  43.369  1.00  0.00     0.032 A 
HETATM   33  N5  UNL     1      12.974  17.446  45.718  1.00  0.00    -0.334 N 
ATOM     34  H5  UNL     1      12.250  18.161  45.648  1.00  0.00     0.168 HD
ENDBRANCH  22  23
ENDBRANCH   4  22
TORSDOF 5
ENDMDL
