MODEL 3
REMARK VINA RESULT: -9.183754793      1.337      1.397
REMARK  5 active torsions:
REMARK  status: ('A' for Active; 'I' for Inactive)
REMARK    1  A    between atoms: O1_2  and  C2_3 
REMARK    2  A    between atoms: C6_11  and  N3_12 
REMARK    3  A    between atoms: C9_15  and  O2_16 
REMARK    4  A    between atoms: O2_16  and  C10_17 
REMARK    5  A    between atoms: C21_32  and  O3_33 
ROOT
HETATM    1  N3  UNL     1      11.157  19.523  49.758  1.00  0.00    -0.364 N 
HETATM    2  C7  UNL     1      12.449  19.892  49.261  1.00  0.00     0.127 C 
HETATM    3  C8  UNL     1      12.348  19.616  47.783  1.00  0.00     0.054 C 
HETATM    4  C9  UNL     1      11.566  18.308  47.748  1.00  0.00     0.150 C 
HETATM    5  C18 UNL     1      10.639  18.438  48.936  1.00  0.00     0.157 C 
ENDROOT
BRANCH   1   6
HETATM    6  C6  UNL     1      10.406  20.031  50.845  1.00  0.00     0.117 A 
HETATM    7  N2  UNL     1      10.504  19.489  52.092  1.00  0.00    -0.338 N 
HETATM    8  C5  UNL     1       9.814  19.973  53.140  1.00  0.00     0.182 A 
ATOM      9  H2  UNL     1      11.122  18.690  52.235  1.00  0.00     0.168 HD
HETATM   10  N1  UNL     1       8.995  21.025  52.970  1.00  0.00    -0.351 N 
HETATM   11  C4  UNL     1       8.848  21.614  51.766  1.00  0.00     0.050 A 
ATOM     12  H1  UNL     1       8.474  21.386  53.770  1.00  0.00     0.166 HD
HETATM   13  C3  UNL     1       8.010  22.688  51.571  1.00  0.00     0.070 A 
HETATM   14  C19 UNL     1       9.572  21.102  50.677  1.00  0.00     0.037 A 
HETATM   15  C2  UNL     1       7.889  23.256  50.299  1.00  0.00     0.103 A 
HETATM   16  C21 UNL     1       8.596  22.758  49.230  1.00  0.00     0.102 A 
HETATM   17  C20 UNL     1       9.448  21.665  49.425  1.00  0.00     0.057 A 
BRANCH  15  18
HETATM   18  O1  UNL     1       7.061  24.331  50.073  1.00  0.00    -0.353 OA
HETATM   19  C1  UNL     1       7.549  25.662  50.083  1.00  0.00     0.210 C 
ENDBRANCH  15  18
BRANCH  16  20
HETATM   20  O3  UNL     1       8.467  23.328  47.979  1.00  0.00    -0.353 OA
HETATM   21  C22 UNL     1       7.710  22.649  46.987  1.00  0.00     0.210 C 
ENDBRANCH  16  20
ENDBRANCH   1   6
BRANCH   4  22
HETATM   22  O2  UNL     1      12.370  17.200  47.875  1.00  0.00    -0.328 OA
BRANCH  22  23
HETATM   23  C10 UNL     1      13.156  16.611  46.915  1.00  0.00     0.159 A 
HETATM   24  C11 UNL     1      14.285  15.883  47.170  1.00  0.00     0.144 A 
HETATM   25  N4  UNL     1      15.012  15.329  46.162  1.00  0.00    -0.360 N 
HETATM   26  C12 UNL     1      14.638  15.482  44.889  1.00  0.00     0.059 A 
ATOM     27  H4  UNL     1      15.851  14.792  46.381  1.00  0.00     0.165 HD
HETATM   28  C13 UNL     1      15.358  14.930  43.848  1.00  0.00     0.032 A 
HETATM   29  C17 UNL     1      13.502  16.211  44.603  1.00  0.00     0.061 A 
HETATM   30  C14 UNL     1      14.983  15.082  42.547  1.00  0.00     0.002 A 
HETATM   31  C15 UNL     1      13.847  15.810  42.252  1.00  0.00     0.002 A 
HETATM   32  C16 UNL     1      13.129  16.360  43.283  1.00  0.00     0.032 A 
HETATM   33  N5  UNL     1      12.806  16.745  45.610  1.00  0.00    -0.334 N 
ATOM     34  H5  UNL     1      11.968  17.282  45.387  1.00  0.00     0.168 HD
ENDBRANCH  22  23
ENDBRANCH   4  22
TORSDOF 5
ENDMDL
