MODEL 11
REMARK VINA RESULT: -6.054810367      2.635      3.921
REMARK  0 active torsions:
REMARK  status: ('A' for Active; 'I' for Inactive)
ROOT
HETATM    1  O1  UNL     1      24.616   3.839  20.698  1.00  0.00    -0.247 OA
HETATM    2  C1  UNL     1      23.916   4.848  20.354  1.00  0.00     0.325 A 
HETATM    3  N1  UNL     1      23.931   5.485  19.166  1.00  0.00    -0.305 N 
ATOM      4  H1  UNL     1      24.521   5.233  18.372  1.00  0.00     0.171 HD
HETATM    5  C2  UNL     1      23.052   6.502  19.187  1.00  0.00     0.083 A 
HETATM    6  C3  UNL     1      22.649   7.467  18.288  1.00  0.00     0.059 A 
HETATM    7 BR1  UNL     1      23.418   7.527  16.551  1.00  0.00    -0.047 Br
HETATM    8  C4  UNL     1      21.686   8.392  18.655  1.00  0.00     0.049 A 
HETATM    9 BR2  UNL     1      21.094   9.747  17.450  1.00  0.00    -0.048 Br
HETATM   10  C5  UNL     1      21.129   8.353  19.904  1.00  0.00     0.049 A 
HETATM   11 BR3  UNL     1      19.788   9.629  20.436  1.00  0.00    -0.048 Br
HETATM   12  C6  UNL     1      21.526   7.385  20.819  1.00  0.00     0.059 A 
HETATM   13 BR4  UNL     1      20.758   7.317  22.574  1.00  0.00    -0.047 Br
HETATM   14  C7  UNL     1      22.486   6.473  20.441  1.00  0.00     0.083 A 
HETATM   15  N2  UNL     1      23.013   5.457  21.164  1.00  0.00    -0.305 N 
ATOM     16  H2  UNL     1      22.778   5.202  22.123  1.00  0.00     0.171 HD
ENDROOT
TORSDOF 0
ENDMDL
