MODEL 16
REMARK VINA RESULT: -5.916910121      4.428      5.855
REMARK  0 active torsions:
REMARK  status: ('A' for Active; 'I' for Inactive)
ROOT
HETATM    1  O1  UNL     1      18.653  10.184  25.582  1.00  0.00    -0.247 OA
HETATM    2  C1  UNL     1      19.172   9.118  25.113  1.00  0.00     0.325 A 
HETATM    3  N1  UNL     1      19.865   8.985  23.964  1.00  0.00    -0.305 N 
ATOM      4  H1  UNL     1      20.065   9.741  23.308  1.00  0.00     0.171 HD
HETATM    5  C2  UNL     1      20.251   7.707  23.815  1.00  0.00     0.083 A 
HETATM    6  C3  UNL     1      20.963   7.003  22.866  1.00  0.00     0.059 A 
HETATM    7 BR1  UNL     1      21.636   7.896  21.329  1.00  0.00    -0.047 Br
HETATM    8  C4  UNL     1      21.184   5.646  23.035  1.00  0.00     0.049 A 
HETATM    9 BR2  UNL     1      22.162   4.627  21.754  1.00  0.00    -0.048 Br
HETATM   10  C5  UNL     1      20.702   4.999  24.140  1.00  0.00     0.049 A 
HETATM   11 BR3  UNL     1      20.998   3.114  24.397  1.00  0.00    -0.048 Br
HETATM   12  C6  UNL     1      19.984   5.697  25.104  1.00  0.00     0.059 A 
HETATM   13 BR4  UNL     1      19.300   4.806  26.657  1.00  0.00    -0.047 Br
HETATM   14  C7  UNL     1      19.771   7.045  24.922  1.00  0.00     0.083 A 
HETATM   15  N2  UNL     1      19.106   7.908  25.725  1.00  0.00    -0.305 N 
ATOM     16  H2  UNL     1      18.648   7.693  26.611  1.00  0.00     0.171 HD
ENDROOT
TORSDOF 0
ENDMDL
