MODEL 17
REMARK VINA RESULT: -5.904741442      3.491      5.281
REMARK  0 active torsions:
REMARK  status: ('A' for Active; 'I' for Inactive)
ROOT
HETATM    1  O1  UNL     1      24.310   6.753  14.689  1.00  0.00    -0.247 OA
HETATM    2  C1  UNL     1      24.169   6.290  15.869  1.00  0.00     0.325 A 
HETATM    3  N1  UNL     1      24.609   5.106  16.339  1.00  0.00    -0.305 N 
ATOM      4  H1  UNL     1      25.123   4.412  15.796  1.00  0.00     0.171 HD
HETATM    5  C2  UNL     1      24.266   4.978  17.633  1.00  0.00     0.083 A 
HETATM    6  C3  UNL     1      24.442   4.013  18.602  1.00  0.00     0.059 A 
HETATM    7 BR1  UNL     1      25.368   2.406  18.185  1.00  0.00    -0.047 Br
HETATM    8  C4  UNL     1      23.941   4.216  19.878  1.00  0.00     0.049 A 
HETATM    9 BR2  UNL     1      24.156   2.914  21.253  1.00  0.00    -0.048 Br
HETATM   10  C5  UNL     1      23.274   5.371  20.183  1.00  0.00     0.049 A 
HETATM   11 BR3  UNL     1      22.570   5.676  21.949  1.00  0.00    -0.048 Br
HETATM   12  C6  UNL     1      23.091   6.352  19.215  1.00  0.00     0.059 A 
HETATM   13 BR4  UNL     1      22.157   7.975  19.625  1.00  0.00    -0.047 Br
HETATM   14  C7  UNL     1      23.593   6.136  17.952  1.00  0.00     0.083 A 
HETATM   15  N2  UNL     1      23.530   6.948  16.871  1.00  0.00    -0.305 N 
ATOM     16  H2  UNL     1      23.091   7.867  16.819  1.00  0.00     0.171 HD
ENDROOT
TORSDOF 0
ENDMDL
