MODEL 12
REMARK VINA RESULT: -5.979435206      3.460      4.477
REMARK  0 active torsions:
REMARK  status: ('A' for Active; 'I' for Inactive)
ROOT
HETATM    1  O1  UNL     1      24.212   6.953  14.569  1.00  0.00    -0.247 OA
HETATM    2  C1  UNL     1      24.049   6.556  15.770  1.00  0.00     0.325 A 
HETATM    3  N1  UNL     1      23.403   7.201  16.763  1.00  0.00    -0.305 N 
ATOM      4  H1  UNL     1      22.953   8.112  16.675  1.00  0.00     0.171 HD
HETATM    5  C2  UNL     1      23.444   6.461  17.884  1.00  0.00     0.083 A 
HETATM    6  C3  UNL     1      22.969   6.606  19.171  1.00  0.00     0.059 A 
HETATM    7 BR1  UNL     1      22.001   8.168  19.655  1.00  0.00    -0.047 Br
HETATM    8  C4  UNL     1      23.200   5.611  20.107  1.00  0.00     0.049 A 
HETATM    9 BR2  UNL     1      22.566   5.762  21.899  1.00  0.00    -0.048 Br
HETATM   10  C5  UNL     1      23.896   4.485  19.763  1.00  0.00     0.049 A 
HETATM   11 BR3  UNL     1      24.229   3.090  21.048  1.00  0.00    -0.048 Br
HETATM   12  C6  UNL     1      24.379   4.327  18.470  1.00  0.00     0.059 A 
HETATM   13 BR4  UNL     1      25.357   2.755  17.971  1.00  0.00    -0.047 Br
HETATM   14  C7  UNL     1      24.143   5.323  17.550  1.00  0.00     0.083 A 
HETATM   15  N2  UNL     1      24.518   5.375  16.250  1.00  0.00    -0.305 N 
ATOM     16  H2  UNL     1      25.046   4.670  15.736  1.00  0.00     0.171 HD
ENDROOT
TORSDOF 0
ENDMDL
