MODEL 2
REMARK VINA RESULT: -6.714528187      2.533      4.464
REMARK  8 active torsions:
REMARK  status: ('A' for Active; 'I' for Inactive)
REMARK       I    between atoms: C2_2  and  N1_4 
REMARK    1  A    between atoms: N1_4  and  C3_6 
REMARK    2  A    between atoms: N2_8  and  O2_10 
REMARK    3  A    between atoms: O2_10  and  C5_11 
REMARK       I    between atoms: C5_11  and  N3_13 
REMARK    4  A    between atoms: N3_13  and  C6_15 
REMARK    5  A    between atoms: C12_22  and  C13_23 
REMARK    6  A    between atoms: C13_23  and  O5_24 
REMARK    7  A    between atoms: C14_26  and  O6_27 
REMARK    8  A    between atoms: C15_29  and  O7_30 
ROOT
HETATM    1  C3  UNL     1       4.227  -8.191   9.828  1.00  0.00     0.192 C 
HETATM    2  C4  UNL     1       5.612  -8.382  10.322  1.00  0.00     0.165 C 
HETATM    3  N2  UNL     1       5.823  -8.363  11.589  1.00  0.00    -0.236 N 
ATOM      4  H2  UNL     1       5.022  -8.216  12.204  1.00  0.00     0.197 HD
HETATM    5  O4  UNL     1       6.598  -8.568   9.400  1.00  0.00    -0.326 OA
HETATM    6  C12 UNL     1       6.464  -8.424   8.012  1.00  0.00     0.185 C 
HETATM    7  C14 UNL     1       5.227  -7.747   7.564  1.00  0.00     0.180 C 
HETATM    8  C15 UNL     1       4.317  -7.269   8.631  1.00  0.00     0.180 C 
ENDROOT
BRANCH   1   9
HETATM    9  N1  UNL     1       3.667  -9.449   9.333  1.00  0.00    -0.347 N 
HETATM   10  C2  UNL     1       3.382 -10.547  10.177  1.00  0.00     0.214 C 
HETATM   11  C1  UNL     1       2.816 -11.830   9.709  1.00  0.00     0.117 C 
HETATM   12  O1  UNL     1       3.642 -10.385  11.417  1.00  0.00    -0.274 OA
ATOM     13  H1  UNL     1       3.474  -9.537   8.336  1.00  0.00     0.163 HD
ENDBRANCH   1   9
BRANCH   3  14
HETATM   14  O2  UNL     1       7.044  -8.525  12.164  1.00  0.00    -0.179 OA
BRANCH  14  15
HETATM   15  C5  UNL     1       7.215  -9.669  12.990  1.00  0.00     0.387 C 
HETATM   16  O3  UNL     1       7.938  -9.549  14.005  1.00  0.00    -0.236 OA
HETATM   17  N3  UNL     1       6.587 -10.861  12.657  1.00  0.00    -0.301 N 
ATOM     18  H3  UNL     1       6.019 -10.867  11.810  1.00  0.00     0.171 HD
BRANCH  17  19
HETATM   19  C6  UNL     1       6.666 -12.050  13.381  1.00  0.00     0.036 A 
HETATM   20  C7  UNL     1       5.594 -12.352  14.226  1.00  0.00     0.029 A 
HETATM   21  C8  UNL     1       5.614 -13.495  14.977  1.00  0.00     0.002 A 
HETATM   22  C9  UNL     1       6.692 -14.345  14.900  1.00  0.00     0.000 A 
HETATM   23  C10 UNL     1       7.750 -14.059  14.074  1.00  0.00     0.002 A 
HETATM   24  C11 UNL     1       7.732 -12.891  13.304  1.00  0.00     0.029 A 
ENDBRANCH  17  19
ENDBRANCH  14  15
ENDBRANCH   3  14
BRANCH   8  25
HETATM   25  O7  UNL     1       4.626  -6.003   9.100  1.00  0.00    -0.390 OA
ATOM     26  H7  UNL     1       3.873  -5.446   8.943  1.00  0.00     0.210 HD
ENDBRANCH   8  25
BRANCH   6  27
HETATM   27  C13 UNL     1       7.701  -7.651   7.537  1.00  0.00     0.199 C 
BRANCH  27  28
HETATM   28  O5  UNL     1       7.561  -7.233   6.230  1.00  0.00    -0.398 OA
ATOM     29  H5  UNL     1       7.088  -7.871   5.710  1.00  0.00     0.209 HD
ENDBRANCH  27  28
ENDBRANCH   6  27
BRANCH   7  30
HETATM   30  O6  UNL     1       4.548  -8.621   6.684  1.00  0.00    -0.390 OA
ATOM     31  H6  UNL     1       3.673  -8.757   7.026  1.00  0.00     0.210 HD
ENDBRANCH   7  30
TORSDOF 8
ENDMDL
