MODEL 1
REMARK VINA RESULT: -7.048718163      0.000      0.000
REMARK  8 active torsions:
REMARK  status: ('A' for Active; 'I' for Inactive)
REMARK       I    between atoms: C2_2  and  N1_4 
REMARK    1  A    between atoms: N1_4  and  C3_6 
REMARK    2  A    between atoms: N2_8  and  O2_10 
REMARK    3  A    between atoms: O2_10  and  C5_11 
REMARK       I    between atoms: C5_11  and  N3_13 
REMARK    4  A    between atoms: N3_13  and  C6_15 
REMARK    5  A    between atoms: C12_22  and  C13_23 
REMARK    6  A    between atoms: C13_23  and  O5_24 
REMARK    7  A    between atoms: C14_26  and  O6_27 
REMARK    8  A    between atoms: C15_29  and  O7_30 
ROOT
HETATM    1  C3  UNL     1       3.156  -9.952  10.009  1.00  0.00     0.192 C 
HETATM    2  C4  UNL     1       3.886  -9.453  11.199  1.00  0.00     0.165 C 
HETATM    3  N2  UNL     1       5.032  -8.896  11.030  1.00  0.00    -0.236 N 
ATOM      4  H2  UNL     1       5.391  -8.821  10.079  1.00  0.00     0.197 HD
HETATM    5  O4  UNL     1       3.301  -9.612  12.419  1.00  0.00    -0.326 OA
HETATM    6  C12 UNL     1       2.147 -10.362  12.686  1.00  0.00     0.185 C 
HETATM    7  C14 UNL     1       1.714 -11.264  11.597  1.00  0.00     0.180 C 
HETATM    8  C15 UNL     1       2.573 -11.296  10.390  1.00  0.00     0.180 C 
ENDROOT
BRANCH   1   9
HETATM    9  N1  UNL     1       2.018  -9.090   9.689  1.00  0.00    -0.347 N 
HETATM   10  C2  UNL     1       1.619  -8.806   8.363  1.00  0.00     0.214 C 
HETATM   11  C1  UNL     1       0.475  -7.940   8.006  1.00  0.00     0.117 C 
HETATM   12  O1  UNL     1       2.313  -9.350   7.438  1.00  0.00    -0.274 OA
ATOM     13  H1  UNL     1       1.490  -8.675  10.456  1.00  0.00     0.163 HD
ENDBRANCH   1   9
BRANCH   3  14
HETATM   14  O2  UNL     1       5.796  -8.400  12.040  1.00  0.00    -0.179 OA
BRANCH  14  15
HETATM   15  C5  UNL     1       6.322  -9.341  12.965  1.00  0.00     0.387 C 
HETATM   16  O3  UNL     1       6.668  -8.917  14.091  1.00  0.00    -0.236 OA
HETATM   17  N3  UNL     1       6.433 -10.676  12.603  1.00  0.00    -0.301 N 
ATOM     18  H3  UNL     1       6.130 -10.931  11.663  1.00  0.00     0.171 HD
BRANCH  17  19
HETATM   19  C6  UNL     1       6.926 -11.699  13.414  1.00  0.00     0.036 A 
HETATM   20  C7  UNL     1       5.985 -12.503  14.062  1.00  0.00     0.029 A 
HETATM   21  C8  UNL     1       6.398 -13.515  14.885  1.00  0.00     0.002 A 
HETATM   22  C9  UNL     1       7.742 -13.737  15.074  1.00  0.00     0.000 A 
HETATM   23  C10 UNL     1       8.675 -12.954  14.442  1.00  0.00     0.002 A 
HETATM   24  C11 UNL     1       8.255 -11.919  13.599  1.00  0.00     0.029 A 
ENDBRANCH  17  19
ENDBRANCH  14  15
ENDBRANCH   3  14
BRANCH   8  25
HETATM   25  O7  UNL     1       3.621 -12.198  10.477  1.00  0.00    -0.390 OA
ATOM     26  H7  UNL     1       3.331 -13.014  10.088  1.00  0.00     0.210 HD
ENDBRANCH   8  25
BRANCH   6  27
HETATM   27  C13 UNL     1       2.438 -11.163  13.962  1.00  0.00     0.199 C 
BRANCH  27  28
HETATM   28  O5  UNL     1       1.335 -11.210  14.789  1.00  0.00    -0.398 OA
ATOM     29  H5  UNL     1       1.557 -11.561  15.643  1.00  0.00     0.209 HD
ENDBRANCH  27  28
ENDBRANCH   6  27
BRANCH   7  30
HETATM   30  O6  UNL     1       0.385 -10.924  11.254  1.00  0.00    -0.390 OA
ATOM     31  H6  UNL     1       0.035 -11.623  10.715  1.00  0.00     0.210 HD
ENDBRANCH   7  30
TORSDOF 8
ENDMDL
