MODEL 3
REMARK VINA RESULT: -6.593301584      2.022      4.099
REMARK  8 active torsions:
REMARK  status: ('A' for Active; 'I' for Inactive)
REMARK       I    between atoms: C2_2  and  N1_4 
REMARK    1  A    between atoms: N1_4  and  C3_6 
REMARK    2  A    between atoms: N2_8  and  O2_10 
REMARK    3  A    between atoms: O2_10  and  C5_11 
REMARK       I    between atoms: C5_11  and  N3_13 
REMARK    4  A    between atoms: N3_13  and  C6_15 
REMARK    5  A    between atoms: C12_22  and  C13_23 
REMARK    6  A    between atoms: C13_23  and  O5_24 
REMARK    7  A    between atoms: C14_26  and  O6_27 
REMARK    8  A    between atoms: C15_29  and  O7_30 
ROOT
HETATM    1  C3  UNL     1       3.155  -9.578   9.480  1.00  0.00     0.192 C 
HETATM    2  C4  UNL     1       4.339  -9.074  10.216  1.00  0.00     0.165 C 
HETATM    3  N2  UNL     1       4.350  -9.159  11.498  1.00  0.00    -0.236 N 
ATOM      4  H2  UNL     1       3.538  -9.572  11.956  1.00  0.00     0.197 HD
HETATM    5  O4  UNL     1       5.362  -8.542   9.490  1.00  0.00    -0.326 OA
HETATM    6  C12 UNL     1       5.337  -8.260   8.117  1.00  0.00     0.185 C 
HETATM    7  C14 UNL     1       3.996  -8.290   7.491  1.00  0.00     0.180 C 
HETATM    8  C15 UNL     1       2.855  -8.566   8.395  1.00  0.00     0.180 C 
ENDROOT
BRANCH   1   9
HETATM    9  N1  UNL     1       3.457 -10.834   8.794  1.00  0.00    -0.347 N 
HETATM   10  C2  UNL     1       3.627 -12.060   9.477  1.00  0.00     0.214 C 
HETATM   11  C1  UNL     1       3.932 -13.346   8.815  1.00  0.00     0.117 C 
HETATM   12  O1  UNL     1       3.502 -12.018  10.748  1.00  0.00    -0.274 OA
ATOM     13  H1  UNL     1       3.548 -10.825   7.778  1.00  0.00     0.163 HD
ENDBRANCH   1   9
BRANCH   3  14
HETATM   14  O2  UNL     1       5.375  -8.733  12.283  1.00  0.00    -0.179 OA
BRANCH  14  15
HETATM   15  C5  UNL     1       6.007  -9.713  13.097  1.00  0.00     0.387 C 
HETATM   16  O3  UNL     1       6.728  -9.309  14.036  1.00  0.00    -0.236 OA
HETATM   17  N3  UNL     1       5.808 -11.061  12.833  1.00  0.00    -0.301 N 
ATOM     18  H3  UNL     1       5.207 -11.298  12.044  1.00  0.00     0.171 HD
BRANCH  17  19
HETATM   19  C6  UNL     1       6.362 -12.119  13.553  1.00  0.00     0.036 A 
HETATM   20  C7  UNL     1       7.675 -12.482  13.240  1.00  0.00     0.029 A 
HETATM   21  C8  UNL     1       8.274 -13.521  13.897  1.00  0.00     0.002 A 
HETATM   22  C9  UNL     1       7.581 -14.209  14.866  1.00  0.00     0.000 A 
HETATM   23  C10 UNL     1       6.292 -13.861  15.182  1.00  0.00     0.002 A 
HETATM   24  C11 UNL     1       5.676 -12.798  14.512  1.00  0.00     0.029 A 
ENDBRANCH  17  19
ENDBRANCH  14  15
ENDBRANCH   3  14
BRANCH   8  25
HETATM   25  O7  UNL     1       2.346  -7.432   9.008  1.00  0.00    -0.390 OA
ATOM     26  H7  UNL     1       1.715  -7.717   9.659  1.00  0.00     0.210 HD
ENDBRANCH   8  25
BRANCH   6  27
HETATM   27  C13 UNL     1       5.977  -6.876   7.948  1.00  0.00     0.199 C 
BRANCH  27  28
HETATM   28  O5  UNL     1       5.123  -5.873   8.355  1.00  0.00    -0.398 OA
ATOM     29  H5  UNL     1       5.420  -5.022   8.056  1.00  0.00     0.209 HD
ENDBRANCH  27  28
ENDBRANCH   6  27
BRANCH   7  30
HETATM   30  O6  UNL     1       4.033  -9.229   6.434  1.00  0.00    -0.390 OA
ATOM     31  H6  UNL     1       4.601  -8.883   5.756  1.00  0.00     0.210 HD
ENDBRANCH   7  30
TORSDOF 8
ENDMDL
