MODEL 9
REMARK VINA RESULT: -6.116559005      3.425      4.446
REMARK  0 active torsions:
REMARK  status: ('A' for Active; 'I' for Inactive)
ROOT
HETATM    1  S1  UNL     1      25.945   2.790  18.677  1.00  0.00    -0.041 SA
HETATM    2  C1  UNL     1      24.990   4.104  18.641  1.00  0.00     0.177 A 
HETATM    3  N1  UNL     1      24.845   4.944  17.605  1.00  0.00    -0.330 N 
ATOM      4  H1  UNL     1      25.315   4.870  16.703  1.00  0.00     0.168 HD
HETATM    5  C2  UNL     1      23.958   5.918  17.968  1.00  0.00     0.081 A 
HETATM    6  C3  UNL     1      23.453   7.016  17.303  1.00  0.00     0.058 A 
HETATM    7 BR1  UNL     1      23.984   7.409  15.520  1.00  0.00    -0.047 Br
HETATM    8  C4  UNL     1      22.558   7.836  17.933  1.00  0.00     0.049 A 
HETATM    9 BR2  UNL     1      21.805   9.361  17.118  1.00  0.00    -0.048 Br
HETATM   10  C5  UNL     1      22.192   7.526  19.223  1.00  0.00     0.049 A 
HETATM   11 BR3  UNL     1      20.937   8.636  20.166  1.00  0.00    -0.048 Br
HETATM   12  C6  UNL     1      22.684   6.439  19.900  1.00  0.00     0.058 A 
HETATM   13 BR4  UNL     1      22.178   6.013  21.685  1.00  0.00    -0.047 Br
HETATM   14  C7  UNL     1      23.590   5.610  19.263  1.00  0.00     0.081 A 
HETATM   15  N2  UNL     1      24.227   4.493  19.674  1.00  0.00    -0.330 N 
ATOM     16  H2  UNL     1      24.144   4.038  20.583  1.00  0.00     0.168 HD
ENDROOT
TORSDOF 0
ENDMDL
