MODEL 18
REMARK VINA RESULT: -5.539740954      2.883      3.404
REMARK  0 active torsions:
REMARK  status: ('A' for Active; 'I' for Inactive)
ROOT
HETATM    1  S1  UNL     1      21.080   3.134  23.356  1.00  0.00    -0.041 SA
HETATM    2  C1  UNL     1      21.870   3.737  22.070  1.00  0.00     0.177 A 
HETATM    3  N1  UNL     1      21.783   4.995  21.611  1.00  0.00    -0.330 N 
ATOM      4  H1  UNL     1      21.209   5.738  22.008  1.00  0.00     0.168 HD
HETATM    5  C2  UNL     1      22.596   5.106  20.519  1.00  0.00     0.081 A 
HETATM    6  C3  UNL     1      22.884   6.157  19.672  1.00  0.00     0.058 A 
HETATM    7 BR1  UNL     1      22.082   7.863  19.923  1.00  0.00    -0.047 Br
HETATM    8  C4  UNL     1      23.758   5.972  18.637  1.00  0.00     0.049 A 
HETATM    9 BR2  UNL     1      24.223   7.338  17.422  1.00  0.00    -0.048 Br
HETATM   10  C5  UNL     1      24.323   4.727  18.481  1.00  0.00     0.049 A 
HETATM   11 BR3  UNL     1      25.560   4.399  17.047  1.00  0.00    -0.048 Br
HETATM   12  C6  UNL     1      24.048   3.671  19.312  1.00  0.00     0.058 A 
HETATM   13 BR4  UNL     1      24.830   1.949  19.094  1.00  0.00    -0.047 Br
HETATM   14  C7  UNL     1      23.164   3.857  20.359  1.00  0.00     0.081 A 
HETATM   15  N2  UNL     1      22.715   3.017  21.316  1.00  0.00    -0.330 N 
ATOM     16  H2  UNL     1      22.967   2.037  21.440  1.00  0.00     0.168 HD
ENDROOT
TORSDOF 0
ENDMDL
