MODEL 7
REMARK VINA RESULT: -6.258699895      2.842      4.232
REMARK  0 active torsions:
REMARK  status: ('A' for Active; 'I' for Inactive)
ROOT
HETATM    1  S1  UNL     1      25.082   3.362  20.232  1.00  0.00    -0.041 SA
HETATM    2  C1  UNL     1      24.137   4.659  19.979  1.00  0.00     0.177 A 
HETATM    3  N1  UNL     1      23.264   5.181  20.856  1.00  0.00    -0.330 N 
ATOM      4  H1  UNL     1      23.079   4.832  21.796  1.00  0.00     0.168 HD
HETATM    5  C2  UNL     1      22.667   6.261  20.270  1.00  0.00     0.081 A 
HETATM    6  C3  UNL     1      21.709   7.151  20.710  1.00  0.00     0.058 A 
HETATM    7 BR1  UNL     1      20.958   6.998  22.450  1.00  0.00    -0.047 Br
HETATM    8  C4  UNL     1      21.292   8.159  19.885  1.00  0.00     0.049 A 
HETATM    9 BR2  UNL     1      19.991   9.430  20.384  1.00  0.00    -0.048 Br
HETATM   10  C5  UNL     1      21.854   8.245  18.632  1.00  0.00     0.049 A 
HETATM   11 BR3  UNL     1      21.313   9.637  17.423  1.00  0.00    -0.048 Br
HETATM   12  C6  UNL     1      22.807   7.369  18.178  1.00  0.00     0.058 A 
HETATM   13 BR4  UNL     1      23.583   7.489  16.443  1.00  0.00    -0.047 Br
HETATM   14  C7  UNL     1      23.229   6.349  19.011  1.00  0.00     0.081 A 
HETATM   15  N2  UNL     1      24.133   5.363  18.836  1.00  0.00    -0.330 N 
ATOM     16  H2  UNL     1      24.698   5.187  18.005  1.00  0.00     0.168 HD
ENDROOT
TORSDOF 0
ENDMDL
