MODEL 12
REMARK VINA RESULT: -6.046788667      2.427      3.834
REMARK  0 active torsions:
REMARK  status: ('A' for Active; 'I' for Inactive)
ROOT
HETATM    1  S1  UNL     1      20.065  10.222  18.509  1.00  0.00    -0.041 SA
HETATM    2  C1  UNL     1      21.103   8.974  18.571  1.00  0.00     0.177 A 
HETATM    3  N1  UNL     1      21.300   8.164  19.623  1.00  0.00    -0.330 N 
ATOM      4  H1  UNL     1      20.825   8.226  20.523  1.00  0.00     0.168 HD
HETATM    5  C2  UNL     1      22.249   7.243  19.279  1.00  0.00     0.081 A 
HETATM    6  C3  UNL     1      22.824   6.194  19.966  1.00  0.00     0.058 A 
HETATM    7 BR1  UNL     1      22.318   5.803  21.757  1.00  0.00    -0.047 Br
HETATM    8  C4  UNL     1      23.771   5.422  19.353  1.00  0.00     0.049 A 
HETATM    9 BR2  UNL     1      24.620   3.964  20.197  1.00  0.00    -0.048 Br
HETATM   10  C5  UNL     1      24.116   5.728  18.056  1.00  0.00     0.049 A 
HETATM   11 BR3  UNL     1      25.441   4.683  17.135  1.00  0.00    -0.048 Br
HETATM   12  C6  UNL     1      23.556   6.767  17.358  1.00  0.00     0.058 A 
HETATM   13 BR4  UNL     1      24.036   7.190  15.565  1.00  0.00    -0.047 Br
HETATM   14  C7  UNL     1      22.598   7.549  17.978  1.00  0.00     0.081 A 
HETATM   15  N2  UNL     1      21.890   8.614  17.545  1.00  0.00    -0.330 N 
ATOM     16  H2  UNL     1      21.944   9.054  16.627  1.00  0.00     0.168 HD
ENDROOT
TORSDOF 0
ENDMDL
