MODEL 6
REMARK VINA RESULT: -6.315451047      2.814      3.960
REMARK  0 active torsions:
REMARK  status: ('A' for Active; 'I' for Inactive)
ROOT
HETATM    1  S1  UNL     1      25.030   3.369  20.423  1.00  0.00    -0.041 SA
HETATM    2  C1  UNL     1      24.104   4.665  20.103  1.00  0.00     0.177 A 
HETATM    3  N1  UNL     1      24.096   5.364  18.957  1.00  0.00    -0.330 N 
ATOM      4  H1  UNL     1      24.671   5.174  18.136  1.00  0.00     0.168 HD
HETATM    5  C2  UNL     1      23.185   6.374  19.081  1.00  0.00     0.081 A 
HETATM    6  C3  UNL     1      22.779   7.376  18.223  1.00  0.00     0.058 A 
HETATM    7 BR1  UNL     1      23.526   7.536  16.482  1.00  0.00    -0.047 Br
HETATM    8  C4  UNL     1      21.825   8.268  18.629  1.00  0.00     0.049 A 
HETATM    9 BR2  UNL     1      21.196   9.673  17.539  1.00  0.00    -0.048 Br
HETATM   10  C5  UNL     1      21.302   8.127  19.894  1.00  0.00     0.049 A 
HETATM   11 BR3  UNL     1      19.958   9.346  20.526  1.00  0.00    -0.048 Br
HETATM   12  C6  UNL     1      21.694   7.138  20.760  1.00  0.00     0.058 A 
HETATM   13 BR4  UNL     1      20.971   6.946  22.510  1.00  0.00    -0.047 Br
HETATM   14  C7  UNL     1      22.659   6.236  20.351  1.00  0.00     0.081 A 
HETATM   15  N2  UNL     1      23.227   5.183  20.976  1.00  0.00    -0.330 N 
ATOM     16  H2  UNL     1      23.029   4.849  21.919  1.00  0.00     0.168 HD
ENDROOT
TORSDOF 0
ENDMDL
