MODEL 15
REMARK VINA RESULT: -5.935939926      2.599      3.457
REMARK  0 active torsions:
REMARK  status: ('A' for Active; 'I' for Inactive)
ROOT
HETATM    1  S1  UNL     1      20.149  10.463  18.110  1.00  0.00    -0.041 SA
HETATM    2  C1  UNL     1      21.163   9.197  18.202  1.00  0.00     0.177 A 
HETATM    3  N1  UNL     1      21.966   8.759  17.220  1.00  0.00    -0.330 N 
ATOM      4  H1  UNL     1      22.046   9.162  16.287  1.00  0.00     0.168 HD
HETATM    5  C2  UNL     1      22.658   7.678  17.688  1.00  0.00     0.081 A 
HETATM    6  C3  UNL     1      23.602   6.853  17.111  1.00  0.00     0.058 A 
HETATM    7 BR1  UNL     1      24.174   7.124  15.318  1.00  0.00    -0.047 Br
HETATM    8  C4  UNL     1      24.135   5.824  17.838  1.00  0.00     0.049 A 
HETATM    9 BR2  UNL     1      25.431   4.638  17.150  1.00  0.00    -0.048 Br
HETATM   10  C5  UNL     1      23.702   5.653  19.132  1.00  0.00     0.049 A 
HETATM   11 BR3  UNL     1      24.411   4.227  20.209  1.00  0.00    -0.048 Br
HETATM   12  C6  UNL     1      22.765   6.462  19.721  1.00  0.00     0.058 A 
HETATM   13 BR4  UNL     1      22.166   6.223  21.513  1.00  0.00    -0.047 Br
HETATM   14  C7  UNL     1      22.225   7.502  18.987  1.00  0.00     0.081 A 
HETATM   15  N2  UNL     1      21.305   8.440  19.300  1.00  0.00    -0.330 N 
ATOM     16  H2  UNL     1      20.818   8.550  20.190  1.00  0.00     0.168 HD
ENDROOT
TORSDOF 0
ENDMDL
