MODEL 19
REMARK VINA RESULT: -6.371317397      2.522      3.778
REMARK  0 active torsions:
REMARK  status: ('A' for Active; 'I' for Inactive)
ROOT
HETATM    1 BR1  UNL     1     -10.824   7.649   7.326  1.00  0.00    -0.048 Br
HETATM    2  C1  UNL     1     -11.136   6.295   6.013  1.00  0.00     0.049 A 
HETATM    3  C2  UNL     1     -10.939   4.970   6.299  1.00  0.00     0.049 A 
HETATM    4 BR2  UNL     1     -10.349   4.408   8.004  1.00  0.00    -0.048 Br
HETATM    5  C3  UNL     1     -11.181   4.039   5.308  1.00  0.00     0.058 A 
HETATM    6 BR3  UNL     1     -10.906   2.174   5.702  1.00  0.00    -0.047 Br
HETATM    7  C4  UNL     1     -11.615   4.438   4.052  1.00  0.00     0.080 A 
HETATM    8  N1  UNL     1     -11.914   3.742   2.943  1.00  0.00    -0.349 N 
ATOM      9  H1  UNL     1     -11.864   2.728   2.841  1.00  0.00     0.166 HD
HETATM   10  C5  UNL     1     -12.288   4.611   1.991  1.00  0.00     0.181 A 
HETATM   11  N2  UNL     1     -12.221   5.844   2.507  1.00  0.00    -0.349 N 
ATOM     12  H2  UNL     1     -12.449   6.702   2.006  1.00  0.00     0.166 HD
HETATM   13  C6  UNL     1     -11.811   5.783   3.775  1.00  0.00     0.080 A 
HETATM   14  C7  UNL     1     -11.565   6.707   4.774  1.00  0.00     0.058 A 
HETATM   15 BR4  UNL     1     -11.839   8.545   4.375  1.00  0.00    -0.047 Br
ENDROOT
TORSDOF 0
ENDMDL
