MODEL 20
REMARK VINA RESULT: -6.371212525      2.487      4.993
REMARK  0 active torsions:
REMARK  status: ('A' for Active; 'I' for Inactive)
ROOT
HETATM    1 BR1  UNL     1     -10.228   4.434   8.091  1.00  0.00    -0.048 Br
HETATM    2  C1  UNL     1     -10.871   4.955   6.369  1.00  0.00     0.049 A 
HETATM    3  C2  UNL     1     -11.108   6.270   6.067  1.00  0.00     0.049 A 
HETATM    4 BR2  UNL     1     -10.813   7.639   7.336  1.00  0.00    -0.048 Br
HETATM    5  C3  UNL     1     -11.572   6.583   4.805  1.00  0.00     0.058 A 
HETATM    6 BR3  UNL     1     -11.907   8.430   4.373  1.00  0.00    -0.047 Br
HETATM    7  C4  UNL     1     -11.793   5.588   3.864  1.00  0.00     0.080 A 
HETATM    8  N1  UNL     1     -12.232   5.633   2.595  1.00  0.00    -0.349 N 
ATOM      9  H1  UNL     1     -12.494   6.475   2.083  1.00  0.00     0.166 HD
HETATM   10  C5  UNL     1     -12.268   4.378   2.119  1.00  0.00     0.181 A 
HETATM   11  N2  UNL     1     -11.852   3.556   3.089  1.00  0.00    -0.349 N 
ATOM     12  H2  UNL     1     -11.778   2.542   3.006  1.00  0.00     0.166 HD
HETATM   13  C6  UNL     1     -11.549   4.259   4.181  1.00  0.00     0.080 A 
HETATM   14  C7  UNL     1     -11.085   3.957   5.448  1.00  0.00     0.058 A 
HETATM   15 BR4  UNL     1     -10.757   2.131   5.864  1.00  0.00    -0.047 Br
ENDROOT
TORSDOF 0
ENDMDL
