MODEL 3
REMARK VINA RESULT: -6.800467171      3.223      5.471
REMARK  11 active torsions:
REMARK  status: ('A' for Active; 'I' for Inactive)
REMARK    1  A    between atoms: O1_1  and  C1_3 
REMARK    2  A    between atoms: C1_3  and  C2_4 
REMARK    3  A    between atoms: C3_6  and  O3_7 
REMARK    4  A    between atoms: O3_7  and  C4_8 
REMARK    5  A    between atoms: C5_9  and  O4_10 
REMARK    6  A    between atoms: C6_12  and  O5_13 
REMARK    7  A    between atoms: C10_21  and  C11_22 
REMARK    8  A    between atoms: C11_22  and  O6_23 
REMARK    9  A    between atoms: C12_25  and  O7_26 
REMARK   10  A    between atoms: C13_28  and  O8_29 
REMARK   11  A    between atoms: C14_31  and  O9_32 
ROOT
HETATM    1  C4  UNL     1      28.475  60.943 -27.032  1.00  0.00     0.181 C 
HETATM    2  C5  UNL     1      28.645  62.272 -27.664  1.00  0.00     0.185 C 
HETATM    3  C6  UNL     1      29.715  63.138 -27.094  1.00  0.00     0.217 C 
HETATM    4  C7  UNL     1      29.705  63.104 -25.615  1.00  0.00     0.115 A 
HETATM    5  N1  UNL     1      29.931  64.047 -24.696  1.00  0.00    -0.352 N 
ATOM      6  H1  UNL     1      30.166  65.018 -24.898  1.00  0.00     0.166 HD
HETATM    7  C8  UNL     1      29.804  63.525 -23.467  1.00  0.00     0.106 A 
HETATM    8  C9  UNL     1      29.484  62.199 -23.656  1.00  0.00     0.110 A 
HETATM    9  N2  UNL     1      29.426  61.947 -24.980  1.00  0.00    -0.334 N 
HETATM   10  C10 UNL     1      29.136  60.732 -25.718  1.00  0.00     0.146 C 
ENDROOT
BRANCH   1  11
HETATM   11  O3  UNL     1      27.087  60.708 -26.925  1.00  0.00    -0.348 OA
BRANCH  11  12
HETATM   12  C3  UNL     1      26.751  59.530 -27.576  1.00  0.00     0.292 C 
HETATM   13  O2  UNL     1      25.506  59.759 -28.188  1.00  0.00    -0.348 OA
HETATM   14  C2  UNL     1      25.232  58.590 -28.900  1.00  0.00     0.179 C 
HETATM   15  C14 UNL     1      24.667  57.603 -27.910  1.00  0.00     0.180 C 
HETATM   16  C13 UNL     1      25.454  57.577 -26.659  1.00  0.00     0.183 C 
HETATM   17  C12 UNL     1      26.720  58.351 -26.657  1.00  0.00     0.204 C 
BRANCH  14  18
HETATM   18  C1  UNL     1      24.264  58.922 -30.001  1.00  0.00     0.198 C 
BRANCH  18  19
HETATM   19  O1  UNL     1      23.796  57.822 -30.671  1.00  0.00    -0.398 OA
ATOM     20  H1  UNL     1      24.219  57.011 -30.415  1.00  0.00     0.209 HD
ENDBRANCH  18  19
ENDBRANCH  14  18
BRANCH  15  21
HETATM   21  O9  UNL     1      24.495  56.355 -28.510  1.00  0.00    -0.390 OA
ATOM     22  H9  UNL     1      23.648  55.990 -28.281  1.00  0.00     0.210 HD
ENDBRANCH  15  21
BRANCH  16  23
HETATM   23  O8  UNL     1      24.684  58.000 -25.565  1.00  0.00    -0.390 OA
ATOM     24  H8  UNL     1      23.904  57.459 -25.528  1.00  0.00     0.210 HD
ENDBRANCH  16  23
BRANCH  17  25
HETATM   25  O7  UNL     1      27.788  57.507 -26.965  1.00  0.00    -0.388 OA
ATOM     26  H7  UNL     1      27.803  57.358 -27.903  1.00  0.00     0.210 HD
ENDBRANCH  17  25
ENDBRANCH  11  12
ENDBRANCH   1  11
BRANCH   2  27
HETATM   27  O4  UNL     1      28.919  62.139 -29.047  1.00  0.00    -0.390 OA
ATOM     28  H4  UNL     1      28.163  62.387 -29.565  1.00  0.00     0.210 HD
ENDBRANCH   2  27
BRANCH  10  29
HETATM   29  C11 UNL     1      30.371  59.843 -25.851  1.00  0.00     0.192 C 
BRANCH  29  30
HETATM   30  O6  UNL     1      30.238  58.634 -25.219  1.00  0.00    -0.399 OA
ATOM     31  H6  UNL     1      30.618  57.912 -25.705  1.00  0.00     0.209 HD
ENDBRANCH  29  30
ENDBRANCH  10  29
BRANCH   3  32
HETATM   32  O5  UNL     1      29.457  64.454 -27.547  1.00  0.00    -0.385 OA
ATOM     33  H5  UNL     1      30.292  64.821 -27.811  1.00  0.00     0.210 HD
ENDBRANCH   3  32
TORSDOF 11
ENDMDL
