MODEL 2
REMARK VINA RESULT: -6.981977697      5.885      8.734
REMARK  11 active torsions:
REMARK  status: ('A' for Active; 'I' for Inactive)
REMARK    1  A    between atoms: O1_1  and  C1_3 
REMARK    2  A    between atoms: C1_3  and  C2_4 
REMARK    3  A    between atoms: C3_6  and  O3_7 
REMARK    4  A    between atoms: O3_7  and  C4_8 
REMARK    5  A    between atoms: C5_9  and  O4_10 
REMARK    6  A    between atoms: C6_12  and  O5_13 
REMARK    7  A    between atoms: C10_21  and  C11_22 
REMARK    8  A    between atoms: C11_22  and  O6_23 
REMARK    9  A    between atoms: C12_25  and  O7_26 
REMARK   10  A    between atoms: C13_28  and  O8_29 
REMARK   11  A    between atoms: C14_31  and  O9_32 
ROOT
HETATM    1  C4  UNL     1      25.066  60.872 -32.308  1.00  0.00     0.181 C 
HETATM    2  C5  UNL     1      24.452  60.171 -33.461  1.00  0.00     0.185 C 
HETATM    3  C6  UNL     1      24.323  60.962 -34.716  1.00  0.00     0.217 C 
HETATM    4  C7  UNL     1      23.843  62.334 -34.442  1.00  0.00     0.115 A 
HETATM    5  N1  UNL     1      23.013  63.143 -35.107  1.00  0.00    -0.352 N 
ATOM      6  H1  UNL     1      22.546  62.910 -35.983  1.00  0.00     0.166 HD
HETATM    7  C8  UNL     1      22.885  64.306 -34.451  1.00  0.00     0.106 A 
HETATM    8  C9  UNL     1      23.680  64.192 -33.332  1.00  0.00     0.110 A 
HETATM    9  N2  UNL     1      24.267  62.977 -33.334  1.00  0.00    -0.334 N 
HETATM   10  C10 UNL     1      25.186  62.349 -32.404  1.00  0.00     0.146 C 
ENDROOT
BRANCH   1  11
HETATM   11  O3  UNL     1      24.325  60.514 -31.161  1.00  0.00    -0.348 OA
BRANCH  11  12
HETATM   12  C3  UNL     1      25.142  59.861 -30.249  1.00  0.00     0.292 C 
HETATM   13  O2  UNL     1      24.286  59.150 -29.391  1.00  0.00    -0.348 OA
HETATM   14  C2  UNL     1      25.134  58.441 -28.539  1.00  0.00     0.179 C 
HETATM   15  C14 UNL     1      25.566  59.403 -27.460  1.00  0.00     0.180 C 
HETATM   16  C13 UNL     1      25.958  60.712 -28.025  1.00  0.00     0.183 C 
HETATM   17  C12 UNL     1      26.038  60.798 -29.504  1.00  0.00     0.204 C 
BRANCH  14  18
HETATM   18  C1  UNL     1      24.380  57.262 -27.992  1.00  0.00     0.198 C 
BRANCH  18  19
HETATM   19  O1  UNL     1      24.366  57.205 -26.623  1.00  0.00    -0.398 OA
ATOM     20  H1  UNL     1      24.376  56.320 -26.278  1.00  0.00     0.209 HD
ENDBRANCH  18  19
ENDBRANCH  14  18
BRANCH  15  21
HETATM   21  O9  UNL     1      26.530  58.816 -26.641  1.00  0.00    -0.390 OA
ATOM     22  H9  UNL     1      26.439  59.124 -25.747  1.00  0.00     0.210 HD
ENDBRANCH  15  21
BRANCH  16  23
HETATM   23  O8  UNL     1      25.108  61.734 -27.575  1.00  0.00    -0.390 OA
ATOM     24  H8  UNL     1      24.234  61.555 -27.902  1.00  0.00     0.210 HD
ENDBRANCH  16  23
BRANCH  17  25
HETATM   25  O7  UNL     1      27.355  60.590 -29.917  1.00  0.00    -0.388 OA
ATOM     26  H7  UNL     1      27.920  61.207 -29.466  1.00  0.00     0.210 HD
ENDBRANCH  17  25
ENDBRANCH  11  12
ENDBRANCH   1  11
BRANCH   2  27
HETATM   27  O4  UNL     1      25.183  59.003 -33.785  1.00  0.00    -0.390 OA
ATOM     28  H4  UNL     1      25.031  58.751 -34.688  1.00  0.00     0.210 HD
ENDBRANCH   2  27
BRANCH  10  29
HETATM   29  C11 UNL     1      26.630  62.776 -32.662  1.00  0.00     0.192 C 
BRANCH  29  30
HETATM   30  O6  UNL     1      27.521  61.737 -32.605  1.00  0.00    -0.399 OA
ATOM     31  H6  UNL     1      28.351  61.974 -32.208  1.00  0.00     0.209 HD
ENDBRANCH  29  30
ENDBRANCH  10  29
BRANCH   3  32
HETATM   32  O5  UNL     1      23.389  60.280 -35.532  1.00  0.00    -0.385 OA
ATOM     33  H5  UNL     1      23.073  60.909 -36.170  1.00  0.00     0.210 HD
ENDBRANCH   3  32
TORSDOF 11
ENDMDL
