MODEL 1
REMARK VINA RESULT: -7.345264444      0.000      0.000
REMARK  11 active torsions:
REMARK  status: ('A' for Active; 'I' for Inactive)
REMARK    1  A    between atoms: O1_1  and  C1_3 
REMARK    2  A    between atoms: C1_3  and  C2_4 
REMARK    3  A    between atoms: C3_6  and  O3_7 
REMARK    4  A    between atoms: O3_7  and  C4_8 
REMARK    5  A    between atoms: C5_9  and  O4_10 
REMARK    6  A    between atoms: C6_12  and  O5_13 
REMARK    7  A    between atoms: C10_21  and  C11_22 
REMARK    8  A    between atoms: C11_22  and  O6_23 
REMARK    9  A    between atoms: C12_25  and  O7_26 
REMARK   10  A    between atoms: C13_28  and  O8_29 
REMARK   11  A    between atoms: C14_31  and  O9_32 
ROOT
HETATM    1  C4  UNL     1      30.424  58.062 -26.610  1.00  0.00     0.181 C 
HETATM    2  C5  UNL     1      30.317  56.675 -27.122  1.00  0.00     0.185 C 
HETATM    3  C6  UNL     1      31.517  55.813 -26.937  1.00  0.00     0.217 C 
HETATM    4  C7  UNL     1      32.762  56.545 -27.259  1.00  0.00     0.115 A 
HETATM    5  N1  UNL     1      33.898  56.164 -27.850  1.00  0.00    -0.352 N 
ATOM      6  H1  UNL     1      34.091  55.225 -28.198  1.00  0.00     0.166 HD
HETATM    7  C8  UNL     1      34.747  57.200 -27.918  1.00  0.00     0.106 A 
HETATM    8  C9  UNL     1      34.088  58.261 -27.337  1.00  0.00     0.110 A 
HETATM    9  N2  UNL     1      32.868  57.850 -26.933  1.00  0.00    -0.334 N 
HETATM   10  C10 UNL     1      31.784  58.552 -26.271  1.00  0.00     0.146 C 
ENDROOT
BRANCH   1  11
HETATM   11  O3  UNL     1      29.823  58.907 -27.569  1.00  0.00    -0.348 OA
BRANCH  11  12
HETATM   12  C3  UNL     1      28.610  59.382 -27.093  1.00  0.00     0.292 C 
HETATM   13  O2  UNL     1      27.657  58.388 -27.379  1.00  0.00    -0.348 OA
HETATM   14  C2  UNL     1      26.468  58.856 -26.820  1.00  0.00     0.179 C 
HETATM   15  C14 UNL     1      25.879  59.833 -27.806  1.00  0.00     0.180 C 
HETATM   16  C13 UNL     1      26.904  60.763 -28.326  1.00  0.00     0.183 C 
HETATM   17  C12 UNL     1      28.238  60.706 -27.680  1.00  0.00     0.204 C 
BRANCH  14  18
HETATM   18  C1  UNL     1      25.568  57.679 -26.568  1.00  0.00     0.198 C 
BRANCH  18  19
HETATM   19  O1  UNL     1      25.936  56.927 -25.482  1.00  0.00    -0.398 OA
ATOM     20  H1  UNL     1      26.022  56.001 -25.671  1.00  0.00     0.209 HD
ENDBRANCH  18  19
ENDBRANCH  14  18
BRANCH  15  21
HETATM   21  O9  UNL     1      24.756  60.457 -27.264  1.00  0.00    -0.390 OA
ATOM     22  H9  UNL     1      24.750  61.381 -27.484  1.00  0.00     0.210 HD
ENDBRANCH  15  21
BRANCH  16  23
HETATM   23  O8  UNL     1      27.083  60.601 -29.709  1.00  0.00    -0.390 OA
ATOM     24  H8  UNL     1      26.226  60.608 -30.119  1.00  0.00     0.210 HD
ENDBRANCH  16  23
BRANCH  17  25
HETATM   25  O7  UNL     1      28.322  61.683 -26.686  1.00  0.00    -0.388 OA
ATOM     26  H7  UNL     1      27.849  62.455 -26.972  1.00  0.00     0.210 HD
ENDBRANCH  17  25
ENDBRANCH  11  12
ENDBRANCH   1  11
BRANCH   2  27
HETATM   27  O4  UNL     1      29.229  56.000 -26.519  1.00  0.00    -0.390 OA
ATOM     28  H4  UNL     1      28.519  55.883 -27.138  1.00  0.00     0.210 HD
ENDBRANCH   2  27
BRANCH  10  29
HETATM   29  C11 UNL     1      31.994  58.618 -24.760  1.00  0.00     0.192 C 
BRANCH  29  30
HETATM   30  O6  UNL     1      31.220  57.725 -24.066  1.00  0.00    -0.399 OA
ATOM     31  H6  UNL     1      31.685  57.298 -23.356  1.00  0.00     0.209 HD
ENDBRANCH  29  30
ENDBRANCH  10  29
BRANCH   3  32
HETATM   32  O5  UNL     1      31.366  54.712 -27.814  1.00  0.00    -0.385 OA
ATOM     33  H5  UNL     1      30.793  54.093 -27.377  1.00  0.00     0.210 HD
ENDBRANCH   3  32
TORSDOF 11
ENDMDL
