MODEL 13
REMARK VINA RESULT: -7.270342501      1.124      1.705
REMARK  8 active torsions:
REMARK  status: ('A' for Active; 'I' for Inactive)
REMARK    1  A    between atoms: N1_2  and  C3_4 
REMARK    2  A    between atoms: C6_7  and  C7_8 
REMARK       I    between atoms: C7_8  and  N2_10 
REMARK    3  A    between atoms: N2_10  and  C8_12 
REMARK    4  A    between atoms: C8_12  and  C9_13 
REMARK    5  A    between atoms: C10_17  and  C11_18 
REMARK    6  A    between atoms: C11_18  and  O2_19 
REMARK    7  A    between atoms: C12_21  and  O3_22 
REMARK    8  A    between atoms: C13_24  and  O4_25 
ROOT
HETATM    1  C9  UNL     1      24.471  58.363 -30.097  1.00  0.00     0.256 C 
HETATM    2  N3  UNL     1      25.258  57.327 -29.546  1.00  0.00    -0.055 N 
ATOM      3  H31 UNL     1      26.106  57.104 -30.066  1.00  0.00     0.278 HD
ATOM      4  H32 UNL     1      24.854  56.392 -29.618  1.00  0.00     0.278 HD
HETATM    5  C10 UNL     1      25.479  57.816 -28.150  1.00  0.00     0.241 C 
HETATM    6  C12 UNL     1      25.394  59.303 -28.206  1.00  0.00     0.182 C 
HETATM    7  C13 UNL     1      25.329  59.565 -29.718  1.00  0.00     0.184 C 
ENDROOT
BRANCH   1   8
HETATM    8  C8  UNL     1      23.957  58.330 -31.450  1.00  0.00     0.099 C 
BRANCH   8   9
HETATM    9  N2  UNL     1      24.502  57.495 -32.446  1.00  0.00    -0.334 N 
HETATM   10  C7  UNL     1      23.840  56.417 -33.052  1.00  0.00     0.255 C 
HETATM   11  O1  UNL     1      22.652  56.173 -32.700  1.00  0.00    -0.267 OA
ATOM     12  H2  UNL     1      25.456  57.689 -32.750  1.00  0.00     0.168 HD
BRANCH  10  13
HETATM   13  C6  UNL     1      24.469  55.554 -34.087  1.00  0.00     0.032 A 
HETATM   14  C5  UNL     1      25.404  56.011 -34.976  1.00  0.00     0.019 A 
HETATM   15  C4  UNL     1      25.958  55.146 -35.925  1.00  0.00     0.030 A 
HETATM   16  C3  UNL     1      25.605  53.816 -36.020  1.00  0.00     0.029 A 
HETATM   17  C15 UNL     1      24.662  53.367 -35.118  1.00  0.00     0.030 A 
HETATM   18  C14 UNL     1      24.117  54.223 -34.182  1.00  0.00     0.019 A 
BRANCH  16  19
HETATM   19  N1  UNL     1      26.185  52.958 -36.997  1.00  0.00    -0.390 N 
HETATM   20  C1  UNL     1      27.276  53.396 -37.839  1.00  0.00     0.149 C 
HETATM   21  C2  UNL     1      25.692  51.610 -37.173  1.00  0.00     0.149 C 
ENDBRANCH  16  19
ENDBRANCH  10  13
ENDBRANCH   8   9
ENDBRANCH   1   8
BRANCH   7  22
HETATM   22  O4  UNL     1      24.749  60.762 -30.019  1.00  0.00    -0.390 OA
ATOM     23  H4  UNL     1      25.140  61.497 -29.561  1.00  0.00     0.210 HD
ENDBRANCH   7  22
BRANCH   5  24
HETATM   24  C11 UNL     1      24.447  57.154 -27.301  1.00  0.00     0.199 C 
BRANCH  24  25
HETATM   25  O2  UNL     1      24.487  57.793 -26.040  1.00  0.00    -0.399 OA
ATOM     26  H2  UNL     1      25.352  57.634 -25.682  1.00  0.00     0.209 HD
ENDBRANCH  24  25
ENDBRANCH   5  24
BRANCH   6  27
HETATM   27  O3  UNL     1      26.471  59.958 -27.634  1.00  0.00    -0.391 OA
ATOM     28  H3  UNL     1      26.494  59.919 -26.684  1.00  0.00     0.210 HD
ENDBRANCH   6  27
TORSDOF 8
ENDMDL
