MODEL 6
REMARK VINA RESULT: -7.644492723      1.310      1.717
REMARK  8 active torsions:
REMARK  status: ('A' for Active; 'I' for Inactive)
REMARK    1  A    between atoms: N1_2  and  C3_4 
REMARK    2  A    between atoms: C6_7  and  C7_8 
REMARK       I    between atoms: C7_8  and  N2_10 
REMARK    3  A    between atoms: N2_10  and  C8_12 
REMARK    4  A    between atoms: C8_12  and  C9_13 
REMARK    5  A    between atoms: C10_17  and  C11_18 
REMARK    6  A    between atoms: C11_18  and  O2_19 
REMARK    7  A    between atoms: C12_21  and  O3_22 
REMARK    8  A    between atoms: C13_24  and  O4_25 
ROOT
HETATM    1  C9  UNL     1      24.643  58.451 -29.026  1.00  0.00     0.256 C 
HETATM    2  N3  UNL     1      25.191  57.237 -28.551  1.00  0.00    -0.055 N 
ATOM      3  H31 UNL     1      25.859  56.789 -29.177  1.00  0.00     0.278 HD
ATOM      4  H32 UNL     1      24.542  56.451 -28.525  1.00  0.00     0.278 HD
HETATM    5  C10 UNL     1      25.743  57.647 -27.222  1.00  0.00     0.241 C 
HETATM    6  C12 UNL     1      26.060  59.100 -27.326  1.00  0.00     0.182 C 
HETATM    7  C13 UNL     1      25.843  59.369 -28.823  1.00  0.00     0.184 C 
ENDROOT
BRANCH   1   8
HETATM    8  C8  UNL     1      23.944  58.561 -30.288  1.00  0.00     0.099 C 
BRANCH   8   9
HETATM    9  N2  UNL     1      24.239  57.734 -31.391  1.00  0.00    -0.334 N 
HETATM   10  C7  UNL     1      25.195  58.010 -32.379  1.00  0.00     0.255 C 
HETATM   11  O1  UNL     1      25.866  59.076 -32.278  1.00  0.00    -0.267 OA
ATOM     12  H2  UNL     1      23.715  56.863 -31.477  1.00  0.00     0.168 HD
BRANCH  10  13
HETATM   13  C6  UNL     1      25.454  57.111 -33.535  1.00  0.00     0.032 A 
HETATM   14  C5  UNL     1      25.357  57.518 -34.838  1.00  0.00     0.019 A 
HETATM   15  C4  UNL     1      25.614  56.621 -35.879  1.00  0.00     0.030 A 
HETATM   16  C3  UNL     1      25.971  55.307 -35.662  1.00  0.00     0.029 A 
HETATM   17  C15 UNL     1      26.065  54.908 -34.344  1.00  0.00     0.030 A 
HETATM   18  C14 UNL     1      25.811  55.795 -33.318  1.00  0.00     0.019 A 
BRANCH  16  19
HETATM   19  N1  UNL     1      26.226  54.415 -36.742  1.00  0.00    -0.390 N 
HETATM   20  C1  UNL     1      26.787  54.878 -37.991  1.00  0.00     0.149 C 
HETATM   21  C2  UNL     1      25.928  53.005 -36.614  1.00  0.00     0.149 C 
ENDBRANCH  16  19
ENDBRANCH  10  13
ENDBRANCH   8   9
ENDBRANCH   1   8
BRANCH   7  22
HETATM   22  O4  UNL     1      25.574  60.680 -29.087  1.00  0.00    -0.390 OA
ATOM     23  H4  UNL     1      25.994  61.001 -29.875  1.00  0.00     0.210 HD
ENDBRANCH   7  22
BRANCH   5  24
HETATM   24  C11 UNL     1      24.708  57.295 -26.208  1.00  0.00     0.199 C 
BRANCH  24  25
HETATM   25  O2  UNL     1      23.980  56.202 -26.733  1.00  0.00    -0.399 OA
ATOM     26  H2  UNL     1      23.072  56.477 -26.783  1.00  0.00     0.209 HD
ENDBRANCH  24  25
ENDBRANCH   5  24
BRANCH   6  27
HETATM   27  O3  UNL     1      27.347  59.431 -26.943  1.00  0.00    -0.391 OA
ATOM     28  H3  UNL     1      27.587  60.334 -27.116  1.00  0.00     0.210 HD
ENDBRANCH   6  27
TORSDOF 8
ENDMDL
