MODEL 19
REMARK VINA RESULT: -7.121562595      4.702     10.227
REMARK  8 active torsions:
REMARK  status: ('A' for Active; 'I' for Inactive)
REMARK    1  A    between atoms: N1_2  and  C3_4 
REMARK    2  A    between atoms: C6_7  and  C7_8 
REMARK       I    between atoms: C7_8  and  N2_10 
REMARK    3  A    between atoms: N2_10  and  C8_12 
REMARK    4  A    between atoms: C8_12  and  C9_13 
REMARK    5  A    between atoms: C10_17  and  C11_18 
REMARK    6  A    between atoms: C11_18  and  O2_19 
REMARK    7  A    between atoms: C12_21  and  O3_22 
REMARK    8  A    between atoms: C13_24  and  O4_25 
ROOT
HETATM    1  C9  UNL     1      25.636  60.258 -30.055  1.00  0.00     0.256 C 
HETATM    2  N3  UNL     1      25.818  59.058 -30.780  1.00  0.00    -0.055 N 
ATOM      3  H31 UNL     1      26.677  58.551 -30.568  1.00  0.00     0.278 HD
ATOM      4  H32 UNL     1      26.022  59.179 -31.772  1.00  0.00     0.278 HD
HETATM    5  C10 UNL     1      24.554  58.318 -30.477  1.00  0.00     0.241 C 
HETATM    6  C12 UNL     1      24.083  58.812 -29.152  1.00  0.00     0.182 C 
HETATM    7  C13 UNL     1      25.266  59.680 -28.694  1.00  0.00     0.184 C 
ENDROOT
BRANCH   1   8
HETATM    8  C8  UNL     1      26.597  61.340 -30.064  1.00  0.00     0.099 C 
BRANCH   8   9
HETATM    9  N2  UNL     1      27.090  61.924 -28.880  1.00  0.00    -0.334 N 
HETATM   10  C7  UNL     1      28.341  61.659 -28.304  1.00  0.00     0.255 C 
HETATM   11  O1  UNL     1      29.107  60.845 -28.892  1.00  0.00    -0.267 OA
ATOM     12  H2  UNL     1      26.487  62.596 -28.403  1.00  0.00     0.168 HD
BRANCH  10  13
HETATM   13  C6  UNL     1      28.805  62.291 -27.040  1.00  0.00     0.032 A 
HETATM   14  C5  UNL     1      29.376  61.586 -26.016  1.00  0.00     0.019 A 
HETATM   15  C4  UNL     1      29.791  62.241 -24.853  1.00  0.00     0.030 A 
HETATM   16  C3  UNL     1      29.653  63.601 -24.672  1.00  0.00     0.029 A 
HETATM   17  C15 UNL     1      29.076  64.302 -25.711  1.00  0.00     0.030 A 
HETATM   18  C14 UNL     1      28.667  63.652 -26.858  1.00  0.00     0.019 A 
BRANCH  16  19
HETATM   19  N1  UNL     1      30.084  64.242 -23.476  1.00  0.00    -0.390 N 
HETATM   20  C1  UNL     1      31.202  63.741 -22.708  1.00  0.00     0.149 C 
HETATM   21  C2  UNL     1      29.408  65.427 -22.995  1.00  0.00     0.149 C 
ENDBRANCH  16  19
ENDBRANCH  10  13
ENDBRANCH   8   9
ENDBRANCH   1   8
BRANCH   7  22
HETATM   22  O4  UNL     1      24.900  60.627 -27.783  1.00  0.00    -0.390 OA
ATOM     23  H4  UNL     1      25.399  60.589 -26.976  1.00  0.00     0.210 HD
ENDBRANCH   7  22
BRANCH   5  24
HETATM   24  C11 UNL     1      23.628  58.581 -31.616  1.00  0.00     0.199 C 
BRANCH  24  25
HETATM   25  O2  UNL     1      22.961  57.363 -31.887  1.00  0.00    -0.399 OA
ATOM     26  H2  UNL     1      22.082  57.589 -32.164  1.00  0.00     0.209 HD
ENDBRANCH  24  25
ENDBRANCH   5  24
BRANCH   6  27
HETATM   27  O3  UNL     1      23.815  57.813 -28.233  1.00  0.00    -0.391 OA
ATOM     28  H3  UNL     1      24.536  57.616 -27.646  1.00  0.00     0.210 HD
ENDBRANCH   6  27
TORSDOF 8
ENDMDL
