MODEL 2
REMARK VINA RESULT: -7.777077177      0.060      1.248
REMARK  8 active torsions:
REMARK  status: ('A' for Active; 'I' for Inactive)
REMARK    1  A    between atoms: N1_2  and  C3_4 
REMARK    2  A    between atoms: C6_7  and  C7_8 
REMARK       I    between atoms: C7_8  and  N2_10 
REMARK    3  A    between atoms: N2_10  and  C8_12 
REMARK    4  A    between atoms: C8_12  and  C9_13 
REMARK    5  A    between atoms: C10_17  and  C11_18 
REMARK    6  A    between atoms: C11_18  and  O2_19 
REMARK    7  A    between atoms: C12_21  and  O3_22 
REMARK    8  A    between atoms: C13_24  and  O4_25 
ROOT
HETATM    1  C9  UNL     1      25.084  58.193 -29.046  1.00  0.00     0.256 C 
HETATM    2  N3  UNL     1      25.406  56.985 -28.385  1.00  0.00    -0.055 N 
ATOM      3  H31 UNL     1      26.064  56.384 -28.880  1.00  0.00     0.278 HD
ATOM      4  H32 UNL     1      24.654  56.296 -28.353  1.00  0.00     0.278 HD
HETATM    5  C10 UNL     1      25.873  57.477 -27.052  1.00  0.00     0.241 C 
HETATM    6  C12 UNL     1      26.399  58.855 -27.271  1.00  0.00     0.182 C 
HETATM    7  C13 UNL     1      26.374  58.968 -28.803  1.00  0.00     0.184 C 
ENDROOT
BRANCH   1   8
HETATM    8  C8  UNL     1      24.538  58.239 -30.385  1.00  0.00     0.099 C 
BRANCH   8   9
HETATM    9  N2  UNL     1      24.907  57.315 -31.384  1.00  0.00    -0.334 N 
HETATM   10  C7  UNL     1      24.133  56.981 -32.505  1.00  0.00     0.255 C 
HETATM   11  O1  UNL     1      23.019  57.558 -32.654  1.00  0.00    -0.267 OA
ATOM     12  H2  UNL     1      25.810  56.852 -31.284  1.00  0.00     0.168 HD
BRANCH  10  13
HETATM   13  C6  UNL     1      24.561  55.983 -33.522  1.00  0.00     0.032 A 
HETATM   14  C5  UNL     1      25.606  56.190 -34.380  1.00  0.00     0.019 A 
HETATM   15  C4  UNL     1      25.958  55.210 -35.313  1.00  0.00     0.030 A 
HETATM   16  C3  UNL     1      25.292  54.008 -35.422  1.00  0.00     0.029 A 
HETATM   17  C15 UNL     1      24.240  53.810 -34.551  1.00  0.00     0.030 A 
HETATM   18  C14 UNL     1      23.894  54.779 -33.630  1.00  0.00     0.019 A 
BRANCH  16  19
HETATM   19  N1  UNL     1      25.671  53.028 -36.382  1.00  0.00    -0.390 N 
HETATM   20  C1  UNL     1      26.731  53.271 -37.335  1.00  0.00     0.149 C 
HETATM   21  C2  UNL     1      24.999  51.748 -36.427  1.00  0.00     0.149 C 
ENDBRANCH  16  19
ENDBRANCH  10  13
ENDBRANCH   8   9
ENDBRANCH   1   8
BRANCH   7  22
HETATM   22  O4  UNL     1      26.319  60.262 -29.232  1.00  0.00    -0.390 OA
ATOM     23  H4  UNL     1      26.340  60.896 -28.526  1.00  0.00     0.210 HD
ENDBRANCH   7  22
BRANCH   5  24
HETATM   24  C11 UNL     1      24.702  57.384 -26.134  1.00  0.00     0.199 C 
BRANCH  24  25
HETATM   25  O2  UNL     1      23.976  56.232 -26.517  1.00  0.00    -0.399 OA
ATOM     26  H2  UNL     1      23.147  56.536 -26.867  1.00  0.00     0.209 HD
ENDBRANCH  24  25
ENDBRANCH   5  24
BRANCH   6  27
HETATM   27  O3  UNL     1      27.674  59.063 -26.777  1.00  0.00    -0.391 OA
ATOM     28  H3  UNL     1      27.963  59.968 -26.810  1.00  0.00     0.210 HD
ENDBRANCH   6  27
TORSDOF 8
ENDMDL
