MODEL 3
REMARK VINA RESULT: -8.566914286      1.065      1.753
REMARK  8 active torsions:
REMARK  status: ('A' for Active; 'I' for Inactive)
REMARK    1  A    between atoms: C4_6  and  C5_7 
REMARK    2  A    between atoms: C5_7  and  N2_8 
REMARK    3  A    between atoms: C7_11  and  C8_12 
REMARK    4  A    between atoms: C8_12  and  C9_13 
REMARK    5  A    between atoms: C9_13  and  O1_14 
REMARK    6  A    between atoms: O1_14  and  P1_15 
REMARK    7  A    between atoms: P1_15  and  O4_18 
REMARK    8  A    between atoms: O4_18  and  P2_19 
ROOT
HETATM    1  N2  UNL     1       9.102 -13.178  69.201  1.00  0.00    -0.349 N 
HETATM    2  C6  UNL     1       7.832 -13.626  69.104  1.00  0.00     0.141 A 
HETATM    3  S1  UNL     1       7.876 -15.157  69.790  1.00  0.00    -0.087 SA
HETATM    4  C7  UNL     1       9.590 -15.191  70.193  1.00  0.00     0.008 A 
HETATM    5  C10 UNL     1       9.985 -13.979  69.761  1.00  0.00     0.021 A 
HETATM    6  C11 UNL     1      11.429 -13.511  70.060  1.00  0.00     0.069 C 
ENDROOT
BRANCH   1   7
HETATM    7  C5  UNL     1       9.461 -11.964  68.385  1.00  0.00     0.172 C 
BRANCH   7   8
HETATM    8  C4  UNL     1       9.335 -10.840  69.387  1.00  0.00     0.017 A 
HETATM    9  C3  UNL     1      10.388 -10.271  70.051  1.00  0.00     0.101 A 
HETATM   10  N1  UNL     1      10.120  -9.106  70.741  1.00  0.00    -0.355 N 
HETATM   11  C2  UNL     1       8.949  -8.472  70.803  1.00  0.00     0.078 A 
ATOM     12  H1  UNL     1      10.896  -8.688  71.254  1.00  0.00     0.166 HD
HETATM   13  C1  UNL     1       8.705  -7.158  71.490  1.00  0.00     0.089 C 
HETATM   14  N4  UNL     1       7.925  -9.068  70.113  1.00  0.00    -0.334 N 
HETATM   15  C12 UNL     1       8.081 -10.194  69.442  1.00  0.00     0.127 A 
ATOM     16  H4  UNL     1       7.007  -8.624  70.118  1.00  0.00     0.168 HD
HETATM   17  N3  UNL     1       6.998 -10.813  68.713  1.00  0.00    -0.082 NA
ENDBRANCH   7   8
ENDBRANCH   1   7
BRANCH   4  18
HETATM   18  C8  UNL     1      10.179 -16.316  70.957  1.00  0.00     0.075 C 
BRANCH  18  19
HETATM   19  C9  UNL     1       9.525 -16.429  72.321  1.00  0.00     0.186 C 
BRANCH  19  20
HETATM   20  O1  UNL     1       8.854 -17.678  72.344  1.00  0.00    -0.289 OA
BRANCH  20  21
HETATM   21  P1  UNL     1       8.041 -17.697  73.867  1.00  0.00     0.418 P 
HETATM   22  O2  UNL     1       8.270 -16.259  74.424  1.00  0.00    -0.624 OA
HETATM   23  O3  UNL     1       8.850 -18.701  74.929  1.00  0.00    -0.624 OA
BRANCH  21  24
HETATM   24  O4  UNL     1       6.452 -18.025  73.723  1.00  0.00    -0.173 OA
BRANCH  24  25
HETATM   25  P2  UNL     1       6.195 -19.704  73.470  1.00  0.00     0.431 P 
HETATM   26  O5  UNL     1       4.762 -19.840  72.998  1.00  0.00    -0.616 OA
HETATM   27  O6  UNL     1       6.439 -20.464  74.926  1.00  0.00    -0.616 OA
HETATM   28  O7  UNL     1       7.246 -20.224  72.259  1.00  0.00    -0.616 OA
ENDBRANCH  24  25
ENDBRANCH  21  24
ENDBRANCH  20  21
ENDBRANCH  19  20
ENDBRANCH  18  19
ENDBRANCH   4  18
TORSDOF 8
ENDMDL
