MODEL 8
REMARK VINA RESULT: -7.868449161      6.439      8.710
REMARK  8 active torsions:
REMARK  status: ('A' for Active; 'I' for Inactive)
REMARK    1  A    between atoms: C4_6  and  C5_7 
REMARK    2  A    between atoms: C5_7  and  N2_8 
REMARK    3  A    between atoms: C7_11  and  C8_12 
REMARK    4  A    between atoms: C8_12  and  C9_13 
REMARK    5  A    between atoms: C9_13  and  O1_14 
REMARK    6  A    between atoms: O1_14  and  P1_15 
REMARK    7  A    between atoms: P1_15  and  O4_18 
REMARK    8  A    between atoms: O4_18  and  P2_19 
ROOT
HETATM    1  N2  UNL     1       7.418 -17.982  73.918  1.00  0.00    -0.349 N 
HETATM    2  C6  UNL     1       7.340 -16.804  74.573  1.00  0.00     0.141 A 
HETATM    3  S1  UNL     1       8.416 -15.804  73.762  1.00  0.00    -0.087 SA
HETATM    4  C7  UNL     1       8.968 -16.967  72.560  1.00  0.00     0.008 A 
HETATM    5  C10 UNL     1       8.244 -18.052  72.894  1.00  0.00     0.021 A 
HETATM    6  C11 UNL     1       8.301 -19.300  71.982  1.00  0.00     0.069 C 
ENDROOT
BRANCH   1   7
HETATM    7  C5  UNL     1       6.815 -19.183  74.599  1.00  0.00     0.172 C 
BRANCH   7   8
HETATM    8  C4  UNL     1       5.337 -18.870  74.576  1.00  0.00     0.017 A 
HETATM    9  C3  UNL     1       4.795 -17.718  74.072  1.00  0.00     0.101 A 
HETATM   10  N1  UNL     1       3.425 -17.704  73.912  1.00  0.00    -0.355 N 
HETATM   11  C2  UNL     1       2.584 -18.706  74.176  1.00  0.00     0.078 A 
ATOM     12  H1  UNL     1       3.013 -16.841  73.555  1.00  0.00     0.166 HD
HETATM   13  C1  UNL     1       1.105 -18.694  73.911  1.00  0.00     0.089 C 
HETATM   14  N4  UNL     1       3.169 -19.845  74.665  1.00  0.00    -0.334 N 
HETATM   15  C12 UNL     1       4.469 -19.944  74.871  1.00  0.00     0.127 A 
ATOM     16  H4  UNL     1       2.576 -20.647  74.879  1.00  0.00     0.168 HD
HETATM   17  N3  UNL     1       5.079 -21.150  75.383  1.00  0.00    -0.082 NA
ENDBRANCH   7   8
ENDBRANCH   1   7
BRANCH   4  18
HETATM   18  C8  UNL     1       9.883 -16.567  71.465  1.00  0.00     0.075 C 
BRANCH  18  19
HETATM   19  C9  UNL     1       9.322 -15.374  70.716  1.00  0.00     0.186 C 
BRANCH  19  20
HETATM   20  O1  UNL     1       9.868 -15.426  69.408  1.00  0.00    -0.289 OA
BRANCH  20  21
HETATM   21  P1  UNL     1       8.927 -14.292  68.508  1.00  0.00     0.418 P 
HETATM   22  O2  UNL     1       9.490 -14.415  67.059  1.00  0.00    -0.624 OA
HETATM   23  O3  UNL     1       9.308 -12.736  68.984  1.00  0.00    -0.624 OA
BRANCH  21  24
HETATM   24  O4  UNL     1       7.334 -14.629  68.551  1.00  0.00    -0.173 OA
BRANCH  24  25
HETATM   25  P2  UNL     1       6.573 -14.178  67.079  1.00  0.00     0.431 P 
HETATM   26  O5  UNL     1       5.084 -14.224  67.349  1.00  0.00    -0.616 OA
HETATM   27  O6  UNL     1       7.026 -15.286  65.930  1.00  0.00    -0.616 OA
HETATM   28  O7  UNL     1       7.037 -12.600  66.707  1.00  0.00    -0.616 OA
ENDBRANCH  24  25
ENDBRANCH  21  24
ENDBRANCH  20  21
ENDBRANCH  19  20
ENDBRANCH  18  19
ENDBRANCH   4  18
TORSDOF 8
ENDMDL
