MODEL 5
REMARK VINA RESULT: -8.180512595      1.156      2.180
REMARK  8 active torsions:
REMARK  status: ('A' for Active; 'I' for Inactive)
REMARK    1  A    between atoms: C4_6  and  C5_7 
REMARK    2  A    between atoms: C5_7  and  N2_8 
REMARK    3  A    between atoms: C7_11  and  C8_12 
REMARK    4  A    between atoms: C8_12  and  C9_13 
REMARK    5  A    between atoms: C9_13  and  O1_14 
REMARK    6  A    between atoms: O1_14  and  P1_15 
REMARK    7  A    between atoms: P1_15  and  O4_18 
REMARK    8  A    between atoms: O4_18  and  P2_19 
ROOT
HETATM    1  N2  UNL     1       9.104 -13.144  69.001  1.00  0.00    -0.349 N 
HETATM    2  C6  UNL     1       7.808 -13.525  68.993  1.00  0.00     0.141 A 
HETATM    3  S1  UNL     1       7.801 -14.993  69.805  1.00  0.00    -0.087 SA
HETATM    4  C7  UNL     1       9.527 -15.093  70.141  1.00  0.00     0.008 A 
HETATM    5  C10 UNL     1       9.967 -13.946  69.591  1.00  0.00     0.021 A 
HETATM    6  C11 UNL     1      11.447 -13.538  69.790  1.00  0.00     0.069 C 
ENDROOT
BRANCH   1   7
HETATM    7  C5  UNL     1       9.491 -12.025  68.070  1.00  0.00     0.172 C 
BRANCH   7   8
HETATM    8  C4  UNL     1       9.158 -10.791  68.876  1.00  0.00     0.017 A 
HETATM    9  C3  UNL     1       7.898 -10.454  69.293  1.00  0.00     0.101 A 
HETATM   10  N1  UNL     1       7.812  -9.432  70.216  1.00  0.00    -0.355 N 
HETATM   11  C2  UNL     1       8.830  -8.762  70.756  1.00  0.00     0.078 A 
ATOM     12  H1  UNL     1       6.874  -9.163  70.515  1.00  0.00     0.166 HD
HETATM   13  C1  UNL     1       8.712  -7.711  71.824  1.00  0.00     0.089 C 
HETATM   14  N4  UNL     1      10.074  -9.140  70.321  1.00  0.00    -0.334 N 
HETATM   15  C12 UNL     1      10.254 -10.093  69.425  1.00  0.00     0.127 A 
ATOM     16  H4  UNL     1      10.892  -8.667  70.705  1.00  0.00     0.168 HD
HETATM   17  N3  UNL     1      11.569 -10.489  68.976  1.00  0.00    -0.082 NA
ENDBRANCH   7   8
ENDBRANCH   1   7
BRANCH   4  18
HETATM   18  C8  UNL     1      10.088 -16.183  70.974  1.00  0.00     0.075 C 
BRANCH  18  19
HETATM   19  C9  UNL     1       9.331 -16.291  72.284  1.00  0.00     0.186 C 
BRANCH  19  20
HETATM   20  O1  UNL     1       8.770 -17.593  72.318  1.00  0.00    -0.289 OA
BRANCH  20  21
HETATM   21  P1  UNL     1       8.015 -17.690  73.868  1.00  0.00     0.418 P 
HETATM   22  O2  UNL     1       8.252 -16.277  74.482  1.00  0.00    -0.624 OA
HETATM   23  O3  UNL     1       8.874 -18.733  74.852  1.00  0.00    -0.624 OA
BRANCH  21  24
HETATM   24  O4  UNL     1       6.425 -18.030  73.768  1.00  0.00    -0.173 OA
BRANCH  24  25
HETATM   25  P2  UNL     1       6.173 -19.709  73.514  1.00  0.00     0.431 P 
HETATM   26  O5  UNL     1       4.736 -19.850  73.056  1.00  0.00    -0.616 OA
HETATM   27  O6  UNL     1       6.436 -20.472  74.964  1.00  0.00    -0.616 OA
HETATM   28  O7  UNL     1       7.214 -20.220  72.290  1.00  0.00    -0.616 OA
ENDBRANCH  24  25
ENDBRANCH  21  24
ENDBRANCH  20  21
ENDBRANCH  19  20
ENDBRANCH  18  19
ENDBRANCH   4  18
TORSDOF 8
ENDMDL
