MODEL 7
REMARK VINA RESULT: -8.058331282      2.810      4.603
REMARK  8 active torsions:
REMARK  status: ('A' for Active; 'I' for Inactive)
REMARK    1  A    between atoms: C4_6  and  C5_7 
REMARK    2  A    between atoms: C5_7  and  N2_8 
REMARK    3  A    between atoms: C7_11  and  C8_12 
REMARK    4  A    between atoms: C8_12  and  C9_13 
REMARK    5  A    between atoms: C9_13  and  O1_14 
REMARK    6  A    between atoms: O1_14  and  P1_15 
REMARK    7  A    between atoms: P1_15  and  O4_18 
REMARK    8  A    between atoms: O4_18  and  P2_19 
ROOT
HETATM    1  N2  UNL     1       9.207 -13.626  68.071  1.00  0.00    -0.349 N 
HETATM    2  C6  UNL     1      10.514 -13.532  68.401  1.00  0.00     0.141 A 
HETATM    3  S1  UNL     1      10.600 -14.174  69.948  1.00  0.00    -0.087 SA
HETATM    4  C7  UNL     1       8.893 -14.555  70.148  1.00  0.00     0.008 A 
HETATM    5  C10 UNL     1       8.394 -14.152  68.965  1.00  0.00     0.021 A 
HETATM    6  C11 UNL     1       6.911 -14.445  68.637  1.00  0.00     0.069 C 
ENDROOT
BRANCH   1   7
HETATM    7  C5  UNL     1       8.748 -12.839  66.872  1.00  0.00     0.172 C 
BRANCH   7   8
HETATM    8  C4  UNL     1       9.173 -13.715  65.716  1.00  0.00     0.017 A 
HETATM    9  C3  UNL     1       9.261 -15.081  65.770  1.00  0.00     0.101 A 
HETATM   10  N1  UNL     1       9.429 -15.731  64.565  1.00  0.00    -0.355 N 
HETATM   11  C2  UNL     1       9.491 -15.166  63.359  1.00  0.00     0.078 A 
ATOM     12  H1  UNL     1       9.516 -16.747  64.601  1.00  0.00     0.166 HD
HETATM   13  C1  UNL     1       9.588 -15.905  62.055  1.00  0.00     0.089 C 
HETATM   14  N4  UNL     1       9.386 -13.799  63.350  1.00  0.00    -0.334 N 
HETATM   15  C12 UNL     1       9.243 -13.089  64.453  1.00  0.00     0.127 A 
ATOM     16  H4  UNL     1       9.418 -13.311  62.454  1.00  0.00     0.168 HD
HETATM   17  N3  UNL     1       9.128 -11.650  64.434  1.00  0.00    -0.082 NA
ENDBRANCH   7   8
ENDBRANCH   1   7
BRANCH   4  18
HETATM   18  C8  UNL     1       8.400 -15.279  71.344  1.00  0.00     0.075 C 
BRANCH  18  19
HETATM   19  C9  UNL     1       9.347 -16.407  71.705  1.00  0.00     0.186 C 
BRANCH  19  20
HETATM   20  O1  UNL     1       9.388 -16.460  73.122  1.00  0.00    -0.289 OA
BRANCH  20  21
HETATM   21  P1  UNL     1       8.394 -17.813  73.527  1.00  0.00     0.418 P 
HETATM   22  O2  UNL     1       7.043 -17.162  73.955  1.00  0.00    -0.624 OA
HETATM   23  O3  UNL     1       8.973 -18.546  74.913  1.00  0.00    -0.624 OA
BRANCH  21  24
HETATM   24  O4  UNL     1       8.185 -18.832  72.274  1.00  0.00    -0.173 OA
BRANCH  24  25
HETATM   25  P2  UNL     1       7.008 -20.025  72.645  1.00  0.00     0.431 P 
HETATM   26  O5  UNL     1       5.689 -19.481  72.137  1.00  0.00    -0.616 OA
HETATM   27  O6  UNL     1       7.002 -20.216  74.294  1.00  0.00    -0.616 OA
HETATM   28  O7  UNL     1       7.403 -21.435  71.809  1.00  0.00    -0.616 OA
ENDBRANCH  24  25
ENDBRANCH  21  24
ENDBRANCH  20  21
ENDBRANCH  19  20
ENDBRANCH  18  19
ENDBRANCH   4  18
TORSDOF 8
ENDMDL
