MODEL 9
REMARK VINA RESULT: -7.846717657      6.432      8.681
REMARK  8 active torsions:
REMARK  status: ('A' for Active; 'I' for Inactive)
REMARK    1  A    between atoms: C4_6  and  C5_7 
REMARK    2  A    between atoms: C5_7  and  N2_8 
REMARK    3  A    between atoms: C7_11  and  C8_12 
REMARK    4  A    between atoms: C8_12  and  C9_13 
REMARK    5  A    between atoms: C9_13  and  O1_14 
REMARK    6  A    between atoms: O1_14  and  P1_15 
REMARK    7  A    between atoms: P1_15  and  O4_18 
REMARK    8  A    between atoms: O4_18  and  P2_19 
ROOT
HETATM    1  N2  UNL     1       7.390 -18.003  73.926  1.00  0.00    -0.349 N 
HETATM    2  C6  UNL     1       7.355 -16.834  74.601  1.00  0.00     0.141 A 
HETATM    3  S1  UNL     1       8.414 -15.837  73.766  1.00  0.00    -0.087 SA
HETATM    4  C7  UNL     1       8.904 -16.989  72.527  1.00  0.00     0.008 A 
HETATM    5  C10 UNL     1       8.177 -18.068  72.870  1.00  0.00     0.021 A 
HETATM    6  C11 UNL     1       8.182 -19.303  71.938  1.00  0.00     0.069 C 
ENDROOT
BRANCH   1   7
HETATM    7  C5  UNL     1       6.796 -19.206  74.610  1.00  0.00     0.172 C 
BRANCH   7   8
HETATM    8  C4  UNL     1       5.316 -18.902  74.588  1.00  0.00     0.017 A 
HETATM    9  C3  UNL     1       4.765 -17.761  74.070  1.00  0.00     0.101 A 
HETATM   10  N1  UNL     1       3.394 -17.757  73.915  1.00  0.00    -0.355 N 
HETATM   11  C2  UNL     1       2.561 -18.760  74.196  1.00  0.00     0.078 A 
ATOM     12  H1  UNL     1       2.977 -16.902  73.548  1.00  0.00     0.166 HD
HETATM   13  C1  UNL     1       1.081 -18.761  73.936  1.00  0.00     0.089 C 
HETATM   14  N4  UNL     1       3.154 -19.888  74.700  1.00  0.00    -0.334 N 
HETATM   15  C12 UNL     1       4.456 -19.977  74.902  1.00  0.00     0.127 A 
ATOM     16  H4  UNL     1       2.567 -20.691  74.927  1.00  0.00     0.168 HD
HETATM   17  N3  UNL     1       5.074 -21.171  75.429  1.00  0.00    -0.082 NA
ENDBRANCH   7   8
ENDBRANCH   1   7
BRANCH   4  18
HETATM   18  C8  UNL     1       9.784 -16.585  71.405  1.00  0.00     0.075 C 
BRANCH  18  19
HETATM   19  C9  UNL     1       9.446 -15.178  70.948  1.00  0.00     0.186 C 
BRANCH  19  20
HETATM   20  O1  UNL     1       8.412 -15.304  69.985  1.00  0.00    -0.289 OA
BRANCH  20  21
HETATM   21  P1  UNL     1       8.694 -14.003  68.886  1.00  0.00     0.418 P 
HETATM   22  O2  UNL     1       9.126 -14.720  67.571  1.00  0.00    -0.624 OA
HETATM   23  O3  UNL     1      10.041 -13.138  69.365  1.00  0.00    -0.624 OA
BRANCH  21  24
HETATM   24  O4  UNL     1       7.367 -13.088  68.648  1.00  0.00    -0.173 OA
BRANCH  24  25
HETATM   25  P2  UNL     1       6.429 -13.697  67.346  1.00  0.00     0.431 P 
HETATM   26  O5  UNL     1       7.250 -13.464  66.095  1.00  0.00    -0.616 OA
HETATM   27  O6  UNL     1       5.008 -12.840  67.319  1.00  0.00    -0.616 OA
HETATM   28  O7  UNL     1       6.208 -15.352  67.582  1.00  0.00    -0.616 OA
ENDBRANCH  24  25
ENDBRANCH  21  24
ENDBRANCH  20  21
ENDBRANCH  19  20
ENDBRANCH  18  19
ENDBRANCH   4  18
TORSDOF 8
ENDMDL
