MODEL 1
REMARK VINA RESULT: -10.028141839      0.000      0.000
REMARK  8 active torsions:
REMARK  status: ('A' for Active; 'I' for Inactive)
REMARK    1  A    between atoms: C4_6  and  C5_7 
REMARK    2  A    between atoms: C5_7  and  N2_8 
REMARK    3  A    between atoms: C7_11  and  C8_12 
REMARK    4  A    between atoms: C8_12  and  C9_13 
REMARK    5  A    between atoms: C9_13  and  O1_14 
REMARK    6  A    between atoms: O1_14  and  P1_15 
REMARK    7  A    between atoms: P1_15  and  O4_18 
REMARK    8  A    between atoms: O4_18  and  P2_19 
ROOT
HETATM    1  N2  UNL     1       9.913 -13.269  68.777  1.00  0.00    -0.349 N 
HETATM    2  C6  UNL     1      11.240 -13.207  69.021  1.00  0.00     0.141 A 
HETATM    3  S1  UNL     1      11.519 -14.443  70.121  1.00  0.00    -0.087 SA
HETATM    4  C7  UNL     1       9.864 -15.028  70.254  1.00  0.00     0.008 A 
HETATM    5  C10 UNL     1       9.225 -14.201  69.405  1.00  0.00     0.021 A 
HETATM    6  C11 UNL     1       7.733 -14.460  69.088  1.00  0.00     0.069 C 
ENDROOT
BRANCH   1   7
HETATM    7  C5  UNL     1       9.291 -12.088  68.080  1.00  0.00     0.172 C 
BRANCH   7   8
HETATM    8  C4  UNL     1       9.262 -11.038  69.166  1.00  0.00     0.017 A 
HETATM    9  C3  UNL     1      10.375 -10.503  69.759  1.00  0.00     0.101 A 
HETATM   10  N1  UNL     1      10.173  -9.393  70.552  1.00  0.00    -0.355 N 
HETATM   11  C2  UNL     1       9.011  -8.779  70.777  1.00  0.00     0.078 A 
ATOM     12  H1  UNL     1      10.995  -9.002  71.012  1.00  0.00     0.166 HD
HETATM   13  C1  UNL     1       8.832  -7.519  71.577  1.00  0.00     0.089 C 
HETATM   14  N4  UNL     1       7.925  -9.338  70.154  1.00  0.00    -0.334 N 
HETATM   15  C12 UNL     1       8.017 -10.413  69.393  1.00  0.00     0.127 A 
ATOM     16  H4  UNL     1       7.009  -8.906  70.284  1.00  0.00     0.168 HD
HETATM   17  N3  UNL     1       6.869 -10.993  68.736  1.00  0.00    -0.082 NA
ENDBRANCH   7   8
ENDBRANCH   1   7
BRANCH   4  18
HETATM   18  C8  UNL     1       9.536 -16.239  71.043  1.00  0.00     0.075 C 
BRANCH  18  19
HETATM   19  C9  UNL     1       8.838 -15.855  72.334  1.00  0.00     0.186 C 
BRANCH  19  20
HETATM   20  O1  UNL     1       9.448 -16.616  73.363  1.00  0.00    -0.289 OA
BRANCH  20  21
HETATM   21  P1  UNL     1       8.302 -17.860  73.710  1.00  0.00     0.418 P 
HETATM   22  O2  UNL     1       6.998 -17.075  74.050  1.00  0.00    -0.624 OA
HETATM   23  O3  UNL     1       8.718 -18.633  75.132  1.00  0.00    -0.624 OA
BRANCH  21  24
HETATM   24  O4  UNL     1       8.072 -18.866  72.449  1.00  0.00    -0.173 OA
BRANCH  24  25
HETATM   25  P2  UNL     1       6.854 -20.023  72.804  1.00  0.00     0.431 P 
HETATM   26  O5  UNL     1       7.274 -21.299  72.103  1.00  0.00    -0.616 OA
HETATM   27  O6  UNL     1       5.424 -19.433  72.204  1.00  0.00    -0.616 OA
HETATM   28  O7  UNL     1       6.829 -20.270  74.472  1.00  0.00    -0.616 OA
ENDBRANCH  24  25
ENDBRANCH  21  24
ENDBRANCH  20  21
ENDBRANCH  19  20
ENDBRANCH  18  19
ENDBRANCH   4  18
TORSDOF 8
ENDMDL
