MODEL 2
REMARK VINA RESULT: -9.531186554      0.654      1.151
REMARK  8 active torsions:
REMARK  status: ('A' for Active; 'I' for Inactive)
REMARK    1  A    between atoms: C4_6  and  C5_7 
REMARK    2  A    between atoms: C5_7  and  N2_8 
REMARK    3  A    between atoms: C7_11  and  C8_12 
REMARK    4  A    between atoms: C8_12  and  C9_13 
REMARK    5  A    between atoms: C9_13  and  O1_14 
REMARK    6  A    between atoms: O1_14  and  P1_15 
REMARK    7  A    between atoms: P1_15  and  O4_18 
REMARK    8  A    between atoms: O4_18  and  P2_19 
ROOT
HETATM    1  N2  UNL     1       9.928 -13.450  68.826  1.00  0.00    -0.349 N 
HETATM    2  C6  UNL     1      11.249 -13.449  69.106  1.00  0.00     0.141 A 
HETATM    3  S1  UNL     1      11.434 -14.668  70.244  1.00  0.00    -0.087 SA
HETATM    4  C7  UNL     1       9.747 -15.164  70.344  1.00  0.00     0.008 A 
HETATM    5  C10 UNL     1       9.175 -14.328  69.457  1.00  0.00     0.021 A 
HETATM    6  C11 UNL     1       7.681 -14.518  69.104  1.00  0.00     0.069 C 
ENDROOT
BRANCH   1   7
HETATM    7  C5  UNL     1       9.388 -12.257  68.081  1.00  0.00     0.172 C 
BRANCH   7   8
HETATM    8  C4  UNL     1       9.343 -11.190  69.149  1.00  0.00     0.017 A 
HETATM    9  C3  UNL     1      10.446 -10.660  69.764  1.00  0.00     0.101 A 
HETATM   10  N1  UNL     1      10.237  -9.534  70.534  1.00  0.00    -0.355 N 
HETATM   11  C2  UNL     1       9.077  -8.903  70.719  1.00  0.00     0.078 A 
ATOM     12  H1  UNL     1      11.051  -9.147  71.010  1.00  0.00     0.166 HD
HETATM   13  C1  UNL     1       8.892  -7.629  71.493  1.00  0.00     0.089 C 
HETATM   14  N4  UNL     1       8.001  -9.459  70.076  1.00  0.00    -0.334 N 
HETATM   15  C12 UNL     1       8.100 -10.546  69.334  1.00  0.00     0.127 A 
ATOM     16  H4  UNL     1       7.088  -9.014  70.174  1.00  0.00     0.168 HD
HETATM   17  N3  UNL     1       6.963 -11.123  68.655  1.00  0.00    -0.082 NA
ENDBRANCH   7   8
ENDBRANCH   1   7
BRANCH   4  18
HETATM   18  C8  UNL     1       9.335 -16.335  71.154  1.00  0.00     0.075 C 
BRANCH  18  19
HETATM   19  C9  UNL     1       8.737 -15.881  72.472  1.00  0.00     0.186 C 
BRANCH  19  20
HETATM   20  O1  UNL     1       9.377 -16.637  73.487  1.00  0.00    -0.289 OA
BRANCH  20  21
HETATM   21  P1  UNL     1       8.379 -18.034  73.671  1.00  0.00     0.418 P 
HETATM   22  O2  UNL     1       8.865 -18.658  75.015  1.00  0.00    -0.624 OA
HETATM   23  O3  UNL     1       8.771 -19.167  72.507  1.00  0.00    -0.624 OA
BRANCH  21  24
HETATM   24  O4  UNL     1       6.794 -17.665  73.732  1.00  0.00    -0.173 OA
BRANCH  24  25
HETATM   25  P2  UNL     1       5.834 -19.089  73.732  1.00  0.00     0.431 P 
HETATM   26  O5  UNL     1       5.708 -19.507  72.281  1.00  0.00    -0.616 OA
HETATM   27  O6  UNL     1       4.363 -18.691  74.389  1.00  0.00    -0.616 OA
HETATM   28  O7  UNL     1       6.655 -20.280  74.599  1.00  0.00    -0.616 OA
ENDBRANCH  24  25
ENDBRANCH  21  24
ENDBRANCH  20  21
ENDBRANCH  19  20
ENDBRANCH  18  19
ENDBRANCH   4  18
TORSDOF 8
ENDMDL
