MODEL 5
REMARK VINA RESULT: -9.602707680      2.911      7.534
REMARK  5 active torsions:
REMARK  status: ('A' for Active; 'I' for Inactive)
REMARK    1  A    between atoms: C9_9  and  O1_10 
REMARK    2  A    between atoms: C18_20  and  O2_21 
REMARK    3  A    between atoms: C18_20  and  C19_23 
REMARK    4  A    between atoms: C20_24  and  C21_25 
REMARK    5  A    between atoms: C26_30  and  C27_31 
ROOT
HETATM    1  C1  UNL     1     -36.982   7.403  23.328  1.00  0.00     0.019 C 
HETATM    2  C2  UNL     1     -36.410   6.602  22.190  1.00  0.00    -0.005 C 
HETATM    3  C3  UNL     1     -35.191   7.209  21.598  1.00  0.00     0.013 C 
HETATM    4  C4  UNL     1     -35.536   8.531  20.986  1.00  0.00     0.010 C 
HETATM    5  C5  UNL     1     -36.658   8.436  20.003  1.00  0.00     0.023 C 
HETATM    6  C6  UNL     1     -37.108   9.761  19.558  1.00  0.00    -0.047 A 
HETATM    7  C7  UNL     1     -36.503  10.931  19.904  1.00  0.00     0.011 A 
HETATM    8  C8  UNL     1     -37.024  12.121  19.418  1.00  0.00     0.037 A 
HETATM    9  C9  UNL     1     -38.144  12.124  18.592  1.00  0.00     0.066 A 
HETATM   10  C10 UNL     1     -38.764  10.933  18.236  1.00  0.00     0.044 A 
HETATM   11  C11 UNL     1     -38.234   9.781  18.725  1.00  0.00    -0.049 A 
HETATM   12  C12 UNL     1     -38.817   8.451  18.407  1.00  0.00     0.039 C 
HETATM   13  C13 UNL     1     -38.985   7.626  19.640  1.00  0.00     0.010 C 
HETATM   14  C14 UNL     1     -37.879   7.750  20.632  1.00  0.00    -0.001 C 
HETATM   15  C15 UNL     1     -37.421   6.401  21.066  1.00  0.00     0.002 C 
HETATM   16  C16 UNL     1     -38.444   5.544  21.707  1.00  0.00     0.009 C 
HETATM   17  C17 UNL     1     -37.669   4.698  22.726  1.00  0.00     0.043 C 
HETATM   18  C18 UNL     1     -36.241   5.184  22.663  1.00  0.00     0.083 C 
ENDROOT
BRANCH  18  19
HETATM   19  O2  UNL     1     -35.689   5.127  23.953  1.00  0.00    -0.385 OA
ATOM     20  H2  UNL     1     -36.309   5.414  24.614  1.00  0.00     0.211 HD
ENDBRANCH  18  19
BRANCH  18  21
HETATM   21  C19 UNL     1     -35.402   4.372  21.746  1.00  0.00     0.012 C 
HETATM   22  C20 UNL     1     -34.309   4.791  21.177  1.00  0.00     0.011 C 
BRANCH  22  23
HETATM   23  C21 UNL     1     -33.464   4.023  20.274  1.00  0.00    -0.021 A 
HETATM   24  C22 UNL     1     -33.821   3.761  18.967  1.00  0.00     0.012 A 
HETATM   25  C23 UNL     1     -32.992   3.018  18.117  1.00  0.00     0.001 A 
HETATM   26  C24 UNL     1     -31.785   2.515  18.547  1.00  0.00     0.001 A 
HETATM   27  C25 UNL     1     -31.423   2.771  19.850  1.00  0.00     0.017 A 
HETATM   28  C26 UNL     1     -32.256   3.515  20.694  1.00  0.00     0.058 A 
BRANCH  28  29
HETATM   29  C27 UNL     1     -31.831   3.777  22.103  1.00  0.00     0.418 C 
HETATM   30  F1  UNL     1     -32.059   5.060  22.510  1.00  0.00    -0.166 F 
HETATM   31  F2  UNL     1     -30.469   3.453  22.241  1.00  0.00    -0.166 F 
HETATM   32  F3  UNL     1     -32.477   2.924  22.978  1.00  0.00    -0.166 F 
ENDBRANCH  28  29
ENDBRANCH  22  23
ENDBRANCH  18  21
BRANCH   9  33
HETATM   33  O1  UNL     1     -38.679  13.305  18.097  1.00  0.00    -0.361 OA
ATOM     34  H1  UNL     1     -39.595  13.527  18.221  1.00  0.00     0.217 HD
ENDBRANCH   9  33
TORSDOF 5
ENDMDL
