MODEL 4
REMARK VINA RESULT: -10.403959124      3.241      8.118
REMARK  5 active torsions:
REMARK  status: ('A' for Active; 'I' for Inactive)
REMARK    1  A    between atoms: C9_9  and  O1_10 
REMARK    2  A    between atoms: C18_20  and  O2_21 
REMARK    3  A    between atoms: C18_20  and  C19_23 
REMARK    4  A    between atoms: C20_24  and  C21_25 
REMARK    5  A    between atoms: C26_30  and  C27_31 
ROOT
HETATM    1  C1  UNL     1     -36.943   8.635  22.989  1.00  0.00     0.019 C 
HETATM    2  C2  UNL     1     -36.194   7.960  21.873  1.00  0.00    -0.005 C 
HETATM    3  C3  UNL     1     -35.043   8.753  21.372  1.00  0.00     0.013 C 
HETATM    4  C4  UNL     1     -35.541  10.030  20.767  1.00  0.00     0.010 C 
HETATM    5  C5  UNL     1     -36.576   9.803  19.713  1.00  0.00     0.023 C 
HETATM    6  C6  UNL     1     -37.187  11.063  19.269  1.00  0.00    -0.047 A 
HETATM    7  C7  UNL     1     -36.781  12.296  19.677  1.00  0.00     0.011 A 
HETATM    8  C8  UNL     1     -37.440  13.413  19.185  1.00  0.00     0.037 A 
HETATM    9  C9  UNL     1     -38.497  13.279  18.289  1.00  0.00     0.066 A 
HETATM   10  C10 UNL     1     -38.915  12.022  17.870  1.00  0.00     0.044 A 
HETATM   11  C11 UNL     1     -38.252  10.945  18.367  1.00  0.00    -0.049 A 
HETATM   12  C12 UNL     1     -38.615   9.554  17.985  1.00  0.00     0.039 C 
HETATM   13  C13 UNL     1     -38.733   8.677  19.187  1.00  0.00     0.010 C 
HETATM   14  C14 UNL     1     -37.719   8.930  20.250  1.00  0.00    -0.001 C 
HETATM   15  C15 UNL     1     -37.096   7.649  20.683  1.00  0.00     0.002 C 
HETATM   16  C16 UNL     1     -38.019   6.634  21.239  1.00  0.00     0.009 C 
HETATM   17  C17 UNL     1     -37.191   5.879  22.287  1.00  0.00     0.043 C 
HETATM   18  C18 UNL     1     -35.848   6.567  22.325  1.00  0.00     0.083 C 
ENDROOT
BRANCH  18  19
HETATM   19  O2  UNL     1     -35.371   6.552  23.646  1.00  0.00    -0.385 OA
ATOM     20  H2  UNL     1     -35.565   5.730  24.081  1.00  0.00     0.211 HD
ENDBRANCH  18  19
BRANCH  18  21
HETATM   21  C19 UNL     1     -34.846   5.913  21.446  1.00  0.00     0.012 C 
HETATM   22  C20 UNL     1     -34.857   4.653  21.122  1.00  0.00     0.011 C 
BRANCH  22  23
HETATM   23  C21 UNL     1     -33.891   3.980  20.264  1.00  0.00    -0.021 A 
HETATM   24  C22 UNL     1     -34.031   3.921  18.893  1.00  0.00     0.012 A 
HETATM   25  C23 UNL     1     -33.090   3.266  18.089  1.00  0.00     0.001 A 
HETATM   26  C24 UNL     1     -31.984   2.652  18.630  1.00  0.00     0.001 A 
HETATM   27  C25 UNL     1     -31.837   2.706  19.997  1.00  0.00     0.017 A 
HETATM   28  C26 UNL     1     -32.782   3.363  20.795  1.00  0.00     0.058 A 
BRANCH  28  29
HETATM   29  C27 UNL     1     -32.591   3.405  22.277  1.00  0.00     0.418 C 
HETATM   30  F1  UNL     1     -33.717   3.086  22.980  1.00  0.00    -0.166 F 
HETATM   31  F2  UNL     1     -32.128   4.682  22.646  1.00  0.00    -0.166 F 
HETATM   32  F3  UNL     1     -31.579   2.549  22.667  1.00  0.00    -0.166 F 
ENDBRANCH  28  29
ENDBRANCH  22  23
ENDBRANCH  18  21
BRANCH   9  33
HETATM   33  O1  UNL     1     -39.169  14.385  17.786  1.00  0.00    -0.361 OA
ATOM     34  H1  UNL     1     -40.080  14.336  17.522  1.00  0.00     0.217 HD
ENDBRANCH   9  33
TORSDOF 5
ENDMDL
