MODEL 2
REMARK VINA RESULT: -10.841119293      1.011      1.344
REMARK  5 active torsions:
REMARK  status: ('A' for Active; 'I' for Inactive)
REMARK    1  A    between atoms: C9_9  and  O1_10 
REMARK    2  A    between atoms: C18_20  and  O2_21 
REMARK    3  A    between atoms: C18_20  and  C19_23 
REMARK    4  A    between atoms: C20_24  and  C21_25 
REMARK    5  A    between atoms: C26_30  and  C27_31 
ROOT
HETATM    1  C1  UNL     1     -35.714   2.418  22.346  1.00  0.00     0.019 C 
HETATM    2  C2  UNL     1     -35.861   3.782  21.730  1.00  0.00    -0.005 C 
HETATM    3  C3  UNL     1     -35.866   3.759  20.245  1.00  0.00     0.013 C 
HETATM    4  C4  UNL     1     -34.542   3.267  19.748  1.00  0.00     0.010 C 
HETATM    5  C5  UNL     1     -33.392   4.047  20.301  1.00  0.00     0.023 C 
HETATM    6  C6  UNL     1     -32.102   3.435  19.956  1.00  0.00    -0.047 A 
HETATM    7  C7  UNL     1     -31.961   2.358  19.136  1.00  0.00     0.011 A 
HETATM    8  C8  UNL     1     -30.686   1.871  18.887  1.00  0.00     0.037 A 
HETATM    9  C9  UNL     1     -29.569   2.470  19.463  1.00  0.00     0.066 A 
HETATM   10  C10 UNL     1     -29.710   3.569  20.301  1.00  0.00     0.044 A 
HETATM   11  C11 UNL     1     -30.969   4.026  20.528  1.00  0.00    -0.049 A 
HETATM   12  C12 UNL     1     -31.233   5.196  21.407  1.00  0.00     0.039 C 
HETATM   13  C13 UNL     1     -32.326   4.904  22.381  1.00  0.00     0.010 C 
HETATM   14  C14 UNL     1     -33.455   4.098  21.834  1.00  0.00    -0.001 C 
HETATM   15  C15 UNL     1     -34.757   4.734  22.176  1.00  0.00     0.002 C 
HETATM   16  C16 UNL     1     -35.040   4.896  23.620  1.00  0.00     0.009 C 
HETATM   17  C17 UNL     1     -36.563   4.758  23.742  1.00  0.00     0.043 C 
HETATM   18  C18 UNL     1     -37.061   4.443  22.352  1.00  0.00     0.083 C 
ENDROOT
BRANCH  18  19
HETATM   19  O2  UNL     1     -38.148   3.560  22.453  1.00  0.00    -0.385 OA
ATOM     20  H2  UNL     1     -38.810   3.884  23.053  1.00  0.00     0.211 HD
ENDBRANCH  18  19
BRANCH  18  21
HETATM   21  C19 UNL     1     -37.494   5.655  21.612  1.00  0.00     0.012 C 
HETATM   22  C20 UNL     1     -36.776   6.731  21.469  1.00  0.00     0.011 C 
BRANCH  22  23
HETATM   23  C21 UNL     1     -37.170   7.935  20.752  1.00  0.00    -0.021 A 
HETATM   24  C22 UNL     1     -38.198   7.948  19.833  1.00  0.00     0.012 A 
HETATM   25  C23 UNL     1     -38.558   9.119  19.154  1.00  0.00     0.001 A 
HETATM   26  C24 UNL     1     -37.901  10.308  19.372  1.00  0.00     0.001 A 
HETATM   27  C25 UNL     1     -36.873  10.303  20.287  1.00  0.00     0.017 A 
HETATM   28  C26 UNL     1     -36.519   9.129  20.963  1.00  0.00     0.058 A 
BRANCH  28  29
HETATM   29  C27 UNL     1     -35.400   9.159  21.953  1.00  0.00     0.418 C 
HETATM   30  F1  UNL     1     -35.818   9.311  23.243  1.00  0.00    -0.166 F 
HETATM   31  F2  UNL     1     -34.502  10.184  21.603  1.00  0.00    -0.166 F 
HETATM   32  F3  UNL     1     -34.645   8.003  21.876  1.00  0.00    -0.166 F 
ENDBRANCH  28  29
ENDBRANCH  22  23
ENDBRANCH  18  21
BRANCH   9  33
HETATM   33  O1  UNL     1     -28.286   1.996  19.226  1.00  0.00    -0.361 OA
ATOM     34  H1  UNL     1     -27.903   2.009  18.357  1.00  0.00     0.217 HD
ENDBRANCH   9  33
TORSDOF 5
ENDMDL
