MODEL 3
REMARK VINA RESULT: -10.626859966      3.189      8.052
REMARK  5 active torsions:
REMARK  status: ('A' for Active; 'I' for Inactive)
REMARK    1  A    between atoms: C9_9  and  O1_10 
REMARK    2  A    between atoms: C18_20  and  O2_21 
REMARK    3  A    between atoms: C18_20  and  C19_23 
REMARK    4  A    between atoms: C20_24  and  C21_25 
REMARK    5  A    between atoms: C26_30  and  C27_31 
ROOT
HETATM    1  C1  UNL     1     -36.825   8.423  23.276  1.00  0.00     0.019 C 
HETATM    2  C2  UNL     1     -36.089   7.696  22.184  1.00  0.00    -0.005 C 
HETATM    3  C3  UNL     1     -34.952   8.469  21.624  1.00  0.00     0.013 C 
HETATM    4  C4  UNL     1     -35.468   9.710  20.963  1.00  0.00     0.010 C 
HETATM    5  C5  UNL     1     -36.518   9.423  19.939  1.00  0.00     0.023 C 
HETATM    6  C6  UNL     1     -37.145  10.654  19.440  1.00  0.00    -0.047 A 
HETATM    7  C7  UNL     1     -36.740  11.910  19.778  1.00  0.00     0.011 A 
HETATM    8  C8  UNL     1     -37.415  12.996  19.239  1.00  0.00     0.037 A 
HETATM    9  C9  UNL     1     -38.485  12.810  18.369  1.00  0.00     0.066 A 
HETATM   10  C10 UNL     1     -38.901  11.530  18.022  1.00  0.00     0.044 A 
HETATM   11  C11 UNL     1     -38.224  10.484  18.563  1.00  0.00    -0.049 A 
HETATM   12  C12 UNL     1     -38.583   9.073  18.259  1.00  0.00     0.039 C 
HETATM   13  C13 UNL     1     -38.676   8.259  19.507  1.00  0.00     0.010 C 
HETATM   14  C14 UNL     1     -37.646   8.572  20.538  1.00  0.00    -0.001 C 
HETATM   15  C15 UNL     1     -37.008   7.319  21.027  1.00  0.00     0.002 C 
HETATM   16  C16 UNL     1     -37.916   6.328  21.650  1.00  0.00     0.009 C 
HETATM   17  C17 UNL     1     -37.066   5.633  22.722  1.00  0.00     0.043 C 
HETATM   18  C18 UNL     1     -35.727   6.330  22.702  1.00  0.00     0.083 C 
ENDROOT
BRANCH  18  19
HETATM   19  O2  UNL     1     -35.229   6.386  24.014  1.00  0.00    -0.385 OA
ATOM     20  H2  UNL     1     -34.631   7.115  24.134  1.00  0.00     0.211 HD
ENDBRANCH  18  19
BRANCH  18  21
HETATM   21  C19 UNL     1     -34.735   5.637  21.842  1.00  0.00     0.012 C 
HETATM   22  C20 UNL     1     -34.701   4.353  21.639  1.00  0.00     0.011 C 
BRANCH  22  23
HETATM   23  C21 UNL     1     -33.743   3.642  20.803  1.00  0.00    -0.021 A 
HETATM   24  C22 UNL     1     -32.396   3.595  21.095  1.00  0.00     0.012 A 
HETATM   25  C23 UNL     1     -31.494   2.906  20.275  1.00  0.00     0.001 A 
HETATM   26  C24 UNL     1     -31.910   2.245  19.142  1.00  0.00     0.001 A 
HETATM   27  C25 UNL     1     -33.253   2.287  18.844  1.00  0.00     0.017 A 
HETATM   28  C26 UNL     1     -34.150   2.978  19.669  1.00  0.00     0.058 A 
BRANCH  28  29
HETATM   29  C27 UNL     1     -35.603   3.001  19.318  1.00  0.00     0.418 C 
HETATM   30  F1  UNL     1     -36.119   4.261  19.222  1.00  0.00    -0.166 F 
HETATM   31  F2  UNL     1     -36.318   2.249  20.268  1.00  0.00    -0.166 F 
HETATM   32  F3  UNL     1     -35.831   2.347  18.122  1.00  0.00    -0.166 F 
ENDBRANCH  28  29
ENDBRANCH  22  23
ENDBRANCH  18  21
BRANCH   9  33
HETATM   33  O1  UNL     1     -39.172  13.884  17.821  1.00  0.00    -0.361 OA
ATOM     34  H1  UNL     1     -39.728  14.442  18.351  1.00  0.00     0.217 HD
ENDBRANCH   9  33
TORSDOF 5
ENDMDL
