MODEL 1
REMARK VINA RESULT: -12.703156700      0.000      0.000
REMARK  5 active torsions:
REMARK  status: ('A' for Active; 'I' for Inactive)
REMARK    1  A    between atoms: C9_9  and  O1_10 
REMARK    2  A    between atoms: C18_20  and  O2_21 
REMARK    3  A    between atoms: C18_20  and  C19_23 
REMARK    4  A    between atoms: C20_24  and  C21_25 
REMARK    5  A    between atoms: C26_30  and  C27_31 
ROOT
HETATM    1  C1  UNL     1     -35.960   1.400  20.993  1.00  0.00     0.019 C 
HETATM    2  C2  UNL     1     -36.123   2.885  20.821  1.00  0.00    -0.005 C 
HETATM    3  C3  UNL     1     -35.891   3.346  19.429  1.00  0.00     0.013 C 
HETATM    4  C4  UNL     1     -34.468   3.080  19.045  1.00  0.00     0.010 C 
HETATM    5  C5  UNL     1     -33.491   3.672  20.010  1.00  0.00     0.023 C 
HETATM    6  C6  UNL     1     -32.115   3.243  19.725  1.00  0.00    -0.047 A 
HETATM    7  C7  UNL     1     -31.754   2.496  18.646  1.00  0.00     0.011 A 
HETATM    8  C8  UNL     1     -30.419   2.154  18.487  1.00  0.00     0.037 A 
HETATM    9  C9  UNL     1     -29.463   2.566  19.410  1.00  0.00     0.066 A 
HETATM   10  C10 UNL     1     -29.828   3.329  20.513  1.00  0.00     0.044 A 
HETATM   11  C11 UNL     1     -31.141   3.650  20.645  1.00  0.00    -0.049 A 
HETATM   12  C12 UNL     1     -31.640   4.463  21.786  1.00  0.00     0.039 C 
HETATM   13  C13 UNL     1     -32.845   3.839  22.409  1.00  0.00     0.010 C 
HETATM   14  C14 UNL     1     -33.800   3.221  21.444  1.00  0.00    -0.001 C 
HETATM   15  C15 UNL     1     -35.188   3.673  21.733  1.00  0.00     0.002 C 
HETATM   16  C16 UNL     1     -35.710   3.349  23.081  1.00  0.00     0.009 C 
HETATM   17  C17 UNL     1     -37.216   3.134  22.881  1.00  0.00     0.043 C 
HETATM   18  C18 UNL     1     -37.458   3.273  21.397  1.00  0.00     0.083 C 
ENDROOT
BRANCH  18  19
HETATM   19  O2  UNL     1     -38.469   2.373  21.021  1.00  0.00    -0.385 OA
ATOM     20  H2  UNL     1     -38.436   1.572  21.531  1.00  0.00     0.211 HD
ENDBRANCH  18  19
BRANCH  18  21
HETATM   21  C19 UNL     1     -37.870   4.646  21.012  1.00  0.00     0.012 C 
HETATM   22  C20 UNL     1     -37.074   5.674  20.973  1.00  0.00     0.011 C 
BRANCH  22  23
HETATM   23  C21 UNL     1     -37.444   7.032  20.601  1.00  0.00    -0.021 A 
HETATM   24  C22 UNL     1     -38.496   7.308  19.752  1.00  0.00     0.012 A 
HETATM   25  C23 UNL     1     -38.833   8.623  19.408  1.00  0.00     0.001 A 
HETATM   26  C24 UNL     1     -38.129   9.698  19.899  1.00  0.00     0.001 A 
HETATM   27  C25 UNL     1     -37.077   9.431  20.744  1.00  0.00     0.017 A 
HETATM   28  C26 UNL     1     -36.746   8.114  21.086  1.00  0.00     0.058 A 
BRANCH  28  29
HETATM   29  C27 UNL     1     -35.600   7.859  22.010  1.00  0.00     0.418 C 
HETATM   30  F1  UNL     1     -34.751   6.885  21.568  1.00  0.00    -0.166 F 
HETATM   31  F2  UNL     1     -36.099   7.534  23.285  1.00  0.00    -0.166 F 
HETATM   32  F3  UNL     1     -34.867   9.013  22.214  1.00  0.00    -0.166 F 
ENDBRANCH  28  29
ENDBRANCH  22  23
ENDBRANCH  18  21
BRANCH   9  33
HETATM   33  O1  UNL     1     -28.123   2.233  19.268  1.00  0.00    -0.361 OA
ATOM     34  H1  UNL     1     -27.433   2.797  19.596  1.00  0.00     0.217 HD
ENDBRANCH   9  33
TORSDOF 5
ENDMDL
