MODEL 1
REMARK VINA RESULT: -9.306619177      0.000      0.000
REMARK  11 active torsions:
REMARK  status: ('A' for Active; 'I' for Inactive)
REMARK    1  A    between atoms: N1_2  and  C2_3 
REMARK    2  A    between atoms: N1_2  and  C12_13 
REMARK    3  A    between atoms: C2_3  and  C3_4 
REMARK    4  A    between atoms: C3_4  and  C4_5 
REMARK    5  A    between atoms: C4_5  and  C5_6 
REMARK    6  A    between atoms: C5_6  and  C6_7 
REMARK    7  A    between atoms: C12_13  and  C13_14 
REMARK    8  A    between atoms: C13_14  and  C14_15 
REMARK    9  A    between atoms: C14_15  and  O1_16 
REMARK   10  A    between atoms: C14_15  and  P1_18 
REMARK   11  A    between atoms: C14_15  and  P2_22 
ROOT
HETATM    1  C12 UNL     1      70.586  36.270   0.121  1.00  0.00     0.276 C 
ENDROOT
BRANCH   1   2
HETATM    2  N1  UNL     1      71.075  37.566  -0.307  1.00  0.00     0.084 N 
HETATM    3  C1  UNL     1      71.063  38.536   0.757  1.00  0.00     0.309 C 
BRANCH   2   4
HETATM    4  C2  UNL     1      72.325  37.478  -1.008  1.00  0.00     0.271 C 
BRANCH   4   5
HETATM    5  C3  UNL     1      72.441  38.418  -2.157  1.00  0.00     0.030 C 
BRANCH   5   6
HETATM    6  C4  UNL     1      71.239  38.394  -3.063  1.00  0.00     0.006 C 
BRANCH   6   7
HETATM    7  C5  UNL     1      71.089  39.671  -3.819  1.00  0.00     0.038 C 
BRANCH   7   8
HETATM    8  C6  UNL     1      71.422  39.500  -5.270  1.00  0.00    -0.058 A 
HETATM    9  C7  UNL     1      71.355  38.275  -5.892  1.00  0.00     0.007 A 
HETATM   10  C8  UNL     1      71.667  38.142  -7.246  1.00  0.00     0.001 A 
HETATM   11  C9  UNL     1      72.052  39.220  -8.005  1.00  0.00     0.000 A 
HETATM   12  C10 UNL     1      72.119  40.454  -7.376  1.00  0.00     0.001 A 
HETATM   13  C11 UNL     1      71.808  40.573  -6.039  1.00  0.00     0.007 A 
ENDBRANCH   7   8
ENDBRANCH   6   7
ENDBRANCH   5   6
ENDBRANCH   4   5
ENDBRANCH   2   4
ENDBRANCH   1   2
BRANCH   1  14
HETATM   14  C13 UNL     1      71.630  35.248  -0.170  1.00  0.00     0.098 C 
BRANCH  14  15
HETATM   15  C14 UNL     1      72.075  34.433   1.009  1.00  0.00     0.286 C 
BRANCH  15  16
HETATM   16  O1  UNL     1      71.778  35.234   2.143  1.00  0.00    -0.365 OA
ATOM     17  H1  UNL     1      72.441  35.009   2.785  1.00  0.00     0.212 HD
ENDBRANCH  15  16
BRANCH  15  18
HETATM   18  P1  UNL     1      71.170  32.911   1.244  1.00  0.00     0.310 P 
HETATM   19  O2  UNL     1      71.631  32.289   2.545  1.00  0.00    -0.637 OA
HETATM   20  O3  UNL     1      69.525  33.321   1.473  1.00  0.00    -0.637 OA
HETATM   21  O4  UNL     1      71.263  31.823  -0.012  1.00  0.00    -0.637 OA
ENDBRANCH  15  18
BRANCH  15  22
HETATM   22  P2  UNL     1      73.867  34.193   1.027  1.00  0.00     0.310 P 
HETATM   23  O5  UNL     1      74.458  34.984  -0.113  1.00  0.00    -0.637 OA
HETATM   24  O6  UNL     1      74.525  34.812   2.459  1.00  0.00    -0.637 OA
HETATM   25  O7  UNL     1      74.296  32.580   0.816  1.00  0.00    -0.637 OA
ENDBRANCH  15  22
ENDBRANCH  14  15
ENDBRANCH   1  14
TORSDOF 11
ENDMDL
