MODEL 3
REMARK VINA RESULT: -9.136700234      0.507      1.708
REMARK  11 active torsions:
REMARK  status: ('A' for Active; 'I' for Inactive)
REMARK    1  A    between atoms: N1_2  and  C2_3 
REMARK    2  A    between atoms: N1_2  and  C12_13 
REMARK    3  A    between atoms: C2_3  and  C3_4 
REMARK    4  A    between atoms: C3_4  and  C4_5 
REMARK    5  A    between atoms: C4_5  and  C5_6 
REMARK    6  A    between atoms: C5_6  and  C6_7 
REMARK    7  A    between atoms: C12_13  and  C13_14 
REMARK    8  A    between atoms: C13_14  and  C14_15 
REMARK    9  A    between atoms: C14_15  and  O1_16 
REMARK   10  A    between atoms: C14_15  and  P1_18 
REMARK   11  A    between atoms: C14_15  and  P2_22 
ROOT
HETATM    1  C12 UNL     1      70.389  36.547   0.239  1.00  0.00     0.276 C 
ENDROOT
BRANCH   1   2
HETATM    2  N1  UNL     1      70.941  37.744  -0.362  1.00  0.00     0.084 N 
HETATM    3  C1  UNL     1      71.784  38.477   0.547  1.00  0.00     0.309 C 
BRANCH   2   4
HETATM    4  C2  UNL     1      71.539  37.491  -1.643  1.00  0.00     0.271 C 
BRANCH   4   5
HETATM    5  C3  UNL     1      72.632  38.437  -1.997  1.00  0.00     0.030 C 
BRANCH   5   6
HETATM    6  C4  UNL     1      72.154  39.625  -2.788  1.00  0.00     0.006 C 
BRANCH   6   7
HETATM    7  C5  UNL     1      70.998  39.279  -3.664  1.00  0.00     0.038 C 
BRANCH   7   8
HETATM    8  C6  UNL     1      71.367  39.326  -5.116  1.00  0.00    -0.058 A 
HETATM    9  C7  UNL     1      71.737  40.498  -5.733  1.00  0.00     0.007 A 
HETATM   10  C8  UNL     1      72.079  40.516  -7.087  1.00  0.00     0.001 A 
HETATM   11  C9  UNL     1      72.058  39.374  -7.850  1.00  0.00     0.000 A 
HETATM   12  C10 UNL     1      71.684  38.194  -7.224  1.00  0.00     0.001 A 
HETATM   13  C11 UNL     1      71.350  38.188  -5.888  1.00  0.00     0.007 A 
ENDBRANCH   7   8
ENDBRANCH   6   7
ENDBRANCH   5   6
ENDBRANCH   4   5
ENDBRANCH   2   4
ENDBRANCH   1   2
BRANCH   1  14
HETATM   14  C13 UNL     1      71.213  35.379  -0.182  1.00  0.00     0.098 C 
BRANCH  14  15
HETATM   15  C14 UNL     1      71.823  34.588   0.938  1.00  0.00     0.286 C 
BRANCH  15  16
HETATM   16  O1  UNL     1      71.652  35.395   2.094  1.00  0.00    -0.365 OA
ATOM     17  H1  UNL     1      72.030  36.236   1.865  1.00  0.00     0.212 HD
ENDBRANCH  15  16
BRANCH  15  18
HETATM   18  P1  UNL     1      70.989  33.049   1.300  1.00  0.00     0.310 P 
HETATM   19  O2  UNL     1      69.549  33.367   1.639  1.00  0.00    -0.637 OA
HETATM   20  O3  UNL     1      70.943  32.137  -0.147  1.00  0.00    -0.637 OA
HETATM   21  O4  UNL     1      71.696  32.114   2.481  1.00  0.00    -0.637 OA
ENDBRANCH  15  18
BRANCH  15  22
HETATM   22  P2  UNL     1      73.607  34.386   0.733  1.00  0.00     0.310 P 
HETATM   23  O5  UNL     1      74.263  34.629   2.069  1.00  0.00    -0.637 OA
HETATM   24  O6  UNL     1      73.968  32.795   0.281  1.00  0.00    -0.637 OA
HETATM   25  O7  UNL     1      74.250  35.484  -0.368  1.00  0.00    -0.637 OA
ENDBRANCH  15  22
ENDBRANCH  14  15
ENDBRANCH   1  14
TORSDOF 11
ENDMDL
