MODEL 2
REMARK VINA RESULT: -9.283682105      0.548      1.110
REMARK  11 active torsions:
REMARK  status: ('A' for Active; 'I' for Inactive)
REMARK    1  A    between atoms: N1_2  and  C2_3 
REMARK    2  A    between atoms: N1_2  and  C12_13 
REMARK    3  A    between atoms: C2_3  and  C3_4 
REMARK    4  A    between atoms: C3_4  and  C4_5 
REMARK    5  A    between atoms: C4_5  and  C5_6 
REMARK    6  A    between atoms: C5_6  and  C6_7 
REMARK    7  A    between atoms: C12_13  and  C13_14 
REMARK    8  A    between atoms: C13_14  and  C14_15 
REMARK    9  A    between atoms: C14_15  and  O1_16 
REMARK   10  A    between atoms: C14_15  and  P1_18 
REMARK   11  A    between atoms: C14_15  and  P2_22 
ROOT
HETATM    1  C12 UNL     1      70.375  36.511   0.090  1.00  0.00     0.276 C 
ENDROOT
BRANCH   1   2
HETATM    2  N1  UNL     1      70.842  37.778  -0.435  1.00  0.00     0.084 N 
HETATM    3  C1  UNL     1      71.289  38.671   0.603  1.00  0.00     0.309 C 
BRANCH   2   4
HETATM    4  C2  UNL     1      71.776  37.617  -1.514  1.00  0.00     0.271 C 
BRANCH   4   5
HETATM    5  C3  UNL     1      72.079  38.878  -2.244  1.00  0.00     0.030 C 
BRANCH   5   6
HETATM    6  C4  UNL     1      71.135  39.141  -3.387  1.00  0.00     0.006 C 
BRANCH   6   7
HETATM    7  C5  UNL     1      71.290  38.135  -4.477  1.00  0.00     0.038 C 
BRANCH   7   8
HETATM    8  C6  UNL     1      71.492  38.787  -5.811  1.00  0.00    -0.058 A 
HETATM    9  C7  UNL     1      71.802  40.122  -5.928  1.00  0.00     0.007 A 
HETATM   10  C8  UNL     1      71.988  40.707  -7.183  1.00  0.00     0.001 A 
HETATM   11  C9  UNL     1      71.869  39.978  -8.341  1.00  0.00     0.000 A 
HETATM   12  C10 UNL     1      71.556  38.632  -8.219  1.00  0.00     0.001 A 
HETATM   13  C11 UNL     1      71.375  38.066  -6.977  1.00  0.00     0.007 A 
ENDBRANCH   7   8
ENDBRANCH   6   7
ENDBRANCH   5   6
ENDBRANCH   4   5
ENDBRANCH   2   4
ENDBRANCH   1   2
BRANCH   1  14
HETATM   14  C13 UNL     1      71.357  35.452  -0.279  1.00  0.00     0.098 C 
BRANCH  14  15
HETATM   15  C14 UNL     1      71.885  34.641   0.868  1.00  0.00     0.286 C 
BRANCH  15  16
HETATM   16  O1  UNL     1      71.652  35.437   2.021  1.00  0.00    -0.365 OA
ATOM     17  H1  UNL     1      71.721  34.836   2.753  1.00  0.00     0.212 HD
ENDBRANCH  15  16
BRANCH  15  18
HETATM   18  P1  UNL     1      71.013  33.109   1.157  1.00  0.00     0.310 P 
HETATM   19  O2  UNL     1      71.582  32.476   2.409  1.00  0.00    -0.637 OA
HETATM   20  O3  UNL     1      69.389  33.502   1.522  1.00  0.00    -0.637 OA
HETATM   21  O4  UNL     1      71.014  32.036  -0.115  1.00  0.00    -0.637 OA
ENDBRANCH  15  18
BRANCH  15  22
HETATM   22  P2  UNL     1      73.677  34.420   0.773  1.00  0.00     0.310 P 
HETATM   23  O5  UNL     1      74.200  35.303  -0.333  1.00  0.00    -0.637 OA
HETATM   24  O6  UNL     1      74.407  34.935   2.211  1.00  0.00    -0.637 OA
HETATM   25  O7  UNL     1      74.105  32.833   0.415  1.00  0.00    -0.637 OA
ENDBRANCH  15  22
ENDBRANCH  14  15
ENDBRANCH   1  14
TORSDOF 11
ENDMDL
