MODEL 5
REMARK VINA RESULT: -9.071379387      0.915      2.793
REMARK  11 active torsions:
REMARK  status: ('A' for Active; 'I' for Inactive)
REMARK    1  A    between atoms: N1_2  and  C2_3 
REMARK    2  A    between atoms: N1_2  and  C12_13 
REMARK    3  A    between atoms: C2_3  and  C3_4 
REMARK    4  A    between atoms: C3_4  and  C4_5 
REMARK    5  A    between atoms: C4_5  and  C5_6 
REMARK    6  A    between atoms: C5_6  and  C6_7 
REMARK    7  A    between atoms: C12_13  and  C13_14 
REMARK    8  A    between atoms: C13_14  and  C14_15 
REMARK    9  A    between atoms: C14_15  and  O1_16 
REMARK   10  A    between atoms: C14_15  and  P1_18 
REMARK   11  A    between atoms: C14_15  and  P2_22 
ROOT
HETATM    1  C12 UNL     1      72.164  36.985   0.937  1.00  0.00     0.276 C 
ENDROOT
BRANCH   1   2
HETATM    2  N1  UNL     1      70.982  37.685   0.476  1.00  0.00     0.084 N 
HETATM    3  C1  UNL     1      70.362  38.462   1.518  1.00  0.00     0.309 C 
BRANCH   2   4
HETATM    4  C2  UNL     1      71.212  38.412  -0.742  1.00  0.00     0.271 C 
BRANCH   4   5
HETATM    5  C3  UNL     1      70.581  37.797  -1.941  1.00  0.00     0.030 C 
BRANCH   5   6
HETATM    6  C4  UNL     1      71.385  37.992  -3.199  1.00  0.00     0.006 C 
BRANCH   6   7
HETATM    7  C5  UNL     1      71.199  39.356  -3.770  1.00  0.00     0.038 C 
BRANCH   7   8
HETATM    8  C6  UNL     1      71.462  39.382  -5.245  1.00  0.00    -0.058 A 
HETATM    9  C7  UNL     1      71.803  40.542  -5.902  1.00  0.00     0.007 A 
HETATM   10  C8  UNL     1      72.046  40.540  -7.277  1.00  0.00     0.001 A 
HETATM   11  C9  UNL     1      71.954  39.389  -8.023  1.00  0.00     0.000 A 
HETATM   12  C10 UNL     1      71.610  38.222  -7.357  1.00  0.00     0.001 A 
HETATM   13  C11 UNL     1      71.373  38.236  -6.001  1.00  0.00     0.007 A 
ENDBRANCH   7   8
ENDBRANCH   6   7
ENDBRANCH   5   6
ENDBRANCH   4   5
ENDBRANCH   2   4
ENDBRANCH   1   2
BRANCH   1  14
HETATM   14  C13 UNL     1      71.743  35.702   1.566  1.00  0.00     0.098 C 
BRANCH  14  15
HETATM   15  C14 UNL     1      72.154  34.462   0.829  1.00  0.00     0.286 C 
BRANCH  15  16
HETATM   16  O1  UNL     1      71.903  34.747  -0.540  1.00  0.00    -0.365 OA
ATOM     17  H1  UNL     1      71.197  34.162  -0.787  1.00  0.00     0.212 HD
ENDBRANCH  15  16
BRANCH  15  18
HETATM   18  P1  UNL     1      73.897  34.082   0.929  1.00  0.00     0.310 P 
HETATM   19  O2  UNL     1      74.611  34.874  -0.146  1.00  0.00    -0.637 OA
HETATM   20  O3  UNL     1      74.471  34.688   2.422  1.00  0.00    -0.637 OA
HETATM   21  O4  UNL     1      74.282  32.465   0.843  1.00  0.00    -0.637 OA
ENDBRANCH  15  18
BRANCH  15  22
HETATM   22  P2  UNL     1      71.105  33.049   1.242  1.00  0.00     0.310 P 
HETATM   23  O5  UNL     1      69.707  33.560   1.489  1.00  0.00    -0.637 OA
HETATM   24  O6  UNL     1      71.022  31.979  -0.068  1.00  0.00    -0.637 OA
HETATM   25  O7  UNL     1      71.620  32.257   2.634  1.00  0.00    -0.637 OA
ENDBRANCH  15  22
ENDBRANCH  14  15
ENDBRANCH   1  14
TORSDOF 11
ENDMDL
