MODEL 4
REMARK VINA RESULT: -9.103631576      0.911      2.589
REMARK  11 active torsions:
REMARK  status: ('A' for Active; 'I' for Inactive)
REMARK    1  A    between atoms: N1_2  and  C2_3 
REMARK    2  A    between atoms: N1_2  and  C12_13 
REMARK    3  A    between atoms: C2_3  and  C3_4 
REMARK    4  A    between atoms: C3_4  and  C4_5 
REMARK    5  A    between atoms: C4_5  and  C5_6 
REMARK    6  A    between atoms: C5_6  and  C6_7 
REMARK    7  A    between atoms: C12_13  and  C13_14 
REMARK    8  A    between atoms: C13_14  and  C14_15 
REMARK    9  A    between atoms: C14_15  and  O1_16 
REMARK   10  A    between atoms: C14_15  and  P1_18 
REMARK   11  A    between atoms: C14_15  and  P2_22 
ROOT
HETATM    1  C12 UNL     1      72.187  36.993   0.886  1.00  0.00     0.276 C 
ENDROOT
BRANCH   1   2
HETATM    2  N1  UNL     1      70.978  37.686   0.490  1.00  0.00     0.084 N 
HETATM    3  C1  UNL     1      70.358  38.382   1.588  1.00  0.00     0.309 C 
BRANCH   2   4
HETATM    4  C2  UNL     1      71.165  38.492  -0.685  1.00  0.00     0.271 C 
BRANCH   4   5
HETATM    5  C3  UNL     1      70.768  37.817  -1.950  1.00  0.00     0.030 C 
BRANCH   5   6
HETATM    6  C4  UNL     1      71.650  38.177  -3.115  1.00  0.00     0.006 C 
BRANCH   6   7
HETATM    7  C5  UNL     1      71.194  39.426  -3.790  1.00  0.00     0.038 C 
BRANCH   7   8
HETATM    8  C6  UNL     1      71.458  39.390  -5.265  1.00  0.00    -0.058 A 
HETATM    9  C7  UNL     1      71.381  38.222  -5.988  1.00  0.00     0.007 A 
HETATM   10  C8  UNL     1      71.629  38.214  -7.362  1.00  0.00     0.001 A 
HETATM   11  C9  UNL     1      71.959  39.362  -8.041  1.00  0.00     0.000 A 
HETATM   12  C10 UNL     1      72.037  40.538  -7.308  1.00  0.00     0.001 A 
HETATM   13  C11 UNL     1      71.789  40.534  -5.954  1.00  0.00     0.007 A 
ENDBRANCH   7   8
ENDBRANCH   6   7
ENDBRANCH   5   6
ENDBRANCH   4   5
ENDBRANCH   2   4
ENDBRANCH   1   2
BRANCH   1  14
HETATM   14  C13 UNL     1      71.807  35.708   1.538  1.00  0.00     0.098 C 
BRANCH  14  15
HETATM   15  C14 UNL     1      72.223  34.469   0.802  1.00  0.00     0.286 C 
BRANCH  15  16
HETATM   16  O1  UNL     1      72.005  34.765  -0.570  1.00  0.00    -0.365 OA
ATOM     17  H1  UNL     1      72.629  34.225  -1.041  1.00  0.00     0.212 HD
ENDBRANCH  15  16
BRANCH  15  18
HETATM   18  P1  UNL     1      73.960  34.072   0.938  1.00  0.00     0.310 P 
HETATM   19  O2  UNL     1      74.702  34.854  -0.124  1.00  0.00    -0.637 OA
HETATM   20  O3  UNL     1      74.510  34.676   2.441  1.00  0.00    -0.637 OA
HETATM   21  O4  UNL     1      74.330  32.451   0.863  1.00  0.00    -0.637 OA
ENDBRANCH  15  18
BRANCH  15  22
HETATM   22  P2  UNL     1      71.152  33.064   1.183  1.00  0.00     0.310 P 
HETATM   23  O5  UNL     1      71.600  32.476   2.498  1.00  0.00    -0.637 OA
HETATM   24  O6  UNL     1      69.554  33.584   1.387  1.00  0.00    -0.637 OA
HETATM   25  O7  UNL     1      71.246  31.855   0.016  1.00  0.00    -0.637 OA
ENDBRANCH  15  22
ENDBRANCH  14  15
ENDBRANCH   1  14
TORSDOF 11
ENDMDL
