MODEL 1
REMARK VINA RESULT: -10.863822367      0.000      0.000
REMARK  7 active torsions:
REMARK  status: ('A' for Active; 'I' for Inactive)
REMARK    1  A    between atoms: N1_1  and  C1_5 
REMARK    2  A    between atoms: C1_5  and  C2_6 
REMARK    3  A    between atoms: C1_5  and  C14_28 
REMARK    4  A    between atoms: C2_6  and  C3_7 
REMARK    5  A    between atoms: C4_8  and  C5_9 
REMARK    6  A    between atoms: N4_13  and  C6_14 
REMARK    7  A    between atoms: C6_14  and  C7_15 
ROOT
HETATM    1  C3  UNL     1       6.123  24.594  21.140  1.00  0.00     0.054 A 
HETATM    2  C4  UNL     1       6.522  24.914  22.417  1.00  0.00     0.157 A 
HETATM    3  O1  UNL     1       5.693  24.313  23.234  1.00  0.00    -0.230 OA
HETATM    4  N6  UNL     1       4.794  23.634  22.632  1.00  0.00    -0.225 N 
ATOM      5  H6  UNL     1       4.052  23.090  23.074  1.00  0.00     0.198 HD
HETATM    6  C13 UNL     1       5.003  23.766  21.317  1.00  0.00     0.274 A 
HETATM    7  O2  UNL     1       4.336  23.254  20.376  1.00  0.00    -0.266 OA
ENDROOT
BRANCH   2   8
HETATM    8  C5  UNL     1       7.656  25.768  22.804  1.00  0.00     0.171 A 
HETATM    9  N2  UNL     1       7.859  26.388  23.970  1.00  0.00    -0.264 N 
HETATM   10  N3  UNL     1       9.006  27.060  23.910  1.00  0.00    -0.002 NA
ATOM     11  H2  UNL     1       7.235  26.352  24.777  1.00  0.00     0.186 HD
HETATM   12  N4  UNL     1       9.555  26.888  22.720  1.00  0.00    -0.212 N 
HETATM   13  N5  UNL     1       8.721  26.097  22.052  1.00  0.00    -0.267 N 
ATOM     14  H5  UNL     1       8.870  25.779  21.094  1.00  0.00     0.190 HD
BRANCH  12  15
HETATM   15  C6  UNL     1      10.821  27.445  22.216  1.00  0.00     0.205 C 
BRANCH  15  16
HETATM   16  C7  UNL     1      11.392  28.327  23.247  1.00  0.00    -0.037 A 
HETATM   17  C8  UNL     1      12.231  27.779  24.194  1.00  0.00     0.009 A 
HETATM   18  C9  UNL     1      12.760  28.602  25.158  1.00  0.00     0.001 A 
HETATM   19  C10 UNL     1      12.434  29.936  25.140  1.00  0.00     0.000 A 
HETATM   20  C11 UNL     1      11.603  30.508  24.211  1.00  0.00     0.001 A 
HETATM   21  C12 UNL     1      11.076  29.663  23.243  1.00  0.00     0.009 A 
ENDBRANCH  15  16
ENDBRANCH  12  15
ENDBRANCH   2   8
BRANCH   1  22
HETATM   22  C2  UNL     1       6.712  24.991  19.858  1.00  0.00     0.091 C 
BRANCH  22  23
HETATM   23  C1  UNL     1       7.652  23.996  19.253  1.00  0.00     0.287 C 
BRANCH  23  24
HETATM   24  N1  UNL     1       9.019  24.543  19.300  1.00  0.00    -0.065 N 
ATOM     25  H13 UNL     1       9.041  25.509  19.625  1.00  0.00     0.275 HD
ATOM     26  H12 UNL     1       9.579  24.129  20.046  1.00  0.00     0.275 HD
ATOM     27  H11 UNL     1       9.451  24.431  18.382  1.00  0.00     0.275 HD
ENDBRANCH  23  24
BRANCH  23  28
HETATM   28  C14 UNL     1       7.314  23.833  17.792  1.00  0.00     0.204 C 
HETATM   29  O3  UNL     1       6.158  23.569  17.439  1.00  0.00    -0.646 OA
HETATM   30  O4  UNL     1       8.288  23.971  16.795  1.00  0.00    -0.646 OA
ENDBRANCH  23  28
ENDBRANCH  22  23
ENDBRANCH   1  22
TORSDOF 7
ENDMDL
