MODEL 2
REMARK VINA RESULT: -10.096395400      1.000      1.397
REMARK  7 active torsions:
REMARK  status: ('A' for Active; 'I' for Inactive)
REMARK    1  A    between atoms: N1_1  and  C1_5 
REMARK    2  A    between atoms: C1_5  and  C2_6 
REMARK    3  A    between atoms: C1_5  and  C14_28 
REMARK    4  A    between atoms: C2_6  and  C3_7 
REMARK    5  A    between atoms: C4_8  and  C5_9 
REMARK    6  A    between atoms: N4_13  and  C6_14 
REMARK    7  A    between atoms: C6_14  and  C7_15 
ROOT
HETATM    1  C3  UNL     1       6.695  24.934  21.316  1.00  0.00     0.054 A 
HETATM    2  C4  UNL     1       7.390  25.476  22.372  1.00  0.00     0.157 A 
HETATM    3  O1  UNL     1       6.828  25.025  23.466  1.00  0.00    -0.230 OA
HETATM    4  N6  UNL     1       5.840  24.247  23.243  1.00  0.00    -0.225 N 
ATOM      5  H6  UNL     1       5.263  23.787  23.948  1.00  0.00     0.198 HD
HETATM    6  C13 UNL     1       5.699  24.145  21.916  1.00  0.00     0.274 A 
HETATM    7  O2  UNL     1       4.841  23.473  21.282  1.00  0.00    -0.266 OA
ENDROOT
BRANCH   2   8
HETATM    8  C5  UNL     1       8.541  26.389  22.300  1.00  0.00     0.171 A 
HETATM    9  N2  UNL     1       9.692  26.213  21.643  1.00  0.00    -0.264 N 
HETATM   10  N3  UNL     1      10.468  27.275  21.836  1.00  0.00    -0.002 NA
ATOM     11  H2  UNL     1       9.935  25.394  21.084  1.00  0.00     0.186 HD
HETATM   12  N4  UNL     1       9.842  28.144  22.611  1.00  0.00    -0.212 N 
HETATM   13  N5  UNL     1       8.665  27.592  22.888  1.00  0.00    -0.267 N 
ATOM     14  H5  UNL     1       7.948  28.024  23.471  1.00  0.00     0.190 HD
BRANCH  12  15
HETATM   15  C6  UNL     1      10.323  29.453  23.081  1.00  0.00     0.205 C 
BRANCH  15  16
HETATM   16  C7  UNL     1      11.440  29.237  24.015  1.00  0.00    -0.037 A 
HETATM   17  C8  UNL     1      12.148  28.057  23.936  1.00  0.00     0.009 A 
HETATM   18  C9  UNL     1      13.188  27.854  24.810  1.00  0.00     0.001 A 
HETATM   19  C10 UNL     1      13.481  28.834  25.728  1.00  0.00     0.000 A 
HETATM   20  C11 UNL     1      12.795  30.016  25.829  1.00  0.00     0.001 A 
HETATM   21  C12 UNL     1      11.746  30.207  24.938  1.00  0.00     0.009 A 
ENDBRANCH  15  16
ENDBRANCH  12  15
ENDBRANCH   2   8
BRANCH   1  22
HETATM   22  C2  UNL     1       6.916  25.099  19.877  1.00  0.00     0.091 C 
BRANCH  22  23
HETATM   23  C1  UNL     1       7.708  24.011  19.224  1.00  0.00     0.287 C 
BRANCH  23  24
HETATM   24  N1  UNL     1       9.125  24.411  19.183  1.00  0.00    -0.065 N 
ATOM     25  H13 UNL     1       9.757  23.612  19.222  1.00  0.00     0.275 HD
ATOM     26  H12 UNL     1       9.403  24.767  18.268  1.00  0.00     0.275 HD
ATOM     27  H11 UNL     1       9.300  25.083  19.931  1.00  0.00     0.275 HD
ENDBRANCH  23  24
BRANCH  23  28
HETATM   28  C14 UNL     1       7.266  23.881  17.788  1.00  0.00     0.204 C 
HETATM   29  O3  UNL     1       6.082  23.647  17.513  1.00  0.00    -0.646 OA
HETATM   30  O4  UNL     1       8.170  24.018  16.727  1.00  0.00    -0.646 OA
ENDBRANCH  23  28
ENDBRANCH  22  23
ENDBRANCH   1  22
TORSDOF 7
ENDMDL
