MODEL 5
REMARK VINA RESULT: -9.444884915      1.066      1.500
REMARK  7 active torsions:
REMARK  status: ('A' for Active; 'I' for Inactive)
REMARK    1  A    between atoms: N1_1  and  C1_5 
REMARK    2  A    between atoms: C1_5  and  C2_6 
REMARK    3  A    between atoms: C1_5  and  C14_28 
REMARK    4  A    between atoms: C2_6  and  C3_7 
REMARK    5  A    between atoms: C4_8  and  C5_9 
REMARK    6  A    between atoms: N4_13  and  C6_14 
REMARK    7  A    between atoms: C6_14  and  C7_15 
ROOT
HETATM    1  C3  UNL     1       6.494  25.012  21.838  1.00  0.00     0.054 A 
HETATM    2  C4  UNL     1       7.175  25.514  22.922  1.00  0.00     0.157 A 
HETATM    3  O1  UNL     1       6.599  25.025  23.991  1.00  0.00    -0.230 OA
HETATM    4  N6  UNL     1       5.613  24.257  23.727  1.00  0.00    -0.225 N 
ATOM      5  H6  UNL     1       5.026  23.772  24.406  1.00  0.00     0.198 HD
HETATM    6  C13 UNL     1       5.490  24.204  22.395  1.00  0.00     0.274 A 
HETATM    7  O2  UNL     1       4.639  23.556  21.726  1.00  0.00    -0.266 OA
ENDROOT
BRANCH   2   8
HETATM    8  C5  UNL     1       8.328  26.428  22.899  1.00  0.00     0.171 A 
HETATM    9  N2  UNL     1       8.329  27.749  22.698  1.00  0.00    -0.264 N 
HETATM   10  N3  UNL     1       9.580  28.196  22.755  1.00  0.00    -0.002 NA
ATOM     11  H2  UNL     1       7.502  28.322  22.527  1.00  0.00     0.186 HD
HETATM   12  N4  UNL     1      10.399  27.185  22.990  1.00  0.00    -0.212 N 
HETATM   13  N5  UNL     1       9.623  26.110  23.076  1.00  0.00    -0.267 N 
ATOM     14  H5  UNL     1       9.965  25.165  23.255  1.00  0.00     0.190 HD
BRANCH  12  15
HETATM   15  C6  UNL     1      11.864  27.218  23.131  1.00  0.00     0.205 C 
BRANCH  15  16
HETATM   16  C7  UNL     1      12.217  28.212  24.157  1.00  0.00    -0.037 A 
HETATM   17  C8  UNL     1      11.431  29.337  24.283  1.00  0.00     0.009 A 
HETATM   18  C9  UNL     1      11.764  30.267  25.239  1.00  0.00     0.001 A 
HETATM   19  C10 UNL     1      12.864  30.038  26.029  1.00  0.00     0.000 A 
HETATM   20  C11 UNL     1      13.663  28.929  25.926  1.00  0.00     0.001 A 
HETATM   21  C12 UNL     1      13.314  27.998  24.955  1.00  0.00     0.009 A 
ENDBRANCH  15  16
ENDBRANCH  12  15
ENDBRANCH   2   8
BRANCH   1  22
HETATM   22  C2  UNL     1       6.735  25.230  20.409  1.00  0.00     0.091 C 
BRANCH  22  23
HETATM   23  C1  UNL     1       7.763  24.335  19.792  1.00  0.00     0.287 C 
BRANCH  23  24
HETATM   24  N1  UNL     1       9.016  25.092  19.627  1.00  0.00    -0.065 N 
ATOM     25  H13 UNL     1       9.276  25.206  18.648  1.00  0.00     0.275 HD
ATOM     26  H12 UNL     1       8.909  26.079  19.862  1.00  0.00     0.275 HD
ATOM     27  H11 UNL     1       9.750  24.639  20.173  1.00  0.00     0.275 HD
ENDBRANCH  23  24
BRANCH  23  28
HETATM   28  C14 UNL     1       7.312  23.962  18.402  1.00  0.00     0.204 C 
HETATM   29  O3  UNL     1       6.121  23.716  18.171  1.00  0.00    -0.646 OA
HETATM   30  O4  UNL     1       8.216  23.880  17.335  1.00  0.00    -0.646 OA
ENDBRANCH  23  28
ENDBRANCH  22  23
ENDBRANCH   1  22
TORSDOF 7
ENDMDL
