MODEL 4
REMARK VINA RESULT: -9.571707308      1.147      1.616
REMARK  7 active torsions:
REMARK  status: ('A' for Active; 'I' for Inactive)
REMARK    1  A    between atoms: N1_1  and  C1_5 
REMARK    2  A    between atoms: C1_5  and  C2_6 
REMARK    3  A    between atoms: C1_5  and  C14_28 
REMARK    4  A    between atoms: C2_6  and  C3_7 
REMARK    5  A    between atoms: C4_8  and  C5_9 
REMARK    6  A    between atoms: N4_13  and  C6_14 
REMARK    7  A    between atoms: C6_14  and  C7_15 
ROOT
HETATM    1  C3  UNL     1       5.370  24.607  21.821  1.00  0.00     0.054 A 
HETATM    2  C4  UNL     1       5.953  24.889  23.034  1.00  0.00     0.157 A 
HETATM    3  O1  UNL     1       5.178  24.373  23.956  1.00  0.00    -0.230 OA
HETATM    4  N6  UNL     1       4.150  23.784  23.479  1.00  0.00    -0.225 N 
ATOM      5  H6  UNL     1       3.420  23.315  24.016  1.00  0.00     0.198 HD
HETATM    6  C13 UNL     1       4.206  23.892  22.146  1.00  0.00     0.274 A 
HETATM    7  O2  UNL     1       3.381  23.445  21.302  1.00  0.00    -0.266 OA
ENDROOT
BRANCH   2   8
HETATM    8  C5  UNL     1       7.203  25.629  23.267  1.00  0.00     0.171 A 
HETATM    9  N2  UNL     1       7.645  26.159  24.411  1.00  0.00    -0.264 N 
HETATM   10  N3  UNL     1       8.820  26.745  24.192  1.00  0.00    -0.002 NA
ATOM     11  H2  UNL     1       7.161  26.120  25.308  1.00  0.00     0.186 HD
HETATM   12  N4  UNL     1       9.150  26.607  22.919  1.00  0.00    -0.212 N 
HETATM   13  N5  UNL     1       8.155  25.923  22.364  1.00  0.00    -0.267 N 
ATOM     14  H5  UNL     1       8.118  25.656  21.380  1.00  0.00     0.190 HD
BRANCH  12  15
HETATM   15  C6  UNL     1      10.360  27.096  22.238  1.00  0.00     0.205 C 
BRANCH  15  16
HETATM   16  C7  UNL     1      11.038  28.063  23.117  1.00  0.00    -0.037 A 
HETATM   17  C8  UNL     1      10.766  29.404  22.957  1.00  0.00     0.009 A 
HETATM   18  C9  UNL     1      11.403  30.306  23.775  1.00  0.00     0.001 A 
HETATM   19  C10 UNL     1      12.284  29.835  24.719  1.00  0.00     0.000 A 
HETATM   20  C11 UNL     1      12.573  28.508  24.900  1.00  0.00     0.001 A 
HETATM   21  C12 UNL     1      11.921  27.608  24.065  1.00  0.00     0.009 A 
ENDBRANCH  15  16
ENDBRANCH  12  15
ENDBRANCH   2   8
BRANCH   1  22
HETATM   22  C2  UNL     1       5.830  24.941  20.471  1.00  0.00     0.091 C 
BRANCH  22  23
HETATM   23  C1  UNL     1       6.255  23.775  19.635  1.00  0.00     0.287 C 
BRANCH  23  24
HETATM   24  N1  UNL     1       6.450  22.606  20.511  1.00  0.00    -0.065 N 
ATOM     25  H13 UNL     1       7.227  22.732  21.159  1.00  0.00     0.275 HD
ATOM     26  H12 UNL     1       5.704  22.507  21.199  1.00  0.00     0.275 HD
ATOM     27  H11 UNL     1       6.558  21.774  19.931  1.00  0.00     0.275 HD
ENDBRANCH  23  24
BRANCH  23  28
HETATM   28  C14 UNL     1       7.603  24.075  19.029  1.00  0.00     0.204 C 
HETATM   29  O3  UNL     1       7.969  23.503  17.994  1.00  0.00    -0.646 OA
HETATM   30  O4  UNL     1       8.478  25.002  19.610  1.00  0.00    -0.646 OA
ENDBRANCH  23  28
ENDBRANCH  22  23
ENDBRANCH   1  22
TORSDOF 7
ENDMDL
