MODEL 3
REMARK VINA RESULT: -9.935834542      1.044      1.562
REMARK  7 active torsions:
REMARK  status: ('A' for Active; 'I' for Inactive)
REMARK    1  A    between atoms: N1_1  and  C1_5 
REMARK    2  A    between atoms: C1_5  and  C2_6 
REMARK    3  A    between atoms: C1_5  and  C14_28 
REMARK    4  A    between atoms: C2_6  and  C3_7 
REMARK    5  A    between atoms: C4_8  and  C5_9 
REMARK    6  A    between atoms: N4_13  and  C6_14 
REMARK    7  A    between atoms: C6_14  and  C7_15 
ROOT
HETATM    1  C3  UNL     1       5.850  24.169  21.726  1.00  0.00     0.054 A 
HETATM    2  C4  UNL     1       6.189  24.945  22.810  1.00  0.00     0.157 A 
HETATM    3  O1  UNL     1       5.112  25.056  23.547  1.00  0.00    -0.230 OA
HETATM    4  N6  UNL     1       4.103  24.439  23.064  1.00  0.00    -0.225 N 
ATOM      5  H6  UNL     1       3.170  24.394  23.474  1.00  0.00     0.198 HD
HETATM    6  C13 UNL     1       4.494  23.861  21.922  1.00  0.00     0.274 A 
HETATM    7  O2  UNL     1       3.800  23.158  21.138  1.00  0.00    -0.266 OA
ENDROOT
BRANCH   2   8
HETATM    8  C5  UNL     1       7.502  25.543  23.096  1.00  0.00     0.171 A 
HETATM    9  N2  UNL     1       8.110  25.666  24.281  1.00  0.00    -0.264 N 
HETATM   10  N3  UNL     1       9.285  26.264  24.105  1.00  0.00    -0.002 NA
ATOM     11  H2  UNL     1       7.733  25.352  25.175  1.00  0.00     0.186 HD
HETATM   12  N4  UNL     1       9.454  26.536  22.822  1.00  0.00    -0.212 N 
HETATM   13  N5  UNL     1       8.358  26.089  22.215  1.00  0.00    -0.267 N 
ATOM     14  H5  UNL     1       8.188  26.153  21.211  1.00  0.00     0.190 HD
BRANCH  12  15
HETATM   15  C6  UNL     1      10.603  27.191  22.176  1.00  0.00     0.205 C 
BRANCH  15  16
HETATM   16  C7  UNL     1      11.192  28.151  23.124  1.00  0.00    -0.037 A 
HETATM   17  C8  UNL     1      10.852  29.482  23.010  1.00  0.00     0.009 A 
HETATM   18  C9  UNL     1      11.405  30.379  23.892  1.00  0.00     0.001 A 
HETATM   19  C10 UNL     1      12.273  29.914  24.850  1.00  0.00     0.000 A 
HETATM   20  C11 UNL     1      12.628  28.597  24.987  1.00  0.00     0.001 A 
HETATM   21  C12 UNL     1      12.061  27.703  24.087  1.00  0.00     0.009 A 
ENDBRANCH  15  16
ENDBRANCH  12  15
ENDBRANCH   2   8
BRANCH   1  22
HETATM   22  C2  UNL     1       6.684  23.727  20.605  1.00  0.00     0.091 C 
BRANCH  22  23
HETATM   23  C1  UNL     1       6.673  24.626  19.408  1.00  0.00     0.287 C 
BRANCH  23  24
HETATM   24  N1  UNL     1       5.285  24.773  18.935  1.00  0.00    -0.065 N 
ATOM     25  H13 UNL     1       4.672  24.041  19.294  1.00  0.00     0.275 HD
ATOM     26  H12 UNL     1       4.813  25.573  19.356  1.00  0.00     0.275 HD
ATOM     27  H11 UNL     1       5.286  24.814  17.916  1.00  0.00     0.275 HD
ENDBRANCH  23  24
BRANCH  23  28
HETATM   28  C14 UNL     1       7.429  23.956  18.289  1.00  0.00     0.204 C 
HETATM   29  O3  UNL     1       8.666  23.981  18.262  1.00  0.00    -0.646 OA
HETATM   30  O4  UNL     1       6.765  23.289  17.251  1.00  0.00    -0.646 OA
ENDBRANCH  23  28
ENDBRANCH  22  23
ENDBRANCH   1  22
TORSDOF 7
ENDMDL
