MODEL 6
REMARK VINA RESULT: -4.122681509      1.994      4.643
REMARK  10 active torsions:
REMARK  status: ('A' for Active; 'I' for Inactive)
REMARK    1  A    between atoms: O1_2  and  C2_3 
REMARK    2  A    between atoms: C2_3  and  C3_4 
REMARK    3  A    between atoms: C5_8  and  O4_9 
REMARK    4  A    between atoms: C6_11  and  N1_12 
REMARK       I    between atoms: N1_12  and  C7_14 
REMARK    5  A    between atoms: C9_17  and  C10_18 
REMARK    6  A    between atoms: C10_18  and  O6_19 
REMARK    7  A    between atoms: C10_18  and  C11_21 
REMARK    8  A    between atoms: C11_21  and  O7_22 
REMARK    9  A    between atoms: C11_21  and  C12_24 
REMARK   10  A    between atoms: C12_24  and  O8_25 
ROOT
HETATM    1  C2  UNL     1      43.322  12.454  19.067  1.00  0.00     0.258 C 
HETATM    2  C4  UNL     1      42.054  12.339  18.298  1.00  0.00     0.114 C 
HETATM    3  C5  UNL     1      41.426  13.731  18.220  1.00  0.00     0.149 C 
HETATM    4  C6  UNL     1      42.461  14.529  17.411  1.00  0.00     0.145 C 
HETATM    5  C9  UNL     1      43.650  14.655  18.303  1.00  0.00     0.182 C 
HETATM    6  O9  UNL     1      43.776  13.747  19.298  1.00  0.00    -0.336 OA
ENDROOT
BRANCH   5   7
HETATM    7  C10 UNL     1      44.946  14.811  17.540  1.00  0.00     0.180 C 
BRANCH   7   8
HETATM    8  O6  UNL     1      45.982  14.030  18.034  1.00  0.00    -0.390 OA
ATOM      9  H6  UNL     1      46.789  14.510  18.173  1.00  0.00     0.210 HD
ENDBRANCH   7   8
BRANCH   7  10
HETATM   10  C11 UNL     1      45.422  16.223  17.461  1.00  0.00     0.173 C 
BRANCH  10  11
HETATM   11  O7  UNL     1      44.495  17.139  17.949  1.00  0.00    -0.391 OA
ATOM     12  H7  UNL     1      43.681  17.140  17.460  1.00  0.00     0.210 HD
ENDBRANCH  10  11
BRANCH  10  13
HETATM   13  C12 UNL     1      45.737  16.518  15.988  1.00  0.00     0.198 C 
BRANCH  13  14
HETATM   14  O8  UNL     1      45.529  15.321  15.302  1.00  0.00    -0.398 OA
ATOM     15  H8  UNL     1      46.355  15.112  14.881  1.00  0.00     0.209 HD
ENDBRANCH  13  14
ENDBRANCH  10  13
ENDBRANCH   7  10
ENDBRANCH   5   7
BRANCH   4  16
HETATM   16  N1  UNL     1      41.836  15.797  17.092  1.00  0.00    -0.352 N 
HETATM   17  C7  UNL     1      41.944  16.251  15.751  1.00  0.00     0.214 C 
HETATM   18  C8  UNL     1      41.352  17.532  15.282  1.00  0.00     0.117 C 
HETATM   19  O5  UNL     1      42.566  15.562  14.878  1.00  0.00    -0.274 OA
ATOM     20  H1  UNL     1      41.340  16.339  17.800  1.00  0.00     0.163 HD
ENDBRANCH   4  16
BRANCH   3  21
HETATM   21  O4  UNL     1      40.197  13.712  17.613  1.00  0.00    -0.393 OA
ATOM     22  H4  UNL     1      39.691  14.494  17.801  1.00  0.00     0.210 HD
ENDBRANCH   3  21
BRANCH   1  23
HETATM   23  O1  UNL     1      44.276  11.638  18.536  1.00  0.00    -0.351 OA
HETATM   24  C1  UNL     1      43.929  10.782  17.545  1.00  0.00     0.206 C 
ENDBRANCH   1  23
BRANCH   1  25
HETATM   25  C3  UNL     1      43.006  11.952  20.460  1.00  0.00     0.239 C 
HETATM   26  O2  UNL     1      42.068  11.162  20.666  1.00  0.00    -0.644 OA
HETATM   27  O3  UNL     1      43.761  12.365  21.551  1.00  0.00    -0.644 OA
ENDBRANCH   1  25
TORSDOF 10
ENDMDL
