MODEL 5
REMARK VINA RESULT: -4.128515550      4.542      7.733
REMARK  10 active torsions:
REMARK  status: ('A' for Active; 'I' for Inactive)
REMARK    1  A    between atoms: O1_2  and  C2_3 
REMARK    2  A    between atoms: C2_3  and  C3_4 
REMARK    3  A    between atoms: C5_8  and  O4_9 
REMARK    4  A    between atoms: C6_11  and  N1_12 
REMARK       I    between atoms: N1_12  and  C7_14 
REMARK    5  A    between atoms: C9_17  and  C10_18 
REMARK    6  A    between atoms: C10_18  and  O6_19 
REMARK    7  A    between atoms: C10_18  and  C11_21 
REMARK    8  A    between atoms: C11_21  and  O7_22 
REMARK    9  A    between atoms: C11_21  and  C12_24 
REMARK   10  A    between atoms: C12_24  and  O8_25 
ROOT
HETATM    1  C2  UNL     1      39.785   9.887  19.787  1.00  0.00     0.258 C 
HETATM    2  C4  UNL     1      39.316  10.216  21.160  1.00  0.00     0.114 C 
HETATM    3  C5  UNL     1      38.013   9.454  21.405  1.00  0.00     0.149 C 
HETATM    4  C6  UNL     1      38.458   7.984  21.339  1.00  0.00     0.145 C 
HETATM    5  C9  UNL     1      38.822   7.744  19.913  1.00  0.00     0.182 C 
HETATM    6  O9  UNL     1      39.140   8.826  19.164  1.00  0.00    -0.336 OA
ENDROOT
BRANCH   5   7
HETATM    7  C10 UNL     1      39.845   6.645  19.742  1.00  0.00     0.180 C 
BRANCH   7   8
HETATM    8  O6  UNL     1      40.841   6.946  18.823  1.00  0.00    -0.390 OA
ATOM      9  H6  UNL     1      41.228   7.804  18.947  1.00  0.00     0.210 HD
ENDBRANCH   7   8
BRANCH   7  10
HETATM   10  C11 UNL     1      39.246   5.329  19.368  1.00  0.00     0.173 C 
BRANCH  10  11
HETATM   11  O7  UNL     1      39.376   4.368  20.365  1.00  0.00    -0.391 OA
ATOM     12  H7  UNL     1      39.437   3.483  20.023  1.00  0.00     0.210 HD
ENDBRANCH  10  11
BRANCH  10  13
HETATM   13  C12 UNL     1      39.940   4.861  18.082  1.00  0.00     0.198 C 
BRANCH  13  14
HETATM   14  O8  UNL     1      39.194   5.387  17.027  1.00  0.00    -0.398 OA
ATOM     15  H8  UNL     1      38.503   5.904  17.425  1.00  0.00     0.209 HD
ENDBRANCH  13  14
ENDBRANCH  10  13
ENDBRANCH   7  10
ENDBRANCH   5   7
BRANCH   4  16
HETATM   16  N1  UNL     1      37.327   7.198  21.791  1.00  0.00    -0.352 N 
HETATM   17  C7  UNL     1      37.603   6.122  22.676  1.00  0.00     0.214 C 
HETATM   18  C8  UNL     1      36.542   5.233  23.219  1.00  0.00     0.117 C 
HETATM   19  O5  UNL     1      38.795   5.871  23.046  1.00  0.00    -0.274 OA
ATOM     20  H1  UNL     1      36.377   7.409  21.489  1.00  0.00     0.163 HD
ENDBRANCH   4  16
BRANCH   3  21
HETATM   21  O4  UNL     1      37.448   9.770  22.614  1.00  0.00    -0.393 OA
ATOM     22  H4  UNL     1      36.636  10.254  22.514  1.00  0.00     0.210 HD
ENDBRANCH   3  21
BRANCH   1  23
HETATM   23  O1  UNL     1      41.143   9.779  19.761  1.00  0.00    -0.351 OA
HETATM   24  C1  UNL     1      41.827   9.824  20.929  1.00  0.00     0.206 C 
ENDBRANCH   1  23
BRANCH   1  25
HETATM   25  C3  UNL     1      39.398  11.071  18.926  1.00  0.00     0.239 C 
HETATM   26  O2  UNL     1      39.623  11.082  17.703  1.00  0.00    -0.644 OA
HETATM   27  O3  UNL     1      38.777  12.182  19.484  1.00  0.00    -0.644 OA
ENDBRANCH   1  25
TORSDOF 10
ENDMDL
