MODEL 1
REMARK VINA RESULT: -4.510665641      0.000      0.000
REMARK  10 active torsions:
REMARK  status: ('A' for Active; 'I' for Inactive)
REMARK    1  A    between atoms: O1_2  and  C2_3 
REMARK    2  A    between atoms: C2_3  and  C3_4 
REMARK    3  A    between atoms: C5_8  and  O4_9 
REMARK    4  A    between atoms: C6_11  and  N1_12 
REMARK       I    between atoms: N1_12  and  C7_14 
REMARK    5  A    between atoms: C9_17  and  C10_18 
REMARK    6  A    between atoms: C10_18  and  O6_19 
REMARK    7  A    between atoms: C10_18  and  C11_21 
REMARK    8  A    between atoms: C11_21  and  O7_22 
REMARK    9  A    between atoms: C11_21  and  C12_24 
REMARK   10  A    between atoms: C12_24  and  O8_25 
ROOT
HETATM    1  C2  UNL     1      43.342  11.346  18.812  1.00  0.00     0.258 C 
HETATM    2  C4  UNL     1      44.278  12.501  18.827  1.00  0.00     0.114 C 
HETATM    3  C5  UNL     1      44.086  13.278  17.524  1.00  0.00     0.149 C 
HETATM    4  C6  UNL     1      42.635  13.775  17.632  1.00  0.00     0.145 C 
HETATM    5  C9  UNL     1      41.788  12.553  17.521  1.00  0.00     0.182 C 
HETATM    6  O9  UNL     1      42.369  11.367  17.820  1.00  0.00    -0.336 OA
ENDROOT
BRANCH   5   7
HETATM    7  C10 UNL     1      40.453  12.696  18.216  1.00  0.00     0.180 C 
BRANCH   7   8
HETATM    8  O6  UNL     1      40.554  12.883  19.588  1.00  0.00    -0.390 OA
ATOM      9  H6  UNL     1      40.217  13.719  19.885  1.00  0.00     0.210 HD
ENDBRANCH   7   8
BRANCH   7  10
HETATM   10  C11 UNL     1      39.529  11.550  17.968  1.00  0.00     0.173 C 
BRANCH  10  11
HETATM   11  O7  UNL     1      38.294  11.945  17.463  1.00  0.00    -0.391 OA
ATOM     12  H7  UNL     1      37.899  12.654  17.957  1.00  0.00     0.210 HD
ENDBRANCH  10  11
BRANCH  10  13
HETATM   13  C12 UNL     1      39.348  10.811  19.300  1.00  0.00     0.198 C 
BRANCH  13  14
HETATM   14  O8  UNL     1      40.275   9.769  19.293  1.00  0.00    -0.398 OA
ATOM     15  H8  UNL     1      39.812   9.002  19.608  1.00  0.00     0.209 HD
ENDBRANCH  13  14
ENDBRANCH  10  13
ENDBRANCH   7  10
ENDBRANCH   5   7
BRANCH   4  16
HETATM   16  N1  UNL     1      42.447  14.715  16.545  1.00  0.00    -0.352 N 
HETATM   17  C7  UNL     1      41.969  16.008  16.886  1.00  0.00     0.214 C 
HETATM   18  C8  UNL     1      41.730  17.071  15.875  1.00  0.00     0.117 C 
HETATM   19  O5  UNL     1      41.722  16.313  18.097  1.00  0.00    -0.274 OA
ATOM     20  H1  UNL     1      42.649  14.459  15.579  1.00  0.00     0.163 HD
ENDBRANCH   4  16
BRANCH   3  21
HETATM   21  O4  UNL     1      44.980  14.310  17.399  1.00  0.00    -0.393 OA
ATOM     22  H4  UNL     1      45.111  14.563  16.493  1.00  0.00     0.210 HD
ENDBRANCH   3  21
BRANCH   1  23
HETATM   23  O1  UNL     1      42.833  11.129  20.057  1.00  0.00    -0.351 OA
HETATM   24  C1  UNL     1      43.335  11.830  21.102  1.00  0.00     0.206 C 
ENDBRANCH   1  23
BRANCH   1  25
HETATM   25  C3  UNL     1      44.180  10.142  18.437  1.00  0.00     0.239 C 
HETATM   26  O2  UNL     1      44.673  10.025  17.302  1.00  0.00    -0.644 OA
HETATM   27  O3  UNL     1      44.419   9.130  19.359  1.00  0.00    -0.644 OA
ENDBRANCH   1  25
TORSDOF 10
ENDMDL
