MODEL 12
REMARK VINA RESULT: -4.043704540      1.600      1.938
REMARK  10 active torsions:
REMARK  status: ('A' for Active; 'I' for Inactive)
REMARK    1  A    between atoms: O1_2  and  C2_3 
REMARK    2  A    between atoms: C2_3  and  C3_4 
REMARK    3  A    between atoms: C5_8  and  O4_9 
REMARK    4  A    between atoms: C6_11  and  N1_12 
REMARK       I    between atoms: N1_12  and  C7_14 
REMARK    5  A    between atoms: C9_17  and  C10_18 
REMARK    6  A    between atoms: C10_18  and  O6_19 
REMARK    7  A    between atoms: C10_18  and  C11_21 
REMARK    8  A    between atoms: C11_21  and  O7_22 
REMARK    9  A    between atoms: C11_21  and  C12_24 
REMARK   10  A    between atoms: C12_24  and  O8_25 
ROOT
HETATM    1  C2  UNL     1      45.038  11.697  19.389  1.00  0.00     0.258 C 
HETATM    2  C4  UNL     1      45.526  13.102  19.389  1.00  0.00     0.114 C 
HETATM    3  C5  UNL     1      45.197  13.713  18.026  1.00  0.00     0.149 C 
HETATM    4  C6  UNL     1      43.660  13.689  18.002  1.00  0.00     0.145 C 
HETATM    5  C9  UNL     1      43.287  12.248  17.917  1.00  0.00     0.182 C 
HETATM    6  O9  UNL     1      44.204  11.345  18.334  1.00  0.00    -0.336 OA
ENDROOT
BRANCH   5   7
HETATM    7  C10 UNL     1      41.927  11.955  18.509  1.00  0.00     0.180 C 
BRANCH   7   8
HETATM    8  O6  UNL     1      41.656  12.670  19.668  1.00  0.00    -0.390 OA
ATOM      9  H6  UNL     1      41.737  13.610  19.565  1.00  0.00     0.210 HD
ENDBRANCH   7   8
BRANCH   7  10
HETATM   10  C11 UNL     1      41.700  10.507  18.789  1.00  0.00     0.173 C 
BRANCH  10  11
HETATM   11  O7  UNL     1      42.057   9.684  17.725  1.00  0.00    -0.391 OA
ATOM     12  H7  UNL     1      41.320   9.208  17.359  1.00  0.00     0.210 HD
ENDBRANCH  10  11
BRANCH  10  13
HETATM   13  C12 UNL     1      40.212  10.333  19.121  1.00  0.00     0.198 C 
BRANCH  13  14
HETATM   14  O8  UNL     1      39.510  10.942  18.081  1.00  0.00    -0.398 OA
ATOM     15  H8  UNL     1      38.592  10.747  18.233  1.00  0.00     0.209 HD
ENDBRANCH  13  14
ENDBRANCH  10  13
ENDBRANCH   7  10
ENDBRANCH   5   7
BRANCH   4  16
HETATM   16  N1  UNL     1      43.262  14.463  16.843  1.00  0.00    -0.352 N 
HETATM   17  C7  UNL     1      42.145  15.327  16.998  1.00  0.00     0.214 C 
HETATM   18  C8  UNL     1      41.625  16.178  15.895  1.00  0.00     0.117 C 
HETATM   19  O5  UNL     1      41.531  15.407  18.111  1.00  0.00    -0.274 OA
ATOM     20  H1  UNL     1      43.761  14.391  15.957  1.00  0.00     0.163 HD
ENDBRANCH   4  16
BRANCH   3  21
HETATM   21  O4  UNL     1      45.698  14.982  17.892  1.00  0.00    -0.393 OA
ATOM     22  H4  UNL     1      45.112  15.549  17.405  1.00  0.00     0.210 HD
ENDBRANCH   3  21
BRANCH   1  23
HETATM   23  O1  UNL     1      44.526  11.370  20.609  1.00  0.00    -0.351 OA
HETATM   24  C1  UNL     1      44.597  12.277  21.613  1.00  0.00     0.206 C 
ENDBRANCH   1  23
BRANCH   1  25
HETATM   25  C3  UNL     1      46.261  10.836  19.154  1.00  0.00     0.239 C 
HETATM   26  O2  UNL     1      46.161   9.670  18.736  1.00  0.00    -0.644 OA
HETATM   27  O3  UNL     1      47.535  11.332  19.404  1.00  0.00    -0.644 OA
ENDBRANCH   1  25
TORSDOF 10
ENDMDL
