MODEL 4
REMARK VINA RESULT: -4.160734824      3.223      6.987
REMARK  10 active torsions:
REMARK  status: ('A' for Active; 'I' for Inactive)
REMARK    1  A    between atoms: O1_2  and  C2_3 
REMARK    2  A    between atoms: C2_3  and  C3_4 
REMARK    3  A    between atoms: C5_8  and  O4_9 
REMARK    4  A    between atoms: C6_11  and  N1_12 
REMARK       I    between atoms: N1_12  and  C7_14 
REMARK    5  A    between atoms: C9_17  and  C10_18 
REMARK    6  A    between atoms: C10_18  and  O6_19 
REMARK    7  A    between atoms: C10_18  and  C11_21 
REMARK    8  A    between atoms: C11_21  and  O7_22 
REMARK    9  A    between atoms: C11_21  and  C12_24 
REMARK   10  A    between atoms: C12_24  and  O8_25 
ROOT
HETATM    1  C2  UNL     1      42.476  17.867  17.212  1.00  0.00     0.258 C 
HETATM    2  C4  UNL     1      41.824  16.988  18.219  1.00  0.00     0.114 C 
HETATM    3  C5  UNL     1      42.005  15.539  17.763  1.00  0.00     0.149 C 
HETATM    4  C6  UNL     1      43.530  15.354  17.811  1.00  0.00     0.145 C 
HETATM    5  C9  UNL     1      44.069  16.209  16.715  1.00  0.00     0.182 C 
HETATM    6  O9  UNL     1      43.289  17.228  16.285  1.00  0.00    -0.336 OA
ENDROOT
BRANCH   5   7
HETATM    7  C10 UNL     1      45.483  16.676  16.971  1.00  0.00     0.180 C 
BRANCH   7   8
HETATM    8  O6  UNL     1      45.687  18.020  16.688  1.00  0.00    -0.390 OA
ATOM      9  H6  UNL     1      45.912  18.190  15.781  1.00  0.00     0.210 HD
ENDBRANCH   7   8
BRANCH   7  10
HETATM   10  C11 UNL     1      46.513  15.883  16.238  1.00  0.00     0.173 C 
BRANCH  10  11
HETATM   11  O7  UNL     1      45.988  14.762  15.604  1.00  0.00    -0.391 OA
ATOM     12  H7  UNL     1      46.341  13.946  15.937  1.00  0.00     0.210 HD
ENDBRANCH  10  11
BRANCH  10  13
HETATM   13  C12 UNL     1      47.582  15.467  17.257  1.00  0.00     0.198 C 
BRANCH  13  14
HETATM   14  O8  UNL     1      47.125  15.911  18.498  1.00  0.00    -0.398 OA
ATOM     15  H8  UNL     1      47.000  15.131  19.027  1.00  0.00     0.209 HD
ENDBRANCH  13  14
ENDBRANCH  10  13
ENDBRANCH   7  10
ENDBRANCH   5   7
BRANCH   4  16
HETATM   16  N1  UNL     1      43.772  13.938  17.617  1.00  0.00    -0.352 N 
HETATM   17  C7  UNL     1      44.642  13.300  18.541  1.00  0.00     0.214 C 
HETATM   18  C8  UNL     1      44.980  11.854  18.463  1.00  0.00     0.117 C 
HETATM   19  O5  UNL     1      45.178  13.956  19.492  1.00  0.00    -0.274 OA
ATOM     20  H1  UNL     1      43.337  13.423  16.852  1.00  0.00     0.163 HD
ENDBRANCH   4  16
BRANCH   3  21
HETATM   21  O4  UNL     1      41.350  14.654  18.579  1.00  0.00    -0.393 OA
ATOM     22  H4  UNL     1      41.947  14.053  19.010  1.00  0.00     0.210 HD
ENDBRANCH   3  21
BRANCH   1  23
HETATM   23  O1  UNL     1      43.087  18.921  17.825  1.00  0.00    -0.351 OA
HETATM   24  C1  UNL     1      43.196  18.920  19.174  1.00  0.00     0.206 C 
ENDBRANCH   1  23
BRANCH   1  25
HETATM   25  C3  UNL     1      41.354  18.416  16.357  1.00  0.00     0.239 C 
HETATM   26  O2  UNL     1      41.071  17.910  15.257  1.00  0.00    -0.644 OA
HETATM   27  O3  UNL     1      40.606  19.507  16.783  1.00  0.00    -0.644 OA
ENDBRANCH   1  25
TORSDOF 10
ENDMDL
