MODEL 6
REMARK VINA RESULT: -7.349474454      2.082      6.067
REMARK  5 active torsions:
REMARK  status: ('A' for Active; 'I' for Inactive)
REMARK    1  A    between atoms: C4_9  and  C5_10 
REMARK    2  A    between atoms: C5_10  and  N3_11 
REMARK    3  A    between atoms: C7_13  and  O2_14 
REMARK    4  A    between atoms: C8_16  and  C9_17 
REMARK    5  A    between atoms: C9_17  and  O3_18 
ROOT
HETATM    1  O1  UNL     1      36.615   5.055 107.200  1.00  0.00    -0.266 OA
HETATM    2  C1  UNL     1      36.619   4.888 105.937  1.00  0.00     0.275 A 
HETATM    3  N1  UNL     1      35.444   4.961 105.255  1.00  0.00    -0.318 N 
ATOM      4  H1  UNL     1      34.573   5.148 105.751  1.00  0.00     0.169 HD
HETATM    5  C2  UNL     1      35.438   4.785 103.920  1.00  0.00     0.184 A 
HETATM    6  N2  UNL     1      36.564   4.539 103.239  1.00  0.00    -0.350 N 
ATOM      7  H2  UNL     1      36.527   4.411 102.229  1.00  0.00     0.166 HD
HETATM    8  C3  UNL     1      37.741   4.462 103.879  1.00  0.00     0.075 A 
HETATM    9  C4  UNL     1      39.062   4.227 103.480  1.00  0.00     0.015 A 
HETATM   10  C11 UNL     1      39.860   4.263 104.601  1.00  0.00     0.099 A 
HETATM   11  N4  UNL     1      39.088   4.512 105.669  1.00  0.00    -0.359 N 
ATOM     12  H4  UNL     1      39.413   4.594 106.633  1.00  0.00     0.165 HD
HETATM   13  C12 UNL     1      37.796   4.635 105.251  1.00  0.00     0.128 A 
ENDROOT
BRANCH   9  14
HETATM   14  C5  UNL     1      39.433   3.987 102.060  1.00  0.00     0.315 C 
BRANCH  14  15
HETATM   15  N3  UNL     1      39.505   2.593 101.768  1.00  0.00     0.095 N 
HETATM   16  C6  UNL     1      40.863   2.062 101.890  1.00  0.00     0.304 C 
HETATM   17  C7  UNL     1      40.580   0.563 101.802  1.00  0.00     0.154 C 
HETATM   18  C8  UNL     1      39.140   0.393 102.247  1.00  0.00     0.068 C 
HETATM   19  C10 UNL     1      38.818   1.773 102.775  1.00  0.00     0.282 C 
BRANCH  17  20
HETATM   20  O2  UNL     1      40.730   0.138 100.484  1.00  0.00    -0.393 OA
ATOM     21  H2  UNL     1      41.477  -0.446 100.423  1.00  0.00     0.210 HD
ENDBRANCH  17  20
BRANCH  18  22
HETATM   22  C9  UNL     1      39.090  -0.660 103.324  1.00  0.00     0.173 C 
BRANCH  22  23
HETATM   23  O3  UNL     1      38.216  -1.681 103.038  1.00  0.00    -0.400 OA
ATOM     24  H3  UNL     1      38.618  -2.540 103.093  1.00  0.00     0.209 HD
ENDBRANCH  22  23
ENDBRANCH  18  22
ENDBRANCH  14  15
ENDBRANCH   9  14
TORSDOF 5
ENDMDL
