MODEL 2
REMARK VINA RESULT: -8.090443374      1.774      6.475
REMARK  5 active torsions:
REMARK  status: ('A' for Active; 'I' for Inactive)
REMARK    1  A    between atoms: C4_9  and  C5_10 
REMARK    2  A    between atoms: C5_10  and  N3_11 
REMARK    3  A    between atoms: C7_13  and  O2_14 
REMARK    4  A    between atoms: C8_16  and  C9_17 
REMARK    5  A    between atoms: C9_17  and  O3_18 
ROOT
HETATM    1  O1  UNL     1      33.839   6.580 105.010  1.00  0.00    -0.266 OA
HETATM    2  C1  UNL     1      34.340   5.535 104.482  1.00  0.00     0.275 A 
HETATM    3  N1  UNL     1      33.748   5.000 103.378  1.00  0.00    -0.318 N 
ATOM      4  H1  UNL     1      32.915   5.435 102.982  1.00  0.00     0.169 HD
HETATM    5  C2  UNL     1      34.271   3.896 102.813  1.00  0.00     0.184 A 
HETATM    6  N2  UNL     1      35.364   3.304 103.308  1.00  0.00    -0.350 N 
ATOM      7  H2  UNL     1      35.735   2.468 102.857  1.00  0.00     0.166 HD
HETATM    8  C3  UNL     1      35.974   3.803 104.394  1.00  0.00     0.075 A 
HETATM    9  C4  UNL     1      37.099   3.440 105.143  1.00  0.00     0.015 A 
HETATM   10  C11 UNL     1      37.242   4.345 106.169  1.00  0.00     0.099 A 
HETATM   11  N4  UNL     1      36.255   5.250 106.082  1.00  0.00    -0.359 N 
ATOM     12  H4  UNL     1      36.112   6.039 106.713  1.00  0.00     0.165 HD
HETATM   13  C12 UNL     1      35.473   4.937 105.009  1.00  0.00     0.128 A 
ENDROOT
BRANCH   9  14
HETATM   14  C5  UNL     1      37.931   2.254 104.803  1.00  0.00     0.315 C 
BRANCH  14  15
HETATM   15  N3  UNL     1      38.570   2.411 103.538  1.00  0.00     0.095 N 
HETATM   16  C6  UNL     1      39.738   3.290 103.602  1.00  0.00     0.304 C 
HETATM   17  C7  UNL     1      40.343   3.041 102.220  1.00  0.00     0.154 C 
HETATM   18  C8  UNL     1      39.846   1.672 101.798  1.00  0.00     0.068 C 
HETATM   19  C10 UNL     1      39.206   1.171 103.073  1.00  0.00     0.282 C 
BRANCH  17  20
HETATM   20  O2  UNL     1      39.890   4.013 101.332  1.00  0.00    -0.393 OA
ATOM     21  H2  UNL     1      39.793   3.631 100.467  1.00  0.00     0.210 HD
ENDBRANCH  17  20
BRANCH  18  22
HETATM   22  C9  UNL     1      41.030   0.837 101.382  1.00  0.00     0.173 C 
BRANCH  22  23
HETATM   23  O3  UNL     1      40.670  -0.357 100.804  1.00  0.00    -0.400 OA
ATOM     24  H3  UNL     1      41.397  -0.801 100.385  1.00  0.00     0.209 HD
ENDBRANCH  22  23
ENDBRANCH  18  22
ENDBRANCH  14  15
ENDBRANCH   9  14
TORSDOF 5
ENDMDL
