MODEL 7
REMARK VINA RESULT: -7.287357653      2.058      6.532
REMARK  5 active torsions:
REMARK  status: ('A' for Active; 'I' for Inactive)
REMARK    1  A    between atoms: C4_9  and  C5_10 
REMARK    2  A    between atoms: C5_10  and  N3_11 
REMARK    3  A    between atoms: C7_13  and  O2_14 
REMARK    4  A    between atoms: C8_16  and  C9_17 
REMARK    5  A    between atoms: C9_17  and  O3_18 
ROOT
HETATM    1  O1  UNL     1      36.233   5.109 107.027  1.00  0.00    -0.266 OA
HETATM    2  C1  UNL     1      36.361   4.645 105.847  1.00  0.00     0.275 A 
HETATM    3  N1  UNL     1      35.246   4.299 105.146  1.00  0.00    -0.318 N 
ATOM      4  H1  UNL     1      34.323   4.412 105.564  1.00  0.00     0.169 HD
HETATM    5  C2  UNL     1      35.371   3.808 103.900  1.00  0.00     0.184 A 
HETATM    6  N2  UNL     1      36.569   3.650 103.324  1.00  0.00    -0.350 N 
ATOM      7  H2  UNL     1      36.631   3.275 102.377  1.00  0.00     0.166 HD
HETATM    8  C3  UNL     1      37.690   3.982 103.984  1.00  0.00     0.075 A 
HETATM    9  C4  UNL     1      39.056   3.943 103.682  1.00  0.00     0.015 A 
HETATM   10  C11 UNL     1      39.748   4.419 104.772  1.00  0.00     0.099 A 
HETATM   11  N4  UNL     1      38.868   4.749 105.729  1.00  0.00    -0.359 N 
ATOM     12  H4  UNL     1      39.100   5.130 106.646  1.00  0.00     0.165 HD
HETATM   13  C12 UNL     1      37.610   4.490 105.269  1.00  0.00     0.128 A 
ENDROOT
BRANCH   9  14
HETATM   14  C5  UNL     1      39.567   3.451 102.375  1.00  0.00     0.315 C 
BRANCH  14  15
HETATM   15  N3  UNL     1      40.002   2.095 102.463  1.00  0.00     0.095 N 
HETATM   16  C6  UNL     1      38.973   1.146 102.037  1.00  0.00     0.304 C 
HETATM   17  C7  UNL     1      39.797  -0.140 101.974  1.00  0.00     0.154 C 
HETATM   18  C8  UNL     1      41.232   0.305 101.767  1.00  0.00     0.068 C 
HETATM   19  C10 UNL     1      41.058   1.782 101.491  1.00  0.00     0.282 C 
BRANCH  17  20
HETATM   20  O2  UNL     1      39.674  -0.830 103.177  1.00  0.00    -0.393 OA
ATOM     21  H2  UNL     1      38.755  -0.914 103.402  1.00  0.00     0.210 HD
ENDBRANCH  17  20
BRANCH  18  22
HETATM   22  C9  UNL     1      41.801  -0.438 100.586  1.00  0.00     0.173 C 
BRANCH  22  23
HETATM   23  O3  UNL     1      43.138  -0.723 100.722  1.00  0.00    -0.400 OA
ATOM     24  H3  UNL     1      43.618  -0.654  99.906  1.00  0.00     0.209 HD
ENDBRANCH  22  23
ENDBRANCH  18  22
ENDBRANCH  14  15
ENDBRANCH   9  14
TORSDOF 5
ENDMDL
