MODEL 4
REMARK VINA RESULT: -7.563627115      2.212      2.964
REMARK  5 active torsions:
REMARK  status: ('A' for Active; 'I' for Inactive)
REMARK    1  A    between atoms: C4_9  and  C5_10 
REMARK    2  A    between atoms: C5_10  and  N3_11 
REMARK    3  A    between atoms: C7_13  and  O2_14 
REMARK    4  A    between atoms: C8_16  and  C9_17 
REMARK    5  A    between atoms: C9_17  and  O3_18 
ROOT
HETATM    1  O1  UNL     1      41.800  -0.030 100.832  1.00  0.00    -0.266 OA
HETATM    2  C1  UNL     1      40.736   0.200 101.494  1.00  0.00     0.275 A 
HETATM    3  N1  UNL     1      40.009  -0.849 101.967  1.00  0.00    -0.318 N 
ATOM      4  H1  UNL     1      40.316  -1.805 101.793  1.00  0.00     0.169 HD
HETATM    5  C2  UNL     1      38.883  -0.615 102.667  1.00  0.00     0.184 A 
HETATM    6  N2  UNL     1      38.455   0.629 102.914  1.00  0.00    -0.350 N 
ATOM      7  H2  UNL     1      37.598   0.773 103.447  1.00  0.00     0.166 HD
HETATM    8  C3  UNL     1      39.147   1.687 102.464  1.00  0.00     0.075 A 
HETATM    9  C4  UNL     1      38.982   3.075 102.544  1.00  0.00     0.015 A 
HETATM   10  C11 UNL     1      40.029   3.670 101.878  1.00  0.00     0.099 A 
HETATM   11  N4  UNL     1      40.830   2.709 101.394  1.00  0.00    -0.359 N 
ATOM     12  H4  UNL     1      41.684   2.859 100.857  1.00  0.00     0.165 HD
HETATM   13  C12 UNL     1      40.310   1.496 101.740  1.00  0.00     0.128 A 
ENDROOT
BRANCH   9  14
HETATM   14  C5  UNL     1      37.832   3.699 103.252  1.00  0.00     0.315 C 
BRANCH  14  15
HETATM   15  N3  UNL     1      38.096   3.844 104.646  1.00  0.00     0.095 N 
HETATM   16  C6  UNL     1      38.997   4.959 104.935  1.00  0.00     0.304 C 
HETATM   17  C7  UNL     1      38.863   5.032 106.457  1.00  0.00     0.154 C 
HETATM   18  C8  UNL     1      37.515   4.416 106.777  1.00  0.00     0.068 C 
HETATM   19  C10 UNL     1      36.908   4.272 105.399  1.00  0.00     0.282 C 
BRANCH  17  20
HETATM   20  O2  UNL     1      39.884   4.293 107.049  1.00  0.00    -0.393 OA
ATOM     21  H2  UNL     1      40.507   4.023 106.384  1.00  0.00     0.210 HD
ENDBRANCH  17  20
BRANCH  18  22
HETATM   22  C9  UNL     1      36.743   5.372 107.648  1.00  0.00     0.173 C 
BRANCH  22  23
HETATM   23  O3  UNL     1      35.481   5.634 107.173  1.00  0.00    -0.400 OA
ATOM     24  H3  UNL     1      35.481   6.203 106.412  1.00  0.00     0.209 HD
ENDBRANCH  22  23
ENDBRANCH  18  22
ENDBRANCH  14  15
ENDBRANCH   9  14
TORSDOF 5
ENDMDL
