MODEL 3
REMARK VINA RESULT: -7.918207906      2.306      3.307
REMARK  5 active torsions:
REMARK  status: ('A' for Active; 'I' for Inactive)
REMARK    1  A    between atoms: C4_9  and  C5_10 
REMARK    2  A    between atoms: C5_10  and  N3_11 
REMARK    3  A    between atoms: C7_13  and  O2_14 
REMARK    4  A    between atoms: C8_16  and  C9_17 
REMARK    5  A    between atoms: C9_17  and  O3_18 
ROOT
HETATM    1  O1  UNL     1      41.948   0.320 101.074  1.00  0.00    -0.266 OA
HETATM    2  C1  UNL     1      40.803   0.435 101.623  1.00  0.00     0.275 A 
HETATM    3  N1  UNL     1      40.155  -0.685 102.045  1.00  0.00    -0.318 N 
ATOM      4  H1  UNL     1      40.584  -1.602 101.923  1.00  0.00     0.169 HD
HETATM    5  C2  UNL     1      38.946  -0.574 102.626  1.00  0.00     0.184 A 
HETATM    6  N2  UNL     1      38.358   0.615 102.802  1.00  0.00    -0.350 N 
ATOM      7  H2  UNL     1      37.441   0.666 103.245  1.00  0.00     0.166 HD
HETATM    8  C3  UNL     1      38.968   1.741 102.399  1.00  0.00     0.075 A 
HETATM    9  C4  UNL     1      38.641   3.101 102.432  1.00  0.00     0.015 A 
HETATM   10  C11 UNL     1      39.676   3.805 101.859  1.00  0.00     0.099 A 
HETATM   11  N4  UNL     1      40.624   2.936 101.477  1.00  0.00    -0.359 N 
ATOM     12  H4  UNL     1      41.506   3.178 101.023  1.00  0.00     0.165 HD
HETATM   13  C12 UNL     1      40.212   1.676 101.796  1.00  0.00     0.128 A 
ENDROOT
BRANCH   9  14
HETATM   14  C5  UNL     1      37.363   3.598 103.010  1.00  0.00     0.315 C 
BRANCH  14  15
HETATM   15  N3  UNL     1      37.558   4.142 104.314  1.00  0.00     0.095 N 
HETATM   16  C6  UNL     1      37.042   3.271 105.370  1.00  0.00     0.304 C 
HETATM   17  C7  UNL     1      37.628   3.959 106.602  1.00  0.00     0.154 C 
HETATM   18  C8  UNL     1      38.846   4.715 106.107  1.00  0.00     0.068 C 
HETATM   19  C10 UNL     1      38.977   4.193 104.694  1.00  0.00     0.282 C 
BRANCH  17  20
HETATM   20  O2  UNL     1      36.693   4.845 107.130  1.00  0.00    -0.393 OA
ATOM     21  H2  UNL     1      36.947   5.085 108.014  1.00  0.00     0.210 HD
ENDBRANCH  17  20
BRANCH  18  22
HETATM   22  C9  UNL     1      40.026   4.345 106.968  1.00  0.00     0.173 C 
BRANCH  22  23
HETATM   23  O3  UNL     1      41.221   4.804 106.469  1.00  0.00    -0.400 OA
ATOM     24  H3  UNL     1      41.116   5.499 105.830  1.00  0.00     0.209 HD
ENDBRANCH  22  23
ENDBRANCH  18  22
ENDBRANCH  14  15
ENDBRANCH   9  14
TORSDOF 5
ENDMDL
