MODEL 9
REMARK VINA RESULT: -6.516066386      1.546      2.205
REMARK  5 active torsions:
REMARK  status: ('A' for Active; 'I' for Inactive)
REMARK    1  A    between atoms: C4_9  and  C5_10 
REMARK    2  A    between atoms: C5_10  and  N3_11 
REMARK    3  A    between atoms: C7_13  and  O2_14 
REMARK    4  A    between atoms: C8_16  and  C9_17 
REMARK    5  A    between atoms: C9_17  and  O3_18 
ROOT
HETATM    1  O1  UNL     1      42.215   1.050 101.189  1.00  0.00    -0.266 OA
HETATM    2  C1  UNL     1      41.052   0.761 101.622  1.00  0.00     0.275 A 
HETATM    3  N1  UNL     1      40.732  -0.544 101.842  1.00  0.00    -0.318 N 
ATOM      4  H1  UNL     1      41.417  -1.277 101.663  1.00  0.00     0.169 HD
HETATM    5  C2  UNL     1      39.506  -0.859 102.299  1.00  0.00     0.184 A 
HETATM    6  N2  UNL     1      38.585   0.080 102.546  1.00  0.00    -0.350 N 
ATOM      7  H2  UNL     1      37.664  -0.190 102.891  1.00  0.00     0.166 HD
HETATM    8  C3  UNL     1      38.866   1.377 102.341  1.00  0.00     0.075 A 
HETATM    9  C4  UNL     1      38.154   2.572 102.494  1.00  0.00     0.015 A 
HETATM   10  C11 UNL     1      38.975   3.611 102.119  1.00  0.00     0.099 A 
HETATM   11  N4  UNL     1      40.160   3.106 101.744  1.00  0.00    -0.359 N 
ATOM     12  H4  UNL     1      40.961   3.646 101.418  1.00  0.00     0.165 HD
HETATM   13  C12 UNL     1      40.113   1.749 101.872  1.00  0.00     0.128 A 
ENDROOT
BRANCH   9  14
HETATM   14  C5  UNL     1      36.750   2.604 102.984  1.00  0.00     0.315 C 
BRANCH  14  15
HETATM   15  N3  UNL     1      36.521   3.725 103.836  1.00  0.00     0.095 N 
HETATM   16  C6  UNL     1      35.260   3.624 104.572  1.00  0.00     0.304 C 
HETATM   17  C7  UNL     1      35.430   4.776 105.563  1.00  0.00     0.154 C 
HETATM   18  C8  UNL     1      36.926   4.984 105.694  1.00  0.00     0.068 C 
HETATM   19  C10 UNL     1      37.469   3.781 104.957  1.00  0.00     0.282 C 
BRANCH  17  20
HETATM   20  O2  UNL     1      34.827   5.922 105.053  1.00  0.00    -0.393 OA
ATOM     21  H2  UNL     1      35.024   6.662 105.615  1.00  0.00     0.210 HD
ENDBRANCH  17  20
BRANCH  18  22
HETATM   22  C9  UNL     1      37.288   4.973 107.157  1.00  0.00     0.173 C 
BRANCH  22  23
HETATM   23  O3  UNL     1      36.486   5.791 107.916  1.00  0.00    -0.400 OA
ATOM     24  H3  UNL     1      36.448   5.530 108.829  1.00  0.00     0.209 HD
ENDBRANCH  22  23
ENDBRANCH  18  22
ENDBRANCH  14  15
ENDBRANCH   9  14
TORSDOF 5
ENDMDL
