MODEL 2
REMARK VINA RESULT: -11.140805479      1.020      1.342
REMARK  9 active torsions:
REMARK  status: ('A' for Active; 'I' for Inactive)
REMARK    1  A    between atoms: O1_2  and  C2_3 
REMARK    2  A    between atoms: C6_7  and  C7_8 
REMARK    3  A    between atoms: N1_11  and  C10_12 
REMARK    4  A    between atoms: C10_12  and  C11_13 
REMARK    5  A    between atoms: C13_15  and  O2_16 
REMARK    6  A    between atoms: O2_16  and  C14_17 
REMARK    7  A    between atoms: C14_17  and  C16_19 
REMARK    8  A    between atoms: C22_28  and  O5_29 
REMARK    9  A    between atoms: O5_29  and  C23_30 
ROOT
HETATM    1  C7  UNL     1      13.434   4.926  13.508  1.00  0.00     0.028 A 
HETATM    2  C8  UNL     1      13.819   5.026  12.190  1.00  0.00     0.022 A 
HETATM    3  C9  UNL     1      12.829   5.049  11.078  1.00  0.00     0.069 C 
HETATM    4  N1  UNL     1      15.184   5.090  12.100  1.00  0.00    -0.345 N 
HETATM    5  C20 UNL     1      15.687   5.029  13.337  1.00  0.00     0.049 A 
HETATM    6  C21 UNL     1      16.954   5.015  13.880  1.00  0.00     0.067 A 
HETATM    7  C22 UNL     1      17.226   4.914  15.229  1.00  0.00     0.080 A 
HETATM    8  C24 UNL     1      16.157   4.818  16.094  1.00  0.00     0.038 A 
HETATM    9  C25 UNL     1      14.884   4.828  15.561  1.00  0.00     0.017 A 
HETATM   10  C26 UNL     1      14.610   4.927  14.222  1.00  0.00     0.005 A 
ENDROOT
BRANCH   4  11
HETATM   11  C10 UNL     1      15.871   5.134  10.843  1.00  0.00     0.169 C 
BRANCH  11  12
HETATM   12  C11 UNL     1      16.404   6.423  10.406  1.00  0.00    -0.016 A 
HETATM   13  C12 UNL     1      15.674   7.595  10.709  1.00  0.00     0.047 A 
HETATM   14  C13 UNL     1      16.099   8.860  10.343  1.00  0.00     0.070 A 
HETATM   15  C17 UNL     1      17.282   9.003   9.652  1.00  0.00     0.038 A 
HETATM   16  C18 UNL     1      18.007   7.884   9.344  1.00  0.00     0.027 A 
HETATM   17  C19 UNL     1      17.553   6.617   9.726  1.00  0.00     0.042 A 
HETATM   18 CL1  UNL     1      18.563   5.290   9.247  1.00  0.00    -0.084 Cl
BRANCH  14  19
HETATM   19  O2  UNL     1      15.325   9.948  10.682  1.00  0.00    -0.336 OA
BRANCH  19  20
HETATM   20  C14 UNL     1      14.989  11.052   9.918  1.00  0.00     0.225 C 
HETATM   21  C15 UNL     1      14.208  12.093  10.734  1.00  0.00     0.052 C 
BRANCH  20  22
HETATM   22  C16 UNL     1      14.036  10.565   8.856  1.00  0.00     0.203 C 
HETATM   23  O3  UNL     1      12.920  10.135   9.236  1.00  0.00    -0.646 OA
HETATM   24  O4  UNL     1      14.332  10.572   7.514  1.00  0.00    -0.646 OA
ENDBRANCH  20  22
ENDBRANCH  19  20
ENDBRANCH  14  19
ENDBRANCH  11  12
ENDBRANCH   4  11
BRANCH   1  25
HETATM   25  C6  UNL     1      12.068   4.839  14.006  1.00  0.00     0.081 A 
HETATM   26  C5  UNL     1      11.259   3.717  13.995  1.00  0.00     0.029 A 
HETATM   27  C4  UNL     1      11.460   2.448  13.555  1.00  0.00     0.019 A 
HETATM   28  C27 UNL     1      10.068   4.113  14.565  1.00  0.00     0.114 A 
HETATM   29  C3  UNL     1      10.456   1.502  13.670  1.00  0.00     0.038 A 
HETATM   30  C2  UNL     1       9.254   1.903  14.245  1.00  0.00     0.070 A 
HETATM   31  C28 UNL     1       9.061   3.189  14.686  1.00  0.00     0.077 A 
HETATM   32  O6  UNL     1      10.193   5.391  14.882  1.00  0.00    -0.237 OA
HETATM   33  N2  UNL     1      11.360   5.839  14.563  1.00  0.00    -0.259 N 
ATOM     34  H2  UNL     1      11.692   6.792  14.709  1.00  0.00     0.195 HD
BRANCH  30  35
HETATM   35  O1  UNL     1       8.228   0.972  14.373  1.00  0.00    -0.356 OA
HETATM   36  C1  UNL     1       6.993   1.160  13.745  1.00  0.00     0.210 C 
ENDBRANCH  30  35
ENDBRANCH   1  25
BRANCH   7  37
HETATM   37  O5  UNL     1      18.551   4.909  15.695  1.00  0.00    -0.255 OA
BRANCH  37  38
HETATM   38  C23 UNL     1      18.940   3.749  16.418  1.00  0.00     0.530 C 
HETATM   39  F1  UNL     1      18.352   3.735  17.670  1.00  0.00    -0.144 F 
HETATM   40  F2  UNL     1      20.314   3.710  16.573  1.00  0.00    -0.144 F 
HETATM   41  F3  UNL     1      18.578   2.626  15.680  1.00  0.00    -0.144 F 
ENDBRANCH  37  38
ENDBRANCH   7  37
TORSDOF 9
ENDMDL
