MODEL 1
REMARK VINA RESULT: -11.558964852      0.000      0.000
REMARK  9 active torsions:
REMARK  status: ('A' for Active; 'I' for Inactive)
REMARK    1  A    between atoms: O1_2  and  C2_3 
REMARK    2  A    between atoms: C6_7  and  C7_8 
REMARK    3  A    between atoms: N1_11  and  C10_12 
REMARK    4  A    between atoms: C10_12  and  C11_13 
REMARK    5  A    between atoms: C13_15  and  O2_16 
REMARK    6  A    between atoms: O2_16  and  C14_17 
REMARK    7  A    between atoms: C14_17  and  C16_19 
REMARK    8  A    between atoms: C22_28  and  O5_29 
REMARK    9  A    between atoms: O5_29  and  C23_30 
ROOT
HETATM    1  C7  UNL     1      13.548   4.839  12.664  1.00  0.00     0.028 A 
HETATM    2  C8  UNL     1      14.230   4.927  11.471  1.00  0.00     0.022 A 
HETATM    3  C9  UNL     1      13.532   4.870  10.157  1.00  0.00     0.069 C 
HETATM    4  N1  UNL     1      15.573   5.060  11.704  1.00  0.00    -0.345 N 
HETATM    5  C20 UNL     1      15.771   5.056  13.026  1.00  0.00     0.049 A 
HETATM    6  C21 UNL     1      16.871   5.123  13.853  1.00  0.00     0.067 A 
HETATM    7  C22 UNL     1      16.820   5.070  15.230  1.00  0.00     0.080 A 
HETATM    8  C24 UNL     1      15.581   4.939  15.821  1.00  0.00     0.038 A 
HETATM    9  C25 UNL     1      14.472   4.869  15.003  1.00  0.00     0.017 A 
HETATM   10  C26 UNL     1      14.520   4.921  13.635  1.00  0.00     0.005 A 
ENDROOT
BRANCH   4  11
HETATM   11  C10 UNL     1      16.536   5.109  10.643  1.00  0.00     0.169 C 
BRANCH  11  12
HETATM   12  C11 UNL     1      16.964   6.426  10.175  1.00  0.00    -0.016 A 
HETATM   13  C12 UNL     1      16.182   7.553  10.519  1.00  0.00     0.047 A 
HETATM   14  C13 UNL     1      16.507   8.839  10.128  1.00  0.00     0.070 A 
HETATM   15  C17 UNL     1      17.637   9.051   9.369  1.00  0.00     0.038 A 
HETATM   16  C18 UNL     1      18.410   7.977   9.020  1.00  0.00     0.027 A 
HETATM   17  C19 UNL     1      18.057   6.687   9.430  1.00  0.00     0.042 A 
HETATM   18 CL1  UNL     1      19.117   5.422   8.893  1.00  0.00    -0.084 Cl
BRANCH  14  19
HETATM   19  O2  UNL     1      15.688   9.880  10.510  1.00  0.00    -0.336 OA
BRANCH  19  20
HETATM   20  C14 UNL     1      15.214  10.939   9.756  1.00  0.00     0.225 C 
HETATM   21  C15 UNL     1      14.473  11.968  10.624  1.00  0.00     0.052 C 
BRANCH  20  22
HETATM   22  C16 UNL     1      14.178  10.370   8.820  1.00  0.00     0.203 C 
HETATM   23  O3  UNL     1      14.309  10.619   7.597  1.00  0.00    -0.646 OA
HETATM   24  O4  UNL     1      13.117   9.605   9.240  1.00  0.00    -0.646 OA
ENDBRANCH  20  22
ENDBRANCH  19  20
ENDBRANCH  14  19
ENDBRANCH  11  12
ENDBRANCH   4  11
BRANCH   1  25
HETATM   25  C6  UNL     1      12.108   4.692  12.829  1.00  0.00     0.081 A 
HETATM   26  C5  UNL     1      11.463   3.797  13.662  1.00  0.00     0.029 A 
HETATM   27  C4  UNL     1      11.924   2.849  14.518  1.00  0.00     0.019 A 
HETATM   28  C27 UNL     1      10.116   4.026  13.481  1.00  0.00     0.114 A 
HETATM   29  C3  UNL     1      11.036   2.075  15.246  1.00  0.00     0.038 A 
HETATM   30  C2  UNL     1       9.676   2.308  15.062  1.00  0.00     0.070 A 
HETATM   31  C28 UNL     1       9.221   3.268  14.193  1.00  0.00     0.077 A 
HETATM   32  O6  UNL     1      10.001   4.999  12.593  1.00  0.00    -0.237 OA
HETATM   33  N2  UNL     1      11.159   5.407  12.196  1.00  0.00    -0.259 N 
ATOM     34  H2  UNL     1      11.328   6.147  11.515  1.00  0.00     0.195 HD
BRANCH  30  35
HETATM   35  O1  UNL     1       8.762   1.543  15.782  1.00  0.00    -0.356 OA
HETATM   36  C1  UNL     1       8.579   1.732  17.154  1.00  0.00     0.210 C 
ENDBRANCH  30  35
ENDBRANCH   1  25
BRANCH   7  37
HETATM   37  O5  UNL     1      17.995   5.146  15.996  1.00  0.00    -0.255 OA
BRANCH  37  38
HETATM   38  C23 UNL     1      18.406   3.932  16.608  1.00  0.00     0.530 C 
HETATM   39  F1  UNL     1      19.783   3.885  16.723  1.00  0.00    -0.144 F 
HETATM   40  F2  UNL     1      17.986   2.845  15.862  1.00  0.00    -0.144 F 
HETATM   41  F3  UNL     1      17.793   3.836  17.854  1.00  0.00    -0.144 F 
ENDBRANCH  37  38
ENDBRANCH   7  37
TORSDOF 9
ENDMDL
