MODEL 8
REMARK VINA RESULT: -9.813708865      2.518      7.423
REMARK  9 active torsions:
REMARK  status: ('A' for Active; 'I' for Inactive)
REMARK    1  A    between atoms: O1_2  and  C2_3 
REMARK    2  A    between atoms: C6_7  and  C7_8 
REMARK    3  A    between atoms: N1_11  and  C10_12 
REMARK    4  A    between atoms: C10_12  and  C11_13 
REMARK    5  A    between atoms: C13_15  and  O2_16 
REMARK    6  A    between atoms: O2_16  and  C14_17 
REMARK    7  A    between atoms: C14_17  and  C16_19 
REMARK    8  A    between atoms: C22_28  and  O5_29 
REMARK    9  A    between atoms: O5_29  and  C23_30 
ROOT
HETATM    1  C7  UNL     1      15.767   5.152  12.682  1.00  0.00     0.028 A 
HETATM    2  C8  UNL     1      14.428   5.222  12.998  1.00  0.00     0.022 A 
HETATM    3  C9  UNL     1      13.399   5.604  11.993  1.00  0.00     0.069 C 
HETATM    4  N1  UNL     1      14.237   4.903  14.316  1.00  0.00    -0.345 N 
HETATM    5  C20 UNL     1      15.429   4.633  14.858  1.00  0.00     0.049 A 
HETATM    6  C21 UNL     1      15.879   4.291  16.115  1.00  0.00     0.067 A 
HETATM    7  C22 UNL     1      17.203   4.085  16.442  1.00  0.00     0.080 A 
HETATM    8  C24 UNL     1      18.142   4.232  15.443  1.00  0.00     0.038 A 
HETATM    9  C25 UNL     1      17.702   4.575  14.181  1.00  0.00     0.017 A 
HETATM   10  C26 UNL     1      16.389   4.782  13.853  1.00  0.00     0.005 A 
ENDROOT
BRANCH   4  11
HETATM   11  C10 UNL     1      12.948   4.955  14.941  1.00  0.00     0.169 C 
BRANCH  11  12
HETATM   12  C11 UNL     1      11.902   4.081  14.414  1.00  0.00    -0.016 A 
HETATM   13  C12 UNL     1      10.739   4.670  13.868  1.00  0.00     0.047 A 
HETATM   14  C13 UNL     1       9.697   3.928  13.341  1.00  0.00     0.070 A 
HETATM   15  C17 UNL     1       9.780   2.553  13.339  1.00  0.00     0.038 A 
HETATM   16  C18 UNL     1      10.895   1.957  13.863  1.00  0.00     0.027 A 
HETATM   17  C19 UNL     1      11.932   2.733  14.391  1.00  0.00     0.042 A 
HETATM   18 CL1  UNL     1      13.271   1.840  15.042  1.00  0.00    -0.084 Cl
BRANCH  14  19
HETATM   19  O2  UNL     1       8.601   4.586  12.828  1.00  0.00    -0.336 OA
BRANCH  19  20
HETATM   20  C14 UNL     1       8.324   4.928  11.516  1.00  0.00     0.225 C 
HETATM   21  C15 UNL     1       9.593   4.941  10.651  1.00  0.00     0.052 C 
BRANCH  20  22
HETATM   22  C16 UNL     1       7.827   6.351  11.538  1.00  0.00     0.203 C 
HETATM   23  O3  UNL     1       7.931   7.014  10.478  1.00  0.00    -0.646 OA
HETATM   24  O4  UNL     1       7.277   6.943  12.650  1.00  0.00    -0.646 OA
ENDBRANCH  20  22
ENDBRANCH  19  20
ENDBRANCH  14  19
ENDBRANCH  11  12
ENDBRANCH   4  11
BRANCH   1  25
HETATM   25  C6  UNL     1      16.363   5.418  11.380  1.00  0.00     0.081 A 
HETATM   26  C5  UNL     1      16.563   6.660  10.806  1.00  0.00     0.029 A 
HETATM   27  C4  UNL     1      16.291   7.920  11.233  1.00  0.00     0.019 A 
HETATM   28  C27 UNL     1      17.152   6.413   9.584  1.00  0.00     0.114 A 
HETATM   29  C3  UNL     1      16.603   9.009  10.438  1.00  0.00     0.038 A 
HETATM   30  C2  UNL     1      17.197   8.759   9.204  1.00  0.00     0.070 A 
HETATM   31  C28 UNL     1      17.467   7.480   8.782  1.00  0.00     0.077 A 
HETATM   32  O6  UNL     1      17.279   5.102   9.470  1.00  0.00    -0.237 OA
HETATM   33  N2  UNL     1      16.822   4.496  10.514  1.00  0.00    -0.259 N 
ATOM     34  H2  UNL     1      16.811   3.487  10.658  1.00  0.00     0.195 HD
BRANCH  30  35
HETATM   35  O1  UNL     1      17.522   9.836   8.385  1.00  0.00    -0.356 OA
HETATM   36  C1  UNL     1      18.796  10.411   8.411  1.00  0.00     0.210 C 
ENDBRANCH  30  35
ENDBRANCH   1  25
BRANCH   7  37
HETATM   37  O5  UNL     1      17.573   3.737  17.752  1.00  0.00    -0.255 OA
BRANCH  37  38
HETATM   38  C23 UNL     1      18.817   4.260  18.195  1.00  0.00     0.530 C 
HETATM   39  F1  UNL     1      19.010   5.540  17.708  1.00  0.00    -0.144 F 
HETATM   40  F2  UNL     1      19.862   3.461  17.765  1.00  0.00    -0.144 F 
HETATM   41  F3  UNL     1      18.834   4.244  19.586  1.00  0.00    -0.144 F 
ENDBRANCH  37  38
ENDBRANCH   7  37
TORSDOF 9
ENDMDL
