MODEL 4
REMARK VINA RESULT: -10.216514939      4.240      9.527
REMARK  9 active torsions:
REMARK  status: ('A' for Active; 'I' for Inactive)
REMARK    1  A    between atoms: O1_2  and  C2_3 
REMARK    2  A    between atoms: C6_7  and  C7_8 
REMARK    3  A    between atoms: N1_11  and  C10_12 
REMARK    4  A    between atoms: C10_12  and  C11_13 
REMARK    5  A    between atoms: C13_15  and  O2_16 
REMARK    6  A    between atoms: O2_16  and  C14_17 
REMARK    7  A    between atoms: C14_17  and  C16_19 
REMARK    8  A    between atoms: C22_28  and  O5_29 
REMARK    9  A    between atoms: O5_29  and  C23_30 
ROOT
HETATM    1  C7  UNL     1      14.464   5.289  11.351  1.00  0.00     0.028 A 
HETATM    2  C8  UNL     1      14.276   5.231  12.714  1.00  0.00     0.022 A 
HETATM    3  C9  UNL     1      15.419   5.235  13.668  1.00  0.00     0.069 C 
HETATM    4  N1  UNL     1      12.940   5.169  13.004  1.00  0.00    -0.345 N 
HETATM    5  C20 UNL     1      12.261   5.181  11.853  1.00  0.00     0.049 A 
HETATM    6  C21 UNL     1      10.931   5.109  11.499  1.00  0.00     0.067 A 
HETATM    7  C22 UNL     1      10.465   5.112  10.200  1.00  0.00     0.080 A 
HETATM    8  C24 UNL     1      11.396   5.191   9.186  1.00  0.00     0.038 A 
HETATM    9  C25 UNL     1      12.731   5.261   9.528  1.00  0.00     0.017 A 
HETATM   10  C26 UNL     1      13.196   5.256  10.817  1.00  0.00     0.005 A 
ENDROOT
BRANCH   4  11
HETATM   11  C10 UNL     1      12.449   5.035  14.345  1.00  0.00     0.169 C 
BRANCH  11  12
HETATM   12  C11 UNL     1      11.688   3.830  14.672  1.00  0.00    -0.016 A 
HETATM   13  C12 UNL     1      10.276   3.893  14.638  1.00  0.00     0.047 A 
HETATM   14  C13 UNL     1       9.469   2.807  14.926  1.00  0.00     0.070 A 
HETATM   15  C17 UNL     1      10.049   1.603  15.263  1.00  0.00     0.038 A 
HETATM   16  C18 UNL     1      11.414   1.516  15.304  1.00  0.00     0.027 A 
HETATM   17  C19 UNL     1      12.205   2.632  15.008  1.00  0.00     0.042 A 
HETATM   18 CL1  UNL     1      13.918   2.379  15.125  1.00  0.00    -0.084 Cl
BRANCH  14  19
HETATM   19  O2  UNL     1       8.100   2.957  14.867  1.00  0.00    -0.336 OA
BRANCH  19  20
HETATM   20  C14 UNL     1       7.183   2.292  14.073  1.00  0.00     0.225 C 
HETATM   21  C15 UNL     1       7.636   0.858  13.758  1.00  0.00     0.052 C 
BRANCH  20  22
HETATM   22  C16 UNL     1       7.156   3.014  12.750  1.00  0.00     0.203 C 
HETATM   23  O3  UNL     1       6.214   3.819  12.552  1.00  0.00    -0.646 OA
HETATM   24  O4  UNL     1       8.102   2.833  11.770  1.00  0.00    -0.646 OA
ENDBRANCH  20  22
ENDBRANCH  19  20
ENDBRANCH  14  19
ENDBRANCH  11  12
ENDBRANCH   4  11
BRANCH   1  25
HETATM   25  C6  UNL     1      15.741   5.367  10.656  1.00  0.00     0.081 A 
HETATM   26  C5  UNL     1      16.359   6.516  10.199  1.00  0.00     0.029 A 
HETATM   27  C4  UNL     1      16.005   7.826  10.246  1.00  0.00     0.019 A 
HETATM   28  C27 UNL     1      17.535   6.098   9.613  1.00  0.00     0.114 A 
HETATM   29  C3  UNL     1      16.830   8.793   9.698  1.00  0.00     0.038 A 
HETATM   30  C2  UNL     1      18.017   8.369   9.107  1.00  0.00     0.070 A 
HETATM   31  C28 UNL     1      18.365   7.042   9.064  1.00  0.00     0.077 A 
HETATM   32  O6  UNL     1      17.583   4.782   9.731  1.00  0.00    -0.237 OA
HETATM   33  N2  UNL     1      16.539   4.330  10.341  1.00  0.00    -0.259 N 
ATOM     34  H2  UNL     1      16.350   3.349  10.549  1.00  0.00     0.195 HD
BRANCH  30  35
HETATM   35  O1  UNL     1      18.865   9.321   8.548  1.00  0.00    -0.356 OA
HETATM   36  C1  UNL     1      18.639  10.689   8.726  1.00  0.00     0.210 C 
ENDBRANCH  30  35
ENDBRANCH   1  25
BRANCH   7  37
HETATM   37  O5  UNL     1       9.089   5.037   9.931  1.00  0.00    -0.255 OA
BRANCH  37  38
HETATM   38  C23 UNL     1       8.330   6.178  10.306  1.00  0.00     0.530 C 
HETATM   39  F1  UNL     1       8.122   6.198  11.673  1.00  0.00    -0.144 F 
HETATM   40  F2  UNL     1       7.101   6.176   9.671  1.00  0.00    -0.144 F 
HETATM   41  F3  UNL     1       9.008   7.318   9.885  1.00  0.00    -0.144 F 
ENDBRANCH  37  38
ENDBRANCH   7  37
TORSDOF 9
ENDMDL
