MODEL 6
REMARK VINA RESULT: -10.030591340      2.574      7.021
REMARK  9 active torsions:
REMARK  status: ('A' for Active; 'I' for Inactive)
REMARK    1  A    between atoms: O1_2  and  C2_3 
REMARK    2  A    between atoms: C6_7  and  C7_8 
REMARK    3  A    between atoms: N1_11  and  C10_12 
REMARK    4  A    between atoms: C10_12  and  C11_13 
REMARK    5  A    between atoms: C13_15  and  O2_16 
REMARK    6  A    between atoms: O2_16  and  C14_17 
REMARK    7  A    between atoms: C14_17  and  C16_19 
REMARK    8  A    between atoms: C22_28  and  O5_29 
REMARK    9  A    between atoms: O5_29  and  C23_30 
ROOT
HETATM    1  C7  UNL     1      16.178   5.268  11.987  1.00  0.00     0.028 A 
HETATM    2  C8  UNL     1      14.933   4.681  11.936  1.00  0.00     0.022 A 
HETATM    3  C9  UNL     1      14.057   4.789  10.737  1.00  0.00     0.069 C 
HETATM    4  N1  UNL     1      14.670   4.030  13.112  1.00  0.00    -0.345 N 
HETATM    5  C20 UNL     1      15.721   4.191  13.922  1.00  0.00     0.049 A 
HETATM    6  C21 UNL     1      16.032   3.812  15.211  1.00  0.00     0.067 A 
HETATM    7  C22 UNL     1      17.207   4.132  15.858  1.00  0.00     0.080 A 
HETATM    8  C24 UNL     1      18.134   4.886  15.170  1.00  0.00     0.038 A 
HETATM    9  C25 UNL     1      17.832   5.273  13.880  1.00  0.00     0.017 A 
HETATM   10  C26 UNL     1      16.666   4.957  13.235  1.00  0.00     0.005 A 
ENDROOT
BRANCH   4  11
HETATM   11  C10 UNL     1      13.418   3.381  13.369  1.00  0.00     0.169 C 
BRANCH  11  12
HETATM   12  C11 UNL     1      12.248   4.228  13.593  1.00  0.00    -0.016 A 
HETATM   13  C12 UNL     1      11.317   4.388  12.541  1.00  0.00     0.047 A 
HETATM   14  C13 UNL     1      10.178   5.164  12.658  1.00  0.00     0.070 A 
HETATM   15  C17 UNL     1       9.922   5.817  13.844  1.00  0.00     0.038 A 
HETATM   16  C18 UNL     1      10.809   5.681  14.878  1.00  0.00     0.027 A 
HETATM   17  C19 UNL     1      11.954   4.890  14.730  1.00  0.00     0.042 A 
HETATM   18 CL1  UNL     1      12.998   4.830  16.116  1.00  0.00    -0.084 Cl
BRANCH  14  19
HETATM   19  O2  UNL     1       9.323   5.262  11.581  1.00  0.00    -0.336 OA
BRANCH  19  20
HETATM   20  C14 UNL     1       8.993   6.375  10.828  1.00  0.00     0.225 C 
HETATM   21  C15 UNL     1       7.683   6.169  10.053  1.00  0.00     0.052 C 
BRANCH  20  22
HETATM   22  C16 UNL     1      10.069   6.522   9.784  1.00  0.00     0.203 C 
HETATM   23  O3  UNL     1      10.433   5.483   9.181  1.00  0.00    -0.646 OA
HETATM   24  O4  UNL     1      10.660   7.722   9.469  1.00  0.00    -0.646 OA
ENDBRANCH  20  22
ENDBRANCH  19  20
ENDBRANCH  14  19
ENDBRANCH  11  12
ENDBRANCH   4  11
BRANCH   1  25
HETATM   25  C6  UNL     1      16.811   6.044  10.929  1.00  0.00     0.081 A 
HETATM   26  C5  UNL     1      16.553   7.364  10.611  1.00  0.00     0.029 A 
HETATM   27  C4  UNL     1      15.699   8.282  11.135  1.00  0.00     0.019 A 
HETATM   28  C27 UNL     1      17.386   7.661   9.553  1.00  0.00     0.114 A 
HETATM   29  C3  UNL     1      15.643   9.562  10.612  1.00  0.00     0.038 A 
HETATM   30  C2  UNL     1      16.485   9.860   9.544  1.00  0.00     0.070 A 
HETATM   31  C28 UNL     1      17.344   8.925   9.021  1.00  0.00     0.077 A 
HETATM   32  O6  UNL     1      18.080   6.569   9.285  1.00  0.00    -0.237 OA
HETATM   33  N2  UNL     1      17.760   5.605  10.081  1.00  0.00    -0.259 N 
ATOM     34  H2  UNL     1      18.158   4.666  10.069  1.00  0.00     0.195 HD
BRANCH  30  35
HETATM   35  O1  UNL     1      16.448  11.140   8.999  1.00  0.00    -0.356 OA
HETATM   36  C1  UNL     1      15.518  12.089   9.433  1.00  0.00     0.210 C 
ENDBRANCH  30  35
ENDBRANCH   1  25
BRANCH   7  37
HETATM   37  O5  UNL     1      17.442   3.702  17.175  1.00  0.00    -0.255 OA
BRANCH  37  38
HETATM   38  C23 UNL     1      18.677   4.115  17.741  1.00  0.00     0.530 C 
HETATM   39  F1  UNL     1      18.659   3.961  19.116  1.00  0.00    -0.144 F 
HETATM   40  F2  UNL     1      18.928   5.443  17.448  1.00  0.00    -0.144 F 
HETATM   41  F3  UNL     1      19.700   3.366  17.165  1.00  0.00    -0.144 F 
ENDBRANCH  37  38
ENDBRANCH   7  37
TORSDOF 9
ENDMDL
