MODEL 1
REMARK VINA RESULT: -7.791073573      0.000      0.000
REMARK  8 active torsions:
REMARK  status: ('A' for Active; 'I' for Inactive)
REMARK    1  A    between atoms: P1_2  and  N1_5 
REMARK    2  A    between atoms: N1_5  and  C2_7 
REMARK    3  A    between atoms: C3_8  and  O3_9 
REMARK    4  A    between atoms: C4_12  and  C5_13 
REMARK    5  A    between atoms: C5_13  and  O5_14 
REMARK    6  A    between atoms: O5_14  and  P2_15 
REMARK    7  A    between atoms: C6_19  and  O9_20 
REMARK    8  A    between atoms: C7_22  and  O10_23 
ROOT
HETATM    1  C2  UNL     1     -31.704  18.906 -13.747  1.00  0.00     0.172 C 
HETATM    2  C3  UNL     1     -31.610  19.088 -12.231  1.00  0.00     0.282 C 
HETATM    3  O4  UNL     1     -32.818  19.155 -11.630  1.00  0.00    -0.349 OA
HETATM    4  C4  UNL     1     -33.619  18.057 -11.712  1.00  0.00     0.180 C 
HETATM    5  C6  UNL     1     -33.384  17.371 -13.023  1.00  0.00     0.180 C 
HETATM    6  C7  UNL     1     -33.154  18.542 -14.003  1.00  0.00     0.177 C 
ENDROOT
BRANCH   1   7
HETATM    7  N1  UNL     1     -31.252  20.061 -14.439  1.00  0.00    -0.337 N 
ATOM      8  H1  UNL     1     -31.533  21.019 -14.233  1.00  0.00     0.164 HD
BRANCH   7   9
HETATM    9  P1  UNL     1     -30.148  19.588 -15.689  1.00  0.00     0.201 P 
HETATM   10  C1  UNL     1     -29.594  21.100 -16.586  1.00  0.00     0.145 C 
HETATM   11  O1  UNL     1     -30.908  18.534 -16.794  1.00  0.00    -0.652 OA
HETATM   12  O2  UNL     1     -28.698  18.876 -14.960  1.00  0.00    -0.652 OA
ENDBRANCH   7   9
ENDBRANCH   1   7
BRANCH   2  13
HETATM   13  O3  UNL     1     -30.890  20.231 -11.880  1.00  0.00    -0.369 OA
ATOM     14  H3  UNL     1     -31.370  20.787 -11.277  1.00  0.00     0.212 HD
ENDBRANCH   2  13
BRANCH   6  15
HETATM   15  O10 UNL     1     -33.458  18.165 -15.268  1.00  0.00    -0.391 OA
ATOM     16  H10 UNL     1     -34.329  17.808 -15.398  1.00  0.00     0.210 HD
ENDBRANCH   6  15
BRANCH   5  17
HETATM   17  O9  UNL     1     -34.418  16.559 -13.451  1.00  0.00    -0.390 OA
ATOM     18  H9  UNL     1     -34.275  15.628 -13.329  1.00  0.00     0.210 HD
ENDBRANCH   5  17
BRANCH   4  19
HETATM   19  C5  UNL     1     -33.479  17.113 -10.566  1.00  0.00     0.217 C 
BRANCH  19  20
HETATM   20  O5  UNL     1     -34.680  16.989  -9.944  1.00  0.00    -0.280 OA
BRANCH  20  21
HETATM   21  P2  UNL     1     -35.281  15.319 -10.128  1.00  0.00     0.422 P 
HETATM   22  O6  UNL     1     -36.384  15.121  -8.925  1.00  0.00    -0.617 OA
HETATM   23  O7  UNL     1     -36.097  15.186 -11.672  1.00  0.00    -0.617 OA
HETATM   24  O8  UNL     1     -34.027  14.232 -10.000  1.00  0.00    -0.617 OA
ENDBRANCH  20  21
ENDBRANCH  19  20
ENDBRANCH   4  19
TORSDOF 8
ENDMDL
