MODEL 7
REMARK VINA RESULT: -7.496378324      2.566      7.119
REMARK  8 active torsions:
REMARK  status: ('A' for Active; 'I' for Inactive)
REMARK    1  A    between atoms: P1_2  and  N1_5 
REMARK    2  A    between atoms: N1_5  and  C2_7 
REMARK    3  A    between atoms: C3_8  and  O3_9 
REMARK    4  A    between atoms: C4_12  and  C5_13 
REMARK    5  A    between atoms: C5_13  and  O5_14 
REMARK    6  A    between atoms: O5_14  and  P2_15 
REMARK    7  A    between atoms: C6_19  and  O9_20 
REMARK    8  A    between atoms: C7_22  and  O10_23 
ROOT
HETATM    1  C2  UNL     1     -34.825  16.253 -10.833  1.00  0.00     0.172 C 
HETATM    2  C3  UNL     1     -35.411  16.707 -12.172  1.00  0.00     0.282 C 
HETATM    3  O4  UNL     1     -35.141  17.999 -12.457  1.00  0.00    -0.349 OA
HETATM    4  C4  UNL     1     -33.833  18.346 -12.613  1.00  0.00     0.180 C 
HETATM    5  C6  UNL     1     -32.988  17.505 -11.706  1.00  0.00     0.180 C 
HETATM    6  C7  UNL     1     -33.860  17.356 -10.440  1.00  0.00     0.177 C 
ENDROOT
BRANCH   1   7
HETATM    7  N1  UNL     1     -35.845  15.992  -9.880  1.00  0.00    -0.337 N 
ATOM      8  H1  UNL     1     -36.689  16.551  -9.752  1.00  0.00     0.164 HD
BRANCH   7   9
HETATM    9  P1  UNL     1     -35.435  14.576  -8.971  1.00  0.00     0.201 P 
HETATM   10  C1  UNL     1     -36.993  13.734  -8.459  1.00  0.00     0.145 C 
HETATM   11  O1  UNL     1     -34.547  14.995  -7.575  1.00  0.00    -0.652 OA
HETATM   12  O2  UNL     1     -34.565  13.435 -10.011  1.00  0.00    -0.652 OA
ENDBRANCH   7   9
ENDBRANCH   1   7
BRANCH   2  13
HETATM   13  O3  UNL     1     -36.794  16.532 -12.230  1.00  0.00    -0.369 OA
ATOM     14  H3  UNL     1     -37.127  16.587 -13.118  1.00  0.00     0.212 HD
ENDBRANCH   2  13
BRANCH   6  15
HETATM   15  O10 UNL     1     -33.084  17.110  -9.359  1.00  0.00    -0.391 OA
ATOM     16  H10 UNL     1     -33.465  17.323  -8.515  1.00  0.00     0.210 HD
ENDBRANCH   6  15
BRANCH   5  17
HETATM   17  O9  UNL     1     -31.751  18.040 -11.398  1.00  0.00    -0.390 OA
ATOM     18  H9  UNL     1     -31.682  18.420 -10.530  1.00  0.00     0.210 HD
ENDBRANCH   5  17
BRANCH   4  19
HETATM   19  C5  UNL     1     -33.352  18.287 -14.023  1.00  0.00     0.217 C 
BRANCH  19  20
HETATM   20  O5  UNL     1     -32.024  17.999 -14.026  1.00  0.00    -0.280 OA
BRANCH  20  21
HETATM   21  P2  UNL     1     -31.133  19.287 -14.883  1.00  0.00     0.422 P 
HETATM   22  O6  UNL     1     -31.278  18.924 -16.480  1.00  0.00    -0.617 OA
HETATM   23  O7  UNL     1     -31.932  20.816 -14.575  1.00  0.00    -0.617 OA
HETATM   24  O8  UNL     1     -29.541  19.317 -14.398  1.00  0.00    -0.617 OA
ENDBRANCH  20  21
ENDBRANCH  19  20
ENDBRANCH   4  19
TORSDOF 8
ENDMDL
