MODEL 4
REMARK VINA RESULT: -7.668264112      2.910      7.440
REMARK  8 active torsions:
REMARK  status: ('A' for Active; 'I' for Inactive)
REMARK    1  A    between atoms: P1_2  and  N1_5 
REMARK    2  A    between atoms: N1_5  and  C2_7 
REMARK    3  A    between atoms: C3_8  and  O3_9 
REMARK    4  A    between atoms: C4_12  and  C5_13 
REMARK    5  A    between atoms: C5_13  and  O5_14 
REMARK    6  A    between atoms: O5_14  and  P2_15 
REMARK    7  A    between atoms: C6_19  and  O9_20 
REMARK    8  A    between atoms: C7_22  and  O10_23 
ROOT
HETATM    1  C2  UNL     1     -35.006  15.571 -10.178  1.00  0.00     0.172 C 
HETATM    2  C3  UNL     1     -35.352  15.687 -11.664  1.00  0.00     0.282 C 
HETATM    3  O4  UNL     1     -35.177  16.934 -12.152  1.00  0.00    -0.349 OA
HETATM    4  C4  UNL     1     -33.912  17.440 -12.138  1.00  0.00     0.180 C 
HETATM    5  C6  UNL     1     -33.182  16.910 -10.943  1.00  0.00     0.180 C 
HETATM    6  C7  UNL     1     -34.273  16.858  -9.851  1.00  0.00     0.177 C 
ENDROOT
BRANCH   1   7
HETATM    7  N1  UNL     1     -36.164  15.333  -9.391  1.00  0.00    -0.337 N 
ATOM      8  H1  UNL     1     -36.952  15.972  -9.293  1.00  0.00     0.164 HD
BRANCH   7   9
HETATM    9  P1  UNL     1     -36.030  13.785  -8.623  1.00  0.00     0.201 P 
HETATM   10  C1  UNL     1     -35.758  14.047  -6.818  1.00  0.00     0.145 C 
HETATM   11  O1  UNL     1     -34.711  12.911  -9.261  1.00  0.00    -0.652 OA
HETATM   12  O2  UNL     1     -37.563  12.911  -8.779  1.00  0.00    -0.652 OA
ENDBRANCH   7   9
ENDBRANCH   1   7
BRANCH   2  13
HETATM   13  O3  UNL     1     -36.665  15.299 -11.932  1.00  0.00    -0.369 OA
ATOM     14  H3  UNL     1     -37.255  15.508 -11.217  1.00  0.00     0.212 HD
ENDBRANCH   2  13
BRANCH   6  15
HETATM   15  O10 UNL     1     -33.712  16.927  -8.620  1.00  0.00    -0.391 OA
ATOM     16  H10 UNL     1     -34.252  17.306  -7.937  1.00  0.00     0.210 HD
ENDBRANCH   6  15
BRANCH   5  17
HETATM   17  O9  UNL     1     -32.102  17.670 -10.533  1.00  0.00    -0.390 OA
ATOM     18  H9  UNL     1     -31.346  17.636 -11.106  1.00  0.00     0.210 HD
ENDBRANCH   5  17
BRANCH   4  19
HETATM   19  C5  UNL     1     -33.149  17.205 -13.397  1.00  0.00     0.217 C 
BRANCH  19  20
HETATM   20  O5  UNL     1     -31.943  17.826 -13.306  1.00  0.00    -0.280 OA
BRANCH  20  21
HETATM   21  P2  UNL     1     -31.877  19.178 -14.469  1.00  0.00     0.422 P 
HETATM   22  O6  UNL     1     -30.702  20.179 -13.901  1.00  0.00    -0.617 OA
HETATM   23  O7  UNL     1     -31.380  18.550 -16.027  1.00  0.00    -0.617 OA
HETATM   24  O8  UNL     1     -33.351  19.945 -14.556  1.00  0.00    -0.617 OA
ENDBRANCH  20  21
ENDBRANCH  19  20
ENDBRANCH   4  19
TORSDOF 8
ENDMDL
