MODEL 5
REMARK VINA RESULT: -7.664612677      2.865      7.268
REMARK  8 active torsions:
REMARK  status: ('A' for Active; 'I' for Inactive)
REMARK    1  A    between atoms: P1_2  and  N1_5 
REMARK    2  A    between atoms: N1_5  and  C2_7 
REMARK    3  A    between atoms: C3_8  and  O3_9 
REMARK    4  A    between atoms: C4_12  and  C5_13 
REMARK    5  A    between atoms: C5_13  and  O5_14 
REMARK    6  A    between atoms: O5_14  and  P2_15 
REMARK    7  A    between atoms: C6_19  and  O9_20 
REMARK    8  A    between atoms: C7_22  and  O10_23 
ROOT
HETATM    1  C2  UNL     1     -34.950  15.556 -10.547  1.00  0.00     0.172 C 
HETATM    2  C3  UNL     1     -35.422  15.582 -12.002  1.00  0.00     0.282 C 
HETATM    3  O4  UNL     1     -35.624  16.833 -12.470  1.00  0.00    -0.349 OA
HETATM    4  C4  UNL     1     -34.543  17.660 -12.531  1.00  0.00     0.180 C 
HETATM    5  C6  UNL     1     -33.612  17.339 -11.403  1.00  0.00     0.180 C 
HETATM    6  C7  UNL     1     -34.566  16.991 -10.239  1.00  0.00     0.177 C 
ENDROOT
BRANCH   1   7
HETATM    7  N1  UNL     1     -35.941  15.011  -9.687  1.00  0.00    -0.337 N 
ATOM      8  H1  UNL     1     -36.927  15.267  -9.689  1.00  0.00     0.164 HD
BRANCH   7   9
HETATM    9  P1  UNL     1     -35.211  13.842  -8.636  1.00  0.00     0.201 P 
HETATM   10  C1  UNL     1     -36.501  13.200  -7.486  1.00  0.00     0.145 C 
HETATM   11  O1  UNL     1     -33.959  14.555  -7.722  1.00  0.00    -0.652 OA
HETATM   12  O2  UNL     1     -34.652  12.456  -9.588  1.00  0.00    -0.652 OA
ENDBRANCH   7   9
ENDBRANCH   1   7
BRANCH   2  13
HETATM   13  O3  UNL     1     -36.600  14.857 -12.187  1.00  0.00    -0.369 OA
ATOM     14  H3  UNL     1     -36.451  14.041 -12.650  1.00  0.00     0.212 HD
ENDBRANCH   2  13
BRANCH   6  15
HETATM   15  O10 UNL     1     -33.955  17.201  -9.050  1.00  0.00    -0.391 OA
ATOM     16  H10 UNL     1     -34.507  17.134  -8.280  1.00  0.00     0.210 HD
ENDBRANCH   6  15
BRANCH   5  17
HETATM   17  O9  UNL     1     -32.748  18.360 -11.050  1.00  0.00    -0.390 OA
ATOM     18  H9  UNL     1     -31.834  18.110 -10.990  1.00  0.00     0.210 HD
ENDBRANCH   5  17
BRANCH   4  19
HETATM   19  C5  UNL     1     -33.839  17.645 -13.845  1.00  0.00     0.217 C 
BRANCH  19  20
HETATM   20  O5  UNL     1     -32.498  17.666 -13.630  1.00  0.00    -0.280 OA
BRANCH  20  21
HETATM   21  P2  UNL     1     -31.772  19.046 -14.499  1.00  0.00     0.422 P 
HETATM   22  O6  UNL     1     -32.801  20.304 -14.248  1.00  0.00    -0.617 OA
HETATM   23  O7  UNL     1     -30.229  19.421 -13.759  1.00  0.00    -0.617 OA
HETATM   24  O8  UNL     1     -31.609  18.694 -16.117  1.00  0.00    -0.617 OA
ENDBRANCH  20  21
ENDBRANCH  19  20
ENDBRANCH   4  19
TORSDOF 8
ENDMDL
