MODEL 2
REMARK VINA RESULT: -7.738444894      0.072      1.068
REMARK  8 active torsions:
REMARK  status: ('A' for Active; 'I' for Inactive)
REMARK    1  A    between atoms: P1_2  and  N1_5 
REMARK    2  A    between atoms: N1_5  and  C2_7 
REMARK    3  A    between atoms: C3_8  and  O3_9 
REMARK    4  A    between atoms: C4_12  and  C5_13 
REMARK    5  A    between atoms: C5_13  and  O5_14 
REMARK    6  A    between atoms: O5_14  and  P2_15 
REMARK    7  A    between atoms: C6_19  and  O9_20 
REMARK    8  A    between atoms: C7_22  and  O10_23 
ROOT
HETATM    1  C2  UNL     1     -31.718  18.908 -13.727  1.00  0.00     0.172 C 
HETATM    2  C3  UNL     1     -31.643  19.107 -12.211  1.00  0.00     0.282 C 
HETATM    3  O4  UNL     1     -32.857  19.165 -11.624  1.00  0.00    -0.349 OA
HETATM    4  C4  UNL     1     -33.644  18.056 -11.704  1.00  0.00     0.180 C 
HETATM    5  C6  UNL     1     -33.386  17.360 -13.004  1.00  0.00     0.180 C 
HETATM    6  C7  UNL     1     -33.161  18.524 -13.994  1.00  0.00     0.177 C 
ENDROOT
BRANCH   1   7
HETATM    7  N1  UNL     1     -31.273  20.062 -14.426  1.00  0.00    -0.337 N 
ATOM      8  H1  UNL     1     -31.560  21.020 -14.225  1.00  0.00     0.164 HD
BRANCH   7   9
HETATM    9  P1  UNL     1     -30.166  19.589 -15.672  1.00  0.00     0.201 P 
HETATM   10  C1  UNL     1     -29.621  21.099 -16.578  1.00  0.00     0.145 C 
HETATM   11  O1  UNL     1     -30.920  18.524 -16.772  1.00  0.00    -0.652 OA
HETATM   12  O2  UNL     1     -28.712  18.890 -14.939  1.00  0.00    -0.652 OA
ENDBRANCH   7   9
ENDBRANCH   1   7
BRANCH   2  13
HETATM   13  O3  UNL     1     -30.941  20.263 -11.865  1.00  0.00    -0.369 OA
ATOM     14  H3  UNL     1     -30.002  20.118 -11.836  1.00  0.00     0.212 HD
ENDBRANCH   2  13
BRANCH   6  15
HETATM   15  O10 UNL     1     -33.446  18.130 -15.258  1.00  0.00    -0.391 OA
ATOM     16  H10 UNL     1     -34.367  18.013 -15.459  1.00  0.00     0.210 HD
ENDBRANCH   6  15
BRANCH   5  17
HETATM   17  O9  UNL     1     -34.405  16.530 -13.435  1.00  0.00    -0.390 OA
ATOM     18  H9  UNL     1     -34.187  15.977 -14.176  1.00  0.00     0.210 HD
ENDBRANCH   5  17
BRANCH   4  19
HETATM   19  C5  UNL     1     -33.504  17.126 -10.547  1.00  0.00     0.217 C 
BRANCH  19  20
HETATM   20  O5  UNL     1     -34.699  17.032  -9.906  1.00  0.00    -0.280 OA
BRANCH  20  21
HETATM   21  P2  UNL     1     -35.314  15.362 -10.026  1.00  0.00     0.422 P 
HETATM   22  O6  UNL     1     -36.031  15.270 -11.503  1.00  0.00    -0.617 OA
HETATM   23  O7  UNL     1     -33.951  14.261  -9.990  1.00  0.00    -0.617 OA
HETATM   24  O8  UNL     1     -36.391  15.047  -8.797  1.00  0.00    -0.617 OA
ENDBRANCH  20  21
ENDBRANCH  19  20
ENDBRANCH   4  19
TORSDOF 8
ENDMDL
