MODEL 6
REMARK VINA RESULT: -7.506910835      2.558      7.138
REMARK  8 active torsions:
REMARK  status: ('A' for Active; 'I' for Inactive)
REMARK    1  A    between atoms: P1_2  and  N1_5 
REMARK    2  A    between atoms: N1_5  and  C2_7 
REMARK    3  A    between atoms: C3_8  and  O3_9 
REMARK    4  A    between atoms: C4_12  and  C5_13 
REMARK    5  A    between atoms: C5_13  and  O5_14 
REMARK    6  A    between atoms: O5_14  and  P2_15 
REMARK    7  A    between atoms: C6_19  and  O9_20 
REMARK    8  A    between atoms: C7_22  and  O10_23 
ROOT
HETATM    1  C2  UNL     1     -34.795  16.269 -10.839  1.00  0.00     0.172 C 
HETATM    2  C3  UNL     1     -35.365  16.730 -12.182  1.00  0.00     0.282 C 
HETATM    3  O4  UNL     1     -35.092  18.023 -12.458  1.00  0.00    -0.349 OA
HETATM    4  C4  UNL     1     -33.783  18.371 -12.596  1.00  0.00     0.180 C 
HETATM    5  C6  UNL     1     -32.948  17.526 -11.684  1.00  0.00     0.180 C 
HETATM    6  C7  UNL     1     -33.835  17.370 -10.429  1.00  0.00     0.177 C 
ENDROOT
BRANCH   1   7
HETATM    7  N1  UNL     1     -35.826  16.003  -9.899  1.00  0.00    -0.337 N 
ATOM      8  H1  UNL     1     -36.676  16.555  -9.785  1.00  0.00     0.164 HD
BRANCH   7   9
HETATM    9  P1  UNL     1     -35.416  14.593  -8.979  1.00  0.00     0.201 P 
HETATM   10  C1  UNL     1     -36.975  13.772  -8.437  1.00  0.00     0.145 C 
HETATM   11  O1  UNL     1     -34.507  15.020  -7.600  1.00  0.00    -0.652 OA
HETATM   12  O2  UNL     1     -34.570  13.433 -10.017  1.00  0.00    -0.652 OA
ENDBRANCH   7   9
ENDBRANCH   1   7
BRANCH   2  13
HETATM   13  O3  UNL     1     -36.747  16.555 -12.257  1.00  0.00    -0.369 OA
ATOM     14  H3  UNL     1     -37.141  17.089 -12.937  1.00  0.00     0.212 HD
ENDBRANCH   2  13
BRANCH   6  15
HETATM   15  O10 UNL     1     -33.071  17.118  -9.340  1.00  0.00    -0.391 OA
ATOM     16  H10 UNL     1     -33.531  17.072  -8.511  1.00  0.00     0.210 HD
ENDBRANCH   6  15
BRANCH   5  17
HETATM   17  O9  UNL     1     -31.714  18.059 -11.359  1.00  0.00    -0.390 OA
ATOM     18  H9  UNL     1     -31.001  17.432 -11.327  1.00  0.00     0.210 HD
ENDBRANCH   5  17
BRANCH   4  19
HETATM   19  C5  UNL     1     -33.285  18.319 -14.001  1.00  0.00     0.217 C 
BRANCH  19  20
HETATM   20  O5  UNL     1     -31.948  18.078 -13.989  1.00  0.00    -0.280 OA
BRANCH  20  21
HETATM   21  P2  UNL     1     -31.109  19.301 -14.981  1.00  0.00     0.422 P 
HETATM   22  O6  UNL     1     -29.529  19.214 -14.531  1.00  0.00    -0.617 OA
HETATM   23  O7  UNL     1     -31.243  18.840 -16.666  1.00  0.00    -0.617 OA
HETATM   24  O8  UNL     1     -31.746  20.813 -14.704  1.00  0.00    -0.617 OA
ENDBRANCH  20  21
ENDBRANCH  19  20
ENDBRANCH   4  19
TORSDOF 8
ENDMDL
