MODEL 3
REMARK VINA RESULT: -7.706410054      0.064      1.088
REMARK  8 active torsions:
REMARK  status: ('A' for Active; 'I' for Inactive)
REMARK    1  A    between atoms: P1_2  and  N1_5 
REMARK    2  A    between atoms: N1_5  and  C2_7 
REMARK    3  A    between atoms: C3_8  and  O3_9 
REMARK    4  A    between atoms: C4_12  and  C5_13 
REMARK    5  A    between atoms: C5_13  and  O5_14 
REMARK    6  A    between atoms: O5_14  and  P2_15 
REMARK    7  A    between atoms: C6_19  and  O9_20 
REMARK    8  A    between atoms: C7_22  and  O10_23 
ROOT
HETATM    1  C2  UNL     1     -31.685  18.897 -13.747  1.00  0.00     0.172 C 
HETATM    2  C3  UNL     1     -31.601  19.065 -12.228  1.00  0.00     0.282 C 
HETATM    3  O4  UNL     1     -32.812  19.124 -11.634  1.00  0.00    -0.349 OA
HETATM    4  C4  UNL     1     -33.611  18.025 -11.732  1.00  0.00     0.180 C 
HETATM    5  C6  UNL     1     -33.366  17.353 -13.047  1.00  0.00     0.180 C 
HETATM    6  C7  UNL     1     -33.133  18.533 -14.015  1.00  0.00     0.177 C 
ENDROOT
BRANCH   1   7
HETATM    7  N1  UNL     1     -31.231  20.060 -14.425  1.00  0.00    -0.337 N 
ATOM      8  H1  UNL     1     -31.509  21.016 -14.205  1.00  0.00     0.164 HD
BRANCH   7   9
HETATM    9  P1  UNL     1     -30.133  19.601 -15.683  1.00  0.00     0.201 P 
HETATM   10  C1  UNL     1     -29.601  21.120 -16.582  1.00  0.00     0.145 C 
HETATM   11  O1  UNL     1     -30.891  18.541 -16.785  1.00  0.00    -0.652 OA
HETATM   12  O2  UNL     1     -28.670  18.903 -14.967  1.00  0.00    -0.652 OA
ENDBRANCH   7   9
ENDBRANCH   1   7
BRANCH   2  13
HETATM   13  O3  UNL     1     -30.885  20.206 -11.862  1.00  0.00    -0.369 OA
ATOM     14  H3  UNL     1     -31.421  20.990 -11.888  1.00  0.00     0.212 HD
ENDBRANCH   2  13
BRANCH   6  15
HETATM   15  O10 UNL     1     -33.429  18.169 -15.285  1.00  0.00    -0.391 OA
ATOM     16  H10 UNL     1     -32.687  17.998 -15.853  1.00  0.00     0.210 HD
ENDBRANCH   6  15
BRANCH   5  17
HETATM   17  O9  UNL     1     -34.396  16.542 -13.490  1.00  0.00    -0.390 OA
ATOM     18  H9  UNL     1     -34.508  16.514 -14.433  1.00  0.00     0.210 HD
ENDBRANCH   5  17
BRANCH   4  19
HETATM   19  C5  UNL     1     -33.475  17.070 -10.594  1.00  0.00     0.217 C 
BRANCH  19  20
HETATM   20  O5  UNL     1     -34.665  16.985  -9.943  1.00  0.00    -0.280 OA
BRANCH  20  21
HETATM   21  P2  UNL     1     -35.366  15.362 -10.186  1.00  0.00     0.422 P 
HETATM   22  O6  UNL     1     -34.092  14.324 -10.105  1.00  0.00    -0.617 OA
HETATM   23  O7  UNL     1     -36.457  15.022  -8.858  1.00  0.00    -0.617 OA
HETATM   24  O8  UNL     1     -36.140  15.275 -11.656  1.00  0.00    -0.617 OA
ENDBRANCH  20  21
ENDBRANCH  19  20
ENDBRANCH   4  19
TORSDOF 8
ENDMDL
