MODEL 2
REMARK VINA RESULT: -5.991489706      1.963      2.552
REMARK  1 active torsions:
REMARK  status: ('A' for Active; 'I' for Inactive)
REMARK    1  A    between atoms: C4_4  and  O1_5 
ROOT
HETATM    1  C1  UNL     1      47.324 -28.361 -97.146  1.00  0.00     0.050 C 
HETATM    2  C2  UNL     1      47.797 -27.313 -96.190  1.00  0.00    -0.038 A 
HETATM    3  C3  UNL     1      47.001 -26.234 -95.855  1.00  0.00     0.044 A 
HETATM    4  C4  UNL     1      47.427 -25.253 -94.968  1.00  0.00     0.066 A 
HETATM    5  C5  UNL     1      48.679 -25.331 -94.389  1.00  0.00     0.038 A 
HETATM    6  C6  UNL     1      49.489 -26.400 -94.711  1.00  0.00     0.027 A 
HETATM    7  C7  UNL     1      49.046 -27.378 -95.602  1.00  0.00     0.040 A 
HETATM    8 CL1  UNL     1      50.081 -28.747 -96.016  1.00  0.00    -0.084 Cl
ENDROOT
BRANCH   4   9
HETATM    9  O1  UNL     1      46.569 -24.199 -94.681  1.00  0.00    -0.361 OA
ATOM     10  H1  UNL     1      46.935 -23.326 -94.594  1.00  0.00     0.217 HD
ENDBRANCH   4   9
TORSDOF 1
ENDMDL
