MODEL 12
REMARK VINA RESULT: -5.378757634      1.069      1.186
REMARK  1 active torsions:
REMARK  status: ('A' for Active; 'I' for Inactive)
REMARK    1  A    between atoms: C4_4  and  O1_5 
ROOT
HETATM    1  C1  UNL     1      46.166 -27.262 -97.843  1.00  0.00     0.050 C 
HETATM    2  C2  UNL     1      47.234 -27.186 -96.799  1.00  0.00    -0.038 A 
HETATM    3  C3  UNL     1      47.079 -26.410 -95.667  1.00  0.00     0.044 A 
HETATM    4  C4  UNL     1      48.062 -26.331 -94.689  1.00  0.00     0.066 A 
HETATM    5  C5  UNL     1      49.241 -27.039 -94.824  1.00  0.00     0.038 A 
HETATM    6  C6  UNL     1      49.416 -27.820 -95.948  1.00  0.00     0.027 A 
HETATM    7  C7  UNL     1      48.418 -27.890 -96.922  1.00  0.00     0.040 A 
HETATM    8 CL1  UNL     1      48.639 -28.888 -98.360  1.00  0.00    -0.084 Cl
ENDROOT
BRANCH   4   9
HETATM    9  O1  UNL     1      47.833 -25.529 -93.579  1.00  0.00    -0.361 OA
ATOM     10  H1  UNL     1      48.573 -25.093 -93.172  1.00  0.00     0.217 HD
ENDBRANCH   4   9
TORSDOF 1
ENDMDL
