MODEL 18
REMARK VINA RESULT: -4.855981047     10.395     10.684
REMARK  1 active torsions:
REMARK  status: ('A' for Active; 'I' for Inactive)
REMARK    1  A    between atoms: C4_4  and  O1_5 
ROOT
HETATM    1  C1  UNL     1      42.550 -18.208 -93.061  1.00  0.00     0.050 C 
HETATM    2  C2  UNL     1      43.304 -18.711 -91.872  1.00  0.00    -0.038 A 
HETATM    3  C3  UNL     1      44.369 -18.005 -91.346  1.00  0.00     0.044 A 
HETATM    4  C4  UNL     1      45.078 -18.460 -90.241  1.00  0.00     0.066 A 
HETATM    5  C5  UNL     1      44.732 -19.649 -89.629  1.00  0.00     0.038 A 
HETATM    6  C6  UNL     1      43.671 -20.369 -90.140  1.00  0.00     0.027 A 
HETATM    7  C7  UNL     1      42.968 -19.899 -91.250  1.00  0.00     0.040 A 
HETATM    8 CL1  UNL     1      41.611 -20.817 -91.905  1.00  0.00    -0.084 Cl
ENDROOT
BRANCH   4   9
HETATM    9  O1  UNL     1      46.138 -17.695 -89.771  1.00  0.00    -0.361 OA
ATOM     10  H1  UNL     1      46.992 -18.103 -89.689  1.00  0.00     0.217 HD
ENDBRANCH   4   9
TORSDOF 1
ENDMDL
