MODEL 1
REMARK VINA RESULT: -9.879926066      0.000      0.000
REMARK  4 active torsions:
REMARK  status: ('A' for Active; 'I' for Inactive)
REMARK    1  A    between atoms: C2_2  and  C4_4 
REMARK    2  A    between atoms: C2_2  and  C10_12 
REMARK    3  A    between atoms: C7_7  and  O1_8 
REMARK    4  A    between atoms: C13_15  and  O2_16 
ROOT
HETATM    1  C1  UNL     1      47.743 -29.975 -95.024  1.00  0.00     0.025 C 
HETATM    2  C2  UNL     1      48.669 -28.899 -95.521  1.00  0.00     0.007 C 
HETATM    3  C3  UNL     1      49.992 -29.102 -94.809  1.00  0.00     0.025 C 
ENDROOT
BRANCH   2   4
HETATM    4  C4  UNL     1      48.172 -27.539 -95.287  1.00  0.00    -0.045 A 
HETATM    5  C5  UNL     1      47.072 -27.003 -95.888  1.00  0.00     0.011 A 
HETATM    6  C6  UNL     1      46.677 -25.712 -95.608  1.00  0.00     0.037 A 
HETATM    7  C7  UNL     1      47.368 -24.918 -94.721  1.00  0.00     0.065 A 
HETATM    8  C8  UNL     1      48.480 -25.445 -94.106  1.00  0.00     0.037 A 
HETATM    9  C9  UNL     1      48.860 -26.732 -94.397  1.00  0.00     0.011 A 
BRANCH   7  10
HETATM   10  O1  UNL     1      46.901 -23.631 -94.496  1.00  0.00    -0.361 OA
ATOM     11  H1  UNL     1      47.176 -22.945 -95.093  1.00  0.00     0.217 HD
ENDBRANCH   7  10
ENDBRANCH   2   4
BRANCH   2  12
HETATM   12  C10 UNL     1      48.817 -29.095 -96.987  1.00  0.00    -0.045 A 
HETATM   13  C11 UNL     1      47.748 -29.609 -97.688  1.00  0.00     0.011 A 
HETATM   14  C12 UNL     1      47.817 -29.821 -99.071  1.00  0.00     0.037 A 
HETATM   15  C13 UNL     1      48.982 -29.499 -99.708  1.00  0.00     0.065 A 
HETATM   16  C14 UNL     1      50.038 -28.990 -99.011  1.00  0.00     0.037 A 
HETATM   17  C15 UNL     1      49.987 -28.775 -97.645  1.00  0.00     0.011 A 
BRANCH  15  18
HETATM   18  O2  UNL     1      49.112 -29.689-101.096  1.00  0.00    -0.361 OA
ATOM     19  H2  UNL     1      49.634 -30.405-101.437  1.00  0.00     0.217 HD
ENDBRANCH  15  18
ENDBRANCH   2  12
TORSDOF 4
ENDMDL
