MODEL 5
REMARK VINA RESULT: -9.853393230      0.254      1.162
REMARK  4 active torsions:
REMARK  status: ('A' for Active; 'I' for Inactive)
REMARK    1  A    between atoms: C2_2  and  C4_4 
REMARK    2  A    between atoms: C2_2  and  C10_12 
REMARK    3  A    between atoms: C7_7  and  O1_8 
REMARK    4  A    between atoms: C13_15  and  O2_16 
ROOT
HETATM    1  C1  UNL     1      47.774 -29.953 -94.948  1.00  0.00     0.025 C 
HETATM    2  C2  UNL     1      48.805 -28.970 -95.431  1.00  0.00     0.007 C 
HETATM    3  C3  UNL     1      50.110 -29.345 -94.757  1.00  0.00     0.025 C 
ENDROOT
BRANCH   2   4
HETATM    4  C4  UNL     1      48.469 -27.572 -95.142  1.00  0.00    -0.045 A 
HETATM    5  C5  UNL     1      49.257 -26.718 -94.428  1.00  0.00     0.011 A 
HETATM    6  C6  UNL     1      48.861 -25.417 -94.205  1.00  0.00     0.037 A 
HETATM    7  C7  UNL     1      47.666 -24.930 -94.687  1.00  0.00     0.065 A 
HETATM    8  C8  UNL     1      46.860 -25.779 -95.408  1.00  0.00     0.037 A 
HETATM    9  C9  UNL     1      47.271 -27.072 -95.621  1.00  0.00     0.011 A 
BRANCH   7  10
HETATM   10  O1  UNL     1      47.344 -23.607 -94.416  1.00  0.00    -0.361 OA
ATOM     11  H1  UNL     1      47.464 -23.290 -93.528  1.00  0.00     0.217 HD
ENDBRANCH   7  10
ENDBRANCH   2   4
BRANCH   2  12
HETATM   12  C10 UNL     1      48.902 -29.130 -96.906  1.00  0.00    -0.045 A 
HETATM   13  C11 UNL     1      47.804 -29.611 -97.585  1.00  0.00     0.011 A 
HETATM   14  C12 UNL     1      47.825 -29.787 -98.974  1.00  0.00     0.037 A 
HETATM   15  C13 UNL     1      48.974 -29.466 -99.640  1.00  0.00     0.065 A 
HETATM   16  C14 UNL     1      50.059 -28.990 -98.965  1.00  0.00     0.037 A 
HETATM   17  C15 UNL     1      50.055 -28.810 -97.593  1.00  0.00     0.011 A 
BRANCH  15  18
HETATM   18  O2  UNL     1      49.055 -29.621-101.036  1.00  0.00    -0.361 OA
ATOM     19  H2  UNL     1      48.269 -29.751-101.552  1.00  0.00     0.217 HD
ENDBRANCH  15  18
ENDBRANCH   2  12
TORSDOF 4
ENDMDL
