MODEL 4
REMARK VINA RESULT: -9.860072394      0.069      5.410
REMARK  4 active torsions:
REMARK  status: ('A' for Active; 'I' for Inactive)
REMARK    1  A    between atoms: C2_2  and  C4_4 
REMARK    2  A    between atoms: C2_2  and  C10_12 
REMARK    3  A    between atoms: C7_7  and  O1_8 
REMARK    4  A    between atoms: C13_15  and  O2_16 
ROOT
HETATM    1  C1  UNL     1      49.965 -29.049 -94.828  1.00  0.00     0.025 C 
HETATM    2  C2  UNL     1      48.638 -28.915 -95.524  1.00  0.00     0.007 C 
HETATM    3  C3  UNL     1      47.710 -29.928 -94.885  1.00  0.00     0.025 C 
ENDROOT
BRANCH   2   4
HETATM    4  C4  UNL     1      48.707 -29.132 -96.972  1.00  0.00    -0.045 A 
HETATM    5  C5  UNL     1      47.692 -29.643 -97.727  1.00  0.00     0.011 A 
HETATM    6  C6  UNL     1      47.845 -29.814 -99.086  1.00  0.00     0.037 A 
HETATM    7  C7  UNL     1      49.014 -29.480 -99.733  1.00  0.00     0.065 A 
HETATM    8  C8  UNL     1      50.046 -28.963 -98.985  1.00  0.00     0.037 A 
HETATM    9  C9  UNL     1      49.877 -28.801 -97.632  1.00  0.00     0.011 A 
BRANCH   7  10
HETATM   10  O1  UNL     1      49.083 -29.683-101.104  1.00  0.00    -0.361 OA
ATOM     11  H1  UNL     1      49.864 -30.093-101.456  1.00  0.00     0.217 HD
ENDBRANCH   7  10
ENDBRANCH   2   4
BRANCH   2  12
HETATM   12  C10 UNL     1      48.159 -27.528 -95.283  1.00  0.00    -0.045 A 
HETATM   13  C11 UNL     1      48.882 -26.726 -94.426  1.00  0.00     0.011 A 
HETATM   14  C12 UNL     1      48.489 -25.410 -94.154  1.00  0.00     0.037 A 
HETATM   15  C13 UNL     1      47.361 -24.941 -94.767  1.00  0.00     0.065 A 
HETATM   16  C14 UNL     1      46.649 -25.737 -95.615  1.00  0.00     0.037 A 
HETATM   17  C15 UNL     1      47.023 -27.039 -95.895  1.00  0.00     0.011 A 
BRANCH  15  18
HETATM   18  O2  UNL     1      46.917 -23.627 -94.533  1.00  0.00    -0.361 OA
ATOM     19  H2  UNL     1      46.053 -23.354 -94.817  1.00  0.00     0.217 HD
ENDBRANCH  15  18
ENDBRANCH   2  12
TORSDOF 4
ENDMDL
