MODEL 2
REMARK VINA RESULT: -9.874591723      0.056      1.156
REMARK  4 active torsions:
REMARK  status: ('A' for Active; 'I' for Inactive)
REMARK    1  A    between atoms: C2_2  and  C4_4 
REMARK    2  A    between atoms: C2_2  and  C10_12 
REMARK    3  A    between atoms: C7_7  and  O1_8 
REMARK    4  A    between atoms: C13_15  and  O2_16 
ROOT
HETATM    1  C1  UNL     1      47.781 -29.977 -94.967  1.00  0.00     0.025 C 
HETATM    2  C2  UNL     1      48.672 -28.896 -95.516  1.00  0.00     0.007 C 
HETATM    3  C3  UNL     1      50.021 -29.065 -94.846  1.00  0.00     0.025 C 
ENDROOT
BRANCH   2   4
HETATM    4  C4  UNL     1      48.162 -27.539 -95.291  1.00  0.00    -0.045 A 
HETATM    5  C5  UNL     1      47.070 -27.010 -95.914  1.00  0.00     0.011 A 
HETATM    6  C6  UNL     1      46.661 -25.723 -95.641  1.00  0.00     0.037 A 
HETATM    7  C7  UNL     1      47.328 -24.925 -94.738  1.00  0.00     0.065 A 
HETATM    8  C8  UNL     1      48.431 -25.445 -94.102  1.00  0.00     0.037 A 
HETATM    9  C9  UNL     1      48.825 -26.729 -94.386  1.00  0.00     0.011 A 
BRANCH   7  10
HETATM   10  O1  UNL     1      46.848 -23.641 -94.522  1.00  0.00    -0.361 OA
ATOM     11  H1  UNL     1      46.037 -23.543 -94.038  1.00  0.00     0.217 HD
ENDBRANCH   7  10
ENDBRANCH   2   4
BRANCH   2  12
HETATM   12  C10 UNL     1      48.773 -29.118 -96.982  1.00  0.00    -0.045 A 
HETATM   13  C11 UNL     1      49.956 -28.798 -97.612  1.00  0.00     0.011 A 
HETATM   14  C12 UNL     1      50.121 -28.982 -98.991  1.00  0.00     0.037 A 
HETATM   15  C13 UNL     1      49.068 -29.491 -99.697  1.00  0.00     0.065 A 
HETATM   16  C14 UNL     1      47.898 -29.807 -99.070  1.00  0.00     0.037 A 
HETATM   17  C15 UNL     1      47.718 -29.632 -97.709  1.00  0.00     0.011 A 
BRANCH  15  18
HETATM   18  O2  UNL     1      49.174 -29.698-101.084  1.00  0.00    -0.361 OA
ATOM     19  H2  UNL     1      48.408 -29.622-101.641  1.00  0.00     0.217 HD
ENDBRANCH  15  18
ENDBRANCH   2  12
TORSDOF 4
ENDMDL
