MODEL 3
REMARK VINA RESULT: -9.861954156      0.252      1.638
REMARK  4 active torsions:
REMARK  status: ('A' for Active; 'I' for Inactive)
REMARK    1  A    between atoms: C2_2  and  C4_4 
REMARK    2  A    between atoms: C2_2  and  C10_12 
REMARK    3  A    between atoms: C7_7  and  O1_8 
REMARK    4  A    between atoms: C13_15  and  O2_16 
ROOT
HETATM    1  C1  UNL     1      47.806 -30.010 -94.871  1.00  0.00     0.025 C 
HETATM    2  C2  UNL     1      48.787 -29.010 -95.420  1.00  0.00     0.007 C 
HETATM    3  C3  UNL     1      50.136 -29.354 -94.822  1.00  0.00     0.025 C 
ENDROOT
BRANCH   2   4
HETATM    4  C4  UNL     1      48.440 -27.617 -95.120  1.00  0.00    -0.045 A 
HETATM    5  C5  UNL     1      49.226 -26.760 -94.407  1.00  0.00     0.011 A 
HETATM    6  C6  UNL     1      48.819 -25.464 -94.172  1.00  0.00     0.037 A 
HETATM    7  C7  UNL     1      47.616 -24.985 -94.642  1.00  0.00     0.065 A 
HETATM    8  C8  UNL     1      46.813 -25.838 -95.362  1.00  0.00     0.037 A 
HETATM    9  C9  UNL     1      47.233 -27.125 -95.586  1.00  0.00     0.011 A 
BRANCH   7  10
HETATM   10  O1  UNL     1      47.284 -23.667 -94.360  1.00  0.00    -0.361 OA
ATOM     11  H1  UNL     1      47.674 -23.261 -93.595  1.00  0.00     0.217 HD
ENDBRANCH   7  10
ENDBRANCH   2   4
BRANCH   2  12
HETATM   12  C10 UNL     1      48.800 -29.178 -96.897  1.00  0.00    -0.045 A 
HETATM   13  C11 UNL     1      49.940 -28.824 -97.585  1.00  0.00     0.011 A 
HETATM   14  C12 UNL     1      50.022 -28.957 -98.977  1.00  0.00     0.037 A 
HETATM   15  C13 UNL     1      48.931 -29.450 -99.636  1.00  0.00     0.065 A 
HETATM   16  C14 UNL     1      47.805 -29.800 -98.951  1.00  0.00     0.037 A 
HETATM   17  C15 UNL     1      47.707 -29.676 -97.577  1.00  0.00     0.011 A 
BRANCH  15  18
HETATM   18  O2  UNL     1      48.954 -29.606-101.034  1.00  0.00    -0.361 OA
ATOM     19  H2  UNL     1      48.434 -29.038-101.590  1.00  0.00     0.217 HD
ENDBRANCH  15  18
ENDBRANCH   2  12
TORSDOF 4
ENDMDL
