MODEL 7
REMARK VINA RESULT: -7.849756168      2.083      5.223
REMARK  9 active torsions:
REMARK  status: ('A' for Active; 'I' for Inactive)
REMARK    1  A    between atoms: C2_2  and  C3_3 
REMARK    2  A    between atoms: C3_3  and  C21_25 
REMARK    3  A    between atoms: C4_4  and  C5_5 
REMARK    4  A    between atoms: C4_4  and  C11_13 
REMARK    5  A    between atoms: C8_8  and  O1_9 
REMARK    6  A    between atoms: C14_16  and  O2_17 
REMARK    7  A    between atoms: O2_17  and  C15_18 
REMARK    8  A    between atoms: C15_18  and  C16_19 
REMARK    9  A    between atoms: C16_19  and  N1_20 
ROOT
HETATM    1  C3  UNL     1      49.521 -29.167 -97.025  1.00  0.00    -0.036 C 
HETATM    2  C4  UNL     1      49.485 -30.414 -96.604  1.00  0.00    -0.009 C 
ENDROOT
BRANCH   2   3
HETATM    3  C5  UNL     1      49.988 -31.515 -97.464  1.00  0.00    -0.024 A 
HETATM    4  C6  UNL     1      51.334 -31.764 -97.566  1.00  0.00     0.015 A 
HETATM    5  C7  UNL     1      51.829 -32.738 -98.377  1.00  0.00     0.037 A 
HETATM    6  C8  UNL     1      50.963 -33.511 -99.127  1.00  0.00     0.065 A 
HETATM    7  C9  UNL     1      49.610 -33.276 -99.039  1.00  0.00     0.037 A 
HETATM    8  C10 UNL     1      49.118 -32.263 -98.196  1.00  0.00     0.015 A 
BRANCH   6   9
HETATM    9  O1  UNL     1      51.441 -34.511 -99.961  1.00  0.00    -0.361 OA
ATOM     10  H1  UNL     1      50.849 -35.015-100.507  1.00  0.00     0.217 HD
ENDBRANCH   6   9
ENDBRANCH   2   3
BRANCH   2  11
HETATM   11  C11 UNL     1      49.044 -30.623 -95.235  1.00  0.00    -0.024 A 
HETATM   12  C12 UNL     1      49.929 -30.825 -94.224  1.00  0.00     0.015 A 
HETATM   13  C13 UNL     1      49.541 -30.997 -92.888  1.00  0.00     0.037 A 
HETATM   14  C14 UNL     1      48.216 -30.968 -92.535  1.00  0.00     0.068 A 
HETATM   15  C19 UNL     1      47.303 -30.758 -93.583  1.00  0.00     0.037 A 
HETATM   16  C20 UNL     1      47.699 -30.591 -94.885  1.00  0.00     0.015 A 
BRANCH  14  17
HETATM   17  O2  UNL     1      47.748 -31.132 -91.253  1.00  0.00    -0.349 OA
BRANCH  17  18
HETATM   18  C15 UNL     1      48.132 -31.968 -90.241  1.00  0.00     0.206 C 
BRANCH  18  19
HETATM   19  C16 UNL     1      47.016 -32.814 -89.686  1.00  0.00     0.297 C 
BRANCH  19  20
HETATM   20  N1  UNL     1      47.562 -33.866 -88.832  1.00  0.00     0.082 N 
HETATM   21  C17 UNL     1      47.268 -33.523 -87.436  1.00  0.00     0.309 C 
HETATM   22  C18 UNL     1      48.989 -33.908 -89.025  1.00  0.00     0.309 C 
ENDBRANCH  19  20
ENDBRANCH  18  19
ENDBRANCH  17  18
ENDBRANCH  14  17
ENDBRANCH   2  11
BRANCH   1  23
HETATM   23  C2  UNL     1      50.073 -28.856 -98.377  1.00  0.00     0.036 C 
HETATM   24  C1  UNL     1      48.940 -28.785 -99.393  1.00  0.00     0.010 C 
ENDBRANCH   1  23
BRANCH   1  25
HETATM   25  C21 UNL     1      49.002 -28.067 -96.248  1.00  0.00    -0.029 A 
HETATM   26  C22 UNL     1      49.716 -27.301 -95.356  1.00  0.00     0.012 A 
HETATM   27  C23 UNL     1      49.129 -26.266 -94.660  1.00  0.00     0.001 A 
HETATM   28  C24 UNL     1      47.797 -25.972 -94.847  1.00  0.00     0.000 A 
HETATM   29  C25 UNL     1      47.044 -26.729 -95.746  1.00  0.00     0.001 A 
HETATM   30  C26 UNL     1      47.647 -27.751 -96.423  1.00  0.00     0.012 A 
ENDBRANCH   1  25
TORSDOF 9
ENDMDL
