MODEL 3
REMARK VINA RESULT: -9.771421541      0.407      1.069
REMARK  9 active torsions:
REMARK  status: ('A' for Active; 'I' for Inactive)
REMARK    1  A    between atoms: C2_2  and  C3_3 
REMARK    2  A    between atoms: C3_3  and  C21_25 
REMARK    3  A    between atoms: C4_4  and  C5_5 
REMARK    4  A    between atoms: C4_4  and  C11_13 
REMARK    5  A    between atoms: C8_8  and  O1_9 
REMARK    6  A    between atoms: C14_16  and  O2_17 
REMARK    7  A    between atoms: O2_17  and  C15_18 
REMARK    8  A    between atoms: C15_18  and  C16_19 
REMARK    9  A    between atoms: C16_19  and  N1_20 
ROOT
HETATM    1  C3  UNL     1      48.936 -29.375 -97.586  1.00  0.00    -0.036 C 
HETATM    2  C4  UNL     1      48.738 -28.896 -96.375  1.00  0.00    -0.009 C 
ENDROOT
BRANCH   2   3
HETATM    3  C5  UNL     1      48.220 -27.518 -96.185  1.00  0.00    -0.024 A 
HETATM    4  C6  UNL     1      48.987 -26.560 -95.570  1.00  0.00     0.015 A 
HETATM    5  C7  UNL     1      48.526 -25.300 -95.345  1.00  0.00     0.037 A 
HETATM    6  C8  UNL     1      47.248 -24.956 -95.741  1.00  0.00     0.065 A 
HETATM    7  C9  UNL     1      46.463 -25.903 -96.359  1.00  0.00     0.037 A 
HETATM    8  C10 UNL     1      46.956 -27.201 -96.582  1.00  0.00     0.015 A 
BRANCH   6   9
HETATM    9  O1  UNL     1      46.753 -23.678 -95.525  1.00  0.00    -0.361 OA
ATOM     10  H1  UNL     1      45.841 -23.540 -95.301  1.00  0.00     0.217 HD
ENDBRANCH   6   9
ENDBRANCH   2   3
BRANCH   2  11
HETATM   11  C11 UNL     1      48.940 -29.821 -95.272  1.00  0.00    -0.024 A 
HETATM   12  C12 UNL     1      47.895 -30.420 -94.644  1.00  0.00     0.015 A 
HETATM   13  C13 UNL     1      48.054 -31.341 -93.600  1.00  0.00     0.037 A 
HETATM   14  C14 UNL     1      49.304 -31.685 -93.155  1.00  0.00     0.068 A 
HETATM   15  C19 UNL     1      50.384 -31.064 -93.808  1.00  0.00     0.037 A 
HETATM   16  C20 UNL     1      50.211 -30.165 -94.828  1.00  0.00     0.015 A 
BRANCH  14  17
HETATM   17  O2  UNL     1      49.551 -32.574 -92.136  1.00  0.00    -0.349 OA
BRANCH  17  18
HETATM   18  C15 UNL     1      49.835 -32.389 -90.812  1.00  0.00     0.206 C 
BRANCH  18  19
HETATM   19  C16 UNL     1      50.635 -33.505 -90.191  1.00  0.00     0.297 C 
BRANCH  19  20
HETATM   20  N1  UNL     1      49.875 -34.123 -89.107  1.00  0.00     0.082 N 
HETATM   21  C17 UNL     1      48.545 -33.505 -89.068  1.00  0.00     0.309 C 
HETATM   22  C18 UNL     1      50.561 -33.861 -87.869  1.00  0.00     0.309 C 
ENDBRANCH  19  20
ENDBRANCH  18  19
ENDBRANCH  17  18
ENDBRANCH  14  17
ENDBRANCH   2  11
BRANCH   1  23
HETATM   23  C2  UNL     1      48.638 -28.525 -98.777  1.00  0.00     0.036 C 
HETATM   24  C1  UNL     1      47.584 -29.204 -99.644  1.00  0.00     0.010 C 
ENDBRANCH   1  23
BRANCH   1  25
HETATM   25  C21 UNL     1      49.482 -30.689 -97.824  1.00  0.00    -0.029 A 
HETATM   26  C22 UNL     1      48.797 -31.877 -97.727  1.00  0.00     0.012 A 
HETATM   27  C23 UNL     1      49.407 -33.087 -97.978  1.00  0.00     0.001 A 
HETATM   28  C24 UNL     1      50.736 -33.132 -98.338  1.00  0.00     0.000 A 
HETATM   29  C25 UNL     1      51.461 -31.944 -98.446  1.00  0.00     0.001 A 
HETATM   30  C26 UNL     1      50.834 -30.757 -98.192  1.00  0.00     0.012 A 
ENDBRANCH   1  25
TORSDOF 9
ENDMDL
