MODEL 6
REMARK VINA RESULT: -8.099682820      2.164      5.343
REMARK  9 active torsions:
REMARK  status: ('A' for Active; 'I' for Inactive)
REMARK    1  A    between atoms: C2_2  and  C3_3 
REMARK    2  A    between atoms: C3_3  and  C21_25 
REMARK    3  A    between atoms: C4_4  and  C5_5 
REMARK    4  A    between atoms: C4_4  and  C11_13 
REMARK    5  A    between atoms: C8_8  and  O1_9 
REMARK    6  A    between atoms: C14_16  and  O2_17 
REMARK    7  A    between atoms: O2_17  and  C15_18 
REMARK    8  A    between atoms: C15_18  and  C16_19 
REMARK    9  A    between atoms: C16_19  and  N1_20 
ROOT
HETATM    1  C3  UNL     1      49.438 -29.031 -97.061  1.00  0.00    -0.036 C 
HETATM    2  C4  UNL     1      49.440 -30.277 -96.634  1.00  0.00    -0.009 C 
ENDROOT
BRANCH   2   3
HETATM    3  C5  UNL     1      49.933 -31.372 -97.507  1.00  0.00    -0.024 A 
HETATM    4  C6  UNL     1      49.053 -32.177 -98.186  1.00  0.00     0.015 A 
HETATM    5  C7  UNL     1      49.472 -33.213 -98.961  1.00  0.00     0.037 A 
HETATM    6  C8  UNL     1      50.823 -33.479 -99.079  1.00  0.00     0.065 A 
HETATM    7  C9  UNL     1      51.721 -32.684 -98.406  1.00  0.00     0.037 A 
HETATM    8  C10 UNL     1      51.269 -31.617 -97.608  1.00  0.00     0.015 A 
BRANCH   6   9
HETATM    9  O1  UNL     1      51.277 -34.529 -99.864  1.00  0.00    -0.361 OA
ATOM     10  H1  UNL     1      50.709 -35.258-100.079  1.00  0.00     0.217 HD
ENDBRANCH   6   9
ENDBRANCH   2   3
BRANCH   2  11
HETATM   11  C11 UNL     1      49.051 -30.487 -95.249  1.00  0.00    -0.024 A 
HETATM   12  C12 UNL     1      47.747 -30.583 -94.883  1.00  0.00     0.015 A 
HETATM   13  C13 UNL     1      47.336 -30.817 -93.563  1.00  0.00     0.037 A 
HETATM   14  C14 UNL     1      48.259 -30.961 -92.559  1.00  0.00     0.068 A 
HETATM   15  C19 UNL     1      49.608 -30.862 -92.942  1.00  0.00     0.037 A 
HETATM   16  C20 UNL     1      49.993 -30.633 -94.238  1.00  0.00     0.015 A 
BRANCH  14  17
HETATM   17  O2  UNL     1      47.945 -31.188 -91.240  1.00  0.00    -0.349 OA
BRANCH  17  18
HETATM   18  C15 UNL     1      48.240 -32.221 -90.396  1.00  0.00     0.206 C 
BRANCH  18  19
HETATM   19  C16 UNL     1      47.050 -32.768 -89.651  1.00  0.00     0.297 C 
BRANCH  19  20
HETATM   20  N1  UNL     1      47.490 -33.709 -88.624  1.00  0.00     0.082 N 
HETATM   21  C17 UNL     1      46.409 -34.675 -88.394  1.00  0.00     0.309 C 
HETATM   22  C18 UNL     1      47.739 -32.972 -87.413  1.00  0.00     0.309 C 
ENDBRANCH  19  20
ENDBRANCH  18  19
ENDBRANCH  17  18
ENDBRANCH  14  17
ENDBRANCH   2  11
BRANCH   1  23
HETATM   23  C2  UNL     1      49.937 -28.717 -98.434  1.00  0.00     0.036 C 
HETATM   24  C1  UNL     1      48.771 -28.699 -99.415  1.00  0.00     0.010 C 
ENDBRANCH   1  23
BRANCH   1  25
HETATM   25  C21 UNL     1      48.927 -27.938 -96.271  1.00  0.00    -0.029 A 
HETATM   26  C22 UNL     1      47.612 -27.541 -96.197  1.00  0.00     0.012 A 
HETATM   27  C23 UNL     1      47.220 -26.481 -95.407  1.00  0.00     0.001 A 
HETATM   28  C24 UNL     1      48.150 -25.787 -94.665  1.00  0.00     0.000 A 
HETATM   29  C25 UNL     1      49.493 -26.164 -94.717  1.00  0.00     0.001 A 
HETATM   30  C26 UNL     1      49.858 -27.218 -95.507  1.00  0.00     0.012 A 
ENDBRANCH   1  25
TORSDOF 9
ENDMDL
