MODEL 5
REMARK VINA RESULT: -8.242487722      2.062      5.343
REMARK  9 active torsions:
REMARK  status: ('A' for Active; 'I' for Inactive)
REMARK    1  A    between atoms: C2_2  and  C3_3 
REMARK    2  A    between atoms: C3_3  and  C21_25 
REMARK    3  A    between atoms: C4_4  and  C5_5 
REMARK    4  A    between atoms: C4_4  and  C11_13 
REMARK    5  A    between atoms: C8_8  and  O1_9 
REMARK    6  A    between atoms: C14_16  and  O2_17 
REMARK    7  A    between atoms: O2_17  and  C15_18 
REMARK    8  A    between atoms: C15_18  and  C16_19 
REMARK    9  A    between atoms: C16_19  and  N1_20 
ROOT
HETATM    1  C3  UNL     1      49.479 -29.061 -97.083  1.00  0.00    -0.036 C 
HETATM    2  C4  UNL     1      49.451 -30.306 -96.652  1.00  0.00    -0.009 C 
ENDROOT
BRANCH   2   3
HETATM    3  C5  UNL     1      49.928 -31.414 -97.518  1.00  0.00    -0.024 A 
HETATM    4  C6  UNL     1      49.035 -32.204 -98.199  1.00  0.00     0.015 A 
HETATM    5  C7  UNL     1      49.439 -33.252 -98.967  1.00  0.00     0.037 A 
HETATM    6  C8  UNL     1      50.785 -33.544 -99.077  1.00  0.00     0.065 A 
HETATM    7  C9  UNL     1      51.695 -32.763 -98.402  1.00  0.00     0.037 A 
HETATM    8  C10 UNL     1      51.259 -31.685 -97.611  1.00  0.00     0.015 A 
BRANCH   6   9
HETATM    9  O1  UNL     1      51.223 -34.605 -99.855  1.00  0.00    -0.361 OA
ATOM     10  H1  UNL     1      50.988 -35.499 -99.637  1.00  0.00     0.217 HD
ENDBRANCH   6   9
ENDBRANCH   2   3
BRANCH   2  11
HETATM   11  C11 UNL     1      49.047 -30.503 -95.270  1.00  0.00    -0.024 A 
HETATM   12  C12 UNL     1      47.738 -30.528 -94.908  1.00  0.00     0.015 A 
HETATM   13  C13 UNL     1      47.311 -30.748 -93.591  1.00  0.00     0.037 A 
HETATM   14  C14 UNL     1      48.221 -30.951 -92.585  1.00  0.00     0.068 A 
HETATM   15  C19 UNL     1      49.575 -30.925 -92.964  1.00  0.00     0.037 A 
HETATM   16  C20 UNL     1      49.975 -30.709 -94.258  1.00  0.00     0.015 A 
BRANCH  14  17
HETATM   17  O2  UNL     1      47.891 -31.169 -91.269  1.00  0.00    -0.349 OA
BRANCH  17  18
HETATM   18  C15 UNL     1      48.273 -32.134 -90.380  1.00  0.00     0.206 C 
BRANCH  18  19
HETATM   19  C16 UNL     1      47.124 -32.848 -89.714  1.00  0.00     0.297 C 
BRANCH  19  20
HETATM   20  N1  UNL     1      47.624 -33.733 -88.665  1.00  0.00     0.082 N 
HETATM   21  C17 UNL     1      47.538 -33.021 -87.385  1.00  0.00     0.309 C 
HETATM   22  C18 UNL     1      49.002 -34.038 -88.951  1.00  0.00     0.309 C 
ENDBRANCH  19  20
ENDBRANCH  18  19
ENDBRANCH  17  18
ENDBRANCH  14  17
ENDBRANCH   2  11
BRANCH   1  23
HETATM   23  C2  UNL     1      49.995 -28.762 -98.452  1.00  0.00     0.036 C 
HETATM   24  C1  UNL     1      48.845 -28.775 -99.452  1.00  0.00     0.010 C 
ENDBRANCH   1  23
BRANCH   1  25
HETATM   25  C21 UNL     1      48.984 -27.955 -96.300  1.00  0.00    -0.029 A 
HETATM   26  C22 UNL     1      49.716 -27.204 -95.412  1.00  0.00     0.012 A 
HETATM   27  C23 UNL     1      49.153 -26.160 -94.710  1.00  0.00     0.001 A 
HETATM   28  C24 UNL     1      47.824 -25.843 -94.887  1.00  0.00     0.000 A 
HETATM   29  C25 UNL     1      47.052 -26.585 -95.782  1.00  0.00     0.001 A 
HETATM   30  C26 UNL     1      47.633 -27.615 -96.466  1.00  0.00     0.012 A 
ENDBRANCH   1  25
TORSDOF 9
ENDMDL
