MODEL 2
REMARK VINA RESULT: -9.792323349      1.022      1.354
REMARK  9 active torsions:
REMARK  status: ('A' for Active; 'I' for Inactive)
REMARK    1  A    between atoms: C2_2  and  C3_3 
REMARK    2  A    between atoms: C3_3  and  C21_25 
REMARK    3  A    between atoms: C4_4  and  C5_5 
REMARK    4  A    between atoms: C4_4  and  C11_13 
REMARK    5  A    between atoms: C8_8  and  O1_9 
REMARK    6  A    between atoms: C14_16  and  O2_17 
REMARK    7  A    between atoms: O2_17  and  C15_18 
REMARK    8  A    between atoms: C15_18  and  C16_19 
REMARK    9  A    between atoms: C16_19  and  N1_20 
ROOT
HETATM    1  C3  UNL     1      48.982 -29.298 -97.567  1.00  0.00    -0.036 C 
HETATM    2  C4  UNL     1      48.718 -28.831 -96.363  1.00  0.00    -0.009 C 
ENDROOT
BRANCH   2   3
HETATM    3  C5  UNL     1      48.208 -27.448 -96.187  1.00  0.00    -0.024 A 
HETATM    4  C6  UNL     1      48.968 -26.498 -95.551  1.00  0.00     0.015 A 
HETATM    5  C7  UNL     1      48.513 -25.234 -95.338  1.00  0.00     0.037 A 
HETATM    6  C8  UNL     1      47.250 -24.877 -95.769  1.00  0.00     0.065 A 
HETATM    7  C9  UNL     1      46.473 -25.816 -96.408  1.00  0.00     0.037 A 
HETATM    8  C10 UNL     1      46.959 -27.119 -96.618  1.00  0.00     0.015 A 
BRANCH   6   9
HETATM    9  O1  UNL     1      46.762 -23.595 -95.565  1.00  0.00    -0.361 OA
ATOM     10  H1  UNL     1      45.870 -23.453 -95.271  1.00  0.00     0.217 HD
ENDBRANCH   6   9
ENDBRANCH   2   3
BRANCH   2  11
HETATM   11  C11 UNL     1      48.841 -29.772 -95.263  1.00  0.00    -0.024 A 
HETATM   12  C12 UNL     1      50.052 -30.112 -94.748  1.00  0.00     0.015 A 
HETATM   13  C13 UNL     1      50.206 -30.991 -93.667  1.00  0.00     0.037 A 
HETATM   14  C14 UNL     1      49.113 -31.561 -93.068  1.00  0.00     0.068 A 
HETATM   15  C19 UNL     1      47.861 -31.207 -93.602  1.00  0.00     0.037 A 
HETATM   16  C20 UNL     1      47.728 -30.345 -94.661  1.00  0.00     0.015 A 
BRANCH  14  17
HETATM   17  O2  UNL     1      49.173 -32.435 -92.008  1.00  0.00    -0.349 OA
BRANCH  17  18
HETATM   18  C15 UNL     1      49.035 -32.248 -90.662  1.00  0.00     0.206 C 
BRANCH  18  19
HETATM   19  C16 UNL     1      47.606 -32.118 -90.202  1.00  0.00     0.297 C 
BRANCH  19  20
HETATM   20  N1  UNL     1      47.393 -32.916 -88.997  1.00  0.00     0.082 N 
HETATM   21  C17 UNL     1      48.465 -33.914 -88.913  1.00  0.00     0.309 C 
HETATM   22  C18 UNL     1      46.123 -33.585 -89.117  1.00  0.00     0.309 C 
ENDBRANCH  19  20
ENDBRANCH  18  19
ENDBRANCH  17  18
ENDBRANCH  14  17
ENDBRANCH   2  11
BRANCH   1  23
HETATM   23  C2  UNL     1      48.766 -28.430 -98.763  1.00  0.00     0.036 C 
HETATM   24  C1  UNL     1      47.703 -29.047 -99.663  1.00  0.00     0.010 C 
ENDBRANCH   1  23
BRANCH   1  25
HETATM   25  C21 UNL     1      49.522 -30.617 -97.789  1.00  0.00    -0.029 A 
HETATM   26  C22 UNL     1      48.821 -31.798 -97.727  1.00  0.00     0.012 A 
HETATM   27  C23 UNL     1      49.428 -33.014 -97.959  1.00  0.00     0.001 A 
HETATM   28  C24 UNL     1      50.770 -33.072 -98.263  1.00  0.00     0.000 A 
HETATM   29  C25 UNL     1      51.512 -31.891 -98.334  1.00  0.00     0.001 A 
HETATM   30  C26 UNL     1      50.888 -30.698 -98.099  1.00  0.00     0.012 A 
ENDBRANCH   1  25
TORSDOF 9
ENDMDL
