MODEL 1
REMARK VINA RESULT: -9.875451553      0.000      0.000
REMARK  9 active torsions:
REMARK  status: ('A' for Active; 'I' for Inactive)
REMARK    1  A    between atoms: C2_2  and  C3_3 
REMARK    2  A    between atoms: C3_3  and  C21_25 
REMARK    3  A    between atoms: C4_4  and  C5_5 
REMARK    4  A    between atoms: C4_4  and  C11_13 
REMARK    5  A    between atoms: C8_8  and  O1_9 
REMARK    6  A    between atoms: C14_16  and  O2_17 
REMARK    7  A    between atoms: O2_17  and  C15_18 
REMARK    8  A    between atoms: C15_18  and  C16_19 
REMARK    9  A    between atoms: C16_19  and  N1_20 
ROOT
HETATM    1  C3  UNL     1      48.943 -29.375 -97.576  1.00  0.00    -0.036 C 
HETATM    2  C4  UNL     1      48.727 -28.896 -96.368  1.00  0.00    -0.009 C 
ENDROOT
BRANCH   2   3
HETATM    3  C5  UNL     1      48.215 -27.515 -96.184  1.00  0.00    -0.024 A 
HETATM    4  C6  UNL     1      48.991 -26.555 -95.584  1.00  0.00     0.015 A 
HETATM    5  C7  UNL     1      48.536 -25.292 -95.365  1.00  0.00     0.037 A 
HETATM    6  C8  UNL     1      47.255 -24.948 -95.752  1.00  0.00     0.065 A 
HETATM    7  C9  UNL     1      46.461 -25.897 -96.354  1.00  0.00     0.037 A 
HETATM    8  C10 UNL     1      46.949 -27.199 -96.571  1.00  0.00     0.015 A 
BRANCH   6   9
HETATM    9  O1  UNL     1      46.766 -23.667 -95.541  1.00  0.00    -0.361 OA
ATOM     10  H1  UNL     1      46.541 -23.368 -94.668  1.00  0.00     0.217 HD
ENDBRANCH   6   9
ENDBRANCH   2   3
BRANCH   2  11
HETATM   11  C11 UNL     1      48.905 -29.825 -95.264  1.00  0.00    -0.024 A 
HETATM   12  C12 UNL     1      50.139 -30.156 -94.804  1.00  0.00     0.015 A 
HETATM   13  C13 UNL     1      50.347 -31.022 -93.721  1.00  0.00     0.037 A 
HETATM   14  C14 UNL     1      49.285 -31.588 -93.064  1.00  0.00     0.068 A 
HETATM   15  C19 UNL     1      48.009 -31.243 -93.543  1.00  0.00     0.037 A 
HETATM   16  C20 UNL     1      47.823 -30.393 -94.603  1.00  0.00     0.015 A 
BRANCH  14  17
HETATM   17  O2  UNL     1      49.398 -32.450 -91.999  1.00  0.00    -0.349 OA
BRANCH  17  18
HETATM   18  C15 UNL     1      50.026 -32.330 -90.791  1.00  0.00     0.206 C 
BRANCH  18  19
HETATM   19  C16 UNL     1      49.443 -33.198 -89.705  1.00  0.00     0.297 C 
BRANCH  19  20
HETATM   20  N1  UNL     1      50.514 -33.813 -88.926  1.00  0.00     0.082 N 
HETATM   21  C17 UNL     1      50.146 -33.746 -87.507  1.00  0.00     0.309 C 
HETATM   22  C18 UNL     1      51.722 -33.059 -89.144  1.00  0.00     0.309 C 
ENDBRANCH  19  20
ENDBRANCH  18  19
ENDBRANCH  17  18
ENDBRANCH  14  17
ENDBRANCH   2  11
BRANCH   1  23
HETATM   23  C2  UNL     1      48.669 -28.521 -98.771  1.00  0.00     0.036 C 
HETATM   24  C1  UNL     1      47.570 -29.153 -99.615  1.00  0.00     0.010 C 
ENDBRANCH   1  23
BRANCH   1  25
HETATM   25  C21 UNL     1      49.483 -30.692 -97.808  1.00  0.00    -0.029 A 
HETATM   26  C22 UNL     1      48.792 -31.877 -97.712  1.00  0.00     0.012 A 
HETATM   27  C23 UNL     1      49.399 -33.090 -97.956  1.00  0.00     0.001 A 
HETATM   28  C24 UNL     1      50.730 -33.142 -98.307  1.00  0.00     0.000 A 
HETATM   29  C25 UNL     1      51.460 -31.958 -98.414  1.00  0.00     0.001 A 
HETATM   30  C26 UNL     1      50.838 -30.767 -98.167  1.00  0.00     0.012 A 
ENDBRANCH   1  25
TORSDOF 9
ENDMDL
