MODEL 4
REMARK VINA RESULT: -9.182436891      0.644      1.549
REMARK  9 active torsions:
REMARK  status: ('A' for Active; 'I' for Inactive)
REMARK    1  A    between atoms: C2_2  and  C3_3 
REMARK    2  A    between atoms: C3_3  and  C21_25 
REMARK    3  A    between atoms: C4_4  and  C5_5 
REMARK    4  A    between atoms: C4_4  and  C11_13 
REMARK    5  A    between atoms: C8_8  and  O1_9 
REMARK    6  A    between atoms: C14_16  and  O2_17 
REMARK    7  A    between atoms: O2_17  and  C15_18 
REMARK    8  A    between atoms: C15_18  and  C16_19 
REMARK    9  A    between atoms: C16_19  and  N1_20 
ROOT
HETATM    1  C3  UNL     1      49.004 -29.612 -97.621  1.00  0.00    -0.036 C 
HETATM    2  C4  UNL     1      48.879 -29.133 -96.400  1.00  0.00    -0.009 C 
ENDROOT
BRANCH   2   3
HETATM    3  C5  UNL     1      48.386 -27.750 -96.179  1.00  0.00    -0.024 A 
HETATM    4  C6  UNL     1      49.156 -26.831 -95.511  1.00  0.00     0.015 A 
HETATM    5  C7  UNL     1      48.717 -25.569 -95.258  1.00  0.00     0.037 A 
HETATM    6  C8  UNL     1      47.459 -25.183 -95.679  1.00  0.00     0.065 A 
HETATM    7  C9  UNL     1      46.672 -26.090 -96.349  1.00  0.00     0.037 A 
HETATM    8  C10 UNL     1      47.142 -27.392 -96.601  1.00  0.00     0.015 A 
BRANCH   6   9
HETATM    9  O1  UNL     1      46.987 -23.902 -95.434  1.00  0.00    -0.361 OA
ATOM     10  H1  UNL     1      46.619 -23.670 -94.590  1.00  0.00     0.217 HD
ENDBRANCH   6   9
ENDBRANCH   2   3
BRANCH   2  11
HETATM   11  C11 UNL     1      49.133 -30.063 -95.312  1.00  0.00    -0.024 A 
HETATM   12  C12 UNL     1      48.120 -30.608 -94.590  1.00  0.00     0.015 A 
HETATM   13  C13 UNL     1      48.327 -31.532 -93.556  1.00  0.00     0.037 A 
HETATM   14  C14 UNL     1      49.593 -31.934 -93.220  1.00  0.00     0.068 A 
HETATM   15  C19 UNL     1      50.640 -31.369 -93.970  1.00  0.00     0.037 A 
HETATM   16  C20 UNL     1      50.420 -30.466 -94.979  1.00  0.00     0.015 A 
BRANCH  14  17
HETATM   17  O2  UNL     1      49.886 -32.830 -92.219  1.00  0.00    -0.349 OA
BRANCH  17  18
HETATM   18  C15 UNL     1      49.945 -32.694 -90.861  1.00  0.00     0.206 C 
BRANCH  18  19
HETATM   19  C16 UNL     1      50.815 -33.716 -90.176  1.00  0.00     0.297 C 
BRANCH  19  20
HETATM   20  N1  UNL     1      51.420 -33.138 -88.979  1.00  0.00     0.082 N 
HETATM   21  C17 UNL     1      52.841 -33.505 -88.960  1.00  0.00     0.309 C 
HETATM   22  C18 UNL     1      50.766 -33.699 -87.826  1.00  0.00     0.309 C 
ENDBRANCH  19  20
ENDBRANCH  18  19
ENDBRANCH  17  18
ENDBRANCH  14  17
ENDBRANCH   2  11
BRANCH   1  23
HETATM   23  C2  UNL     1      48.648 -28.756 -98.793  1.00  0.00     0.036 C 
HETATM   24  C1  UNL     1      49.835 -28.662 -99.743  1.00  0.00     0.010 C 
ENDBRANCH   1  23
BRANCH   1  25
HETATM   25  C21 UNL     1      49.522 -30.931 -97.892  1.00  0.00    -0.029 A 
HETATM   26  C22 UNL     1      50.845 -31.259 -98.066  1.00  0.00     0.012 A 
HETATM   27  C23 UNL     1      51.243 -32.554 -98.319  1.00  0.00     0.001 A 
HETATM   28  C24 UNL     1      50.308 -33.563 -98.402  1.00  0.00     0.000 A 
HETATM   29  C25 UNL     1      48.956 -33.264 -98.230  1.00  0.00     0.001 A 
HETATM   30  C26 UNL     1      48.586 -31.973 -97.981  1.00  0.00     0.012 A 
ENDBRANCH   1  25
TORSDOF 9
ENDMDL
