MODEL 8
REMARK VINA RESULT: -7.587924301      3.999      8.772
REMARK  5 active torsions:
REMARK  status: ('A' for Active; 'I' for Inactive)
REMARK       I    between atoms: C1_2  and  N1_3 
REMARK    1  A    between atoms: C1_2  and  C12_20 
REMARK    2  A    between atoms: N1_3  and  C2_5 
REMARK    3  A    between atoms: C6_9  and  N2_10 
REMARK       I    between atoms: N2_10  and  C7_12 
REMARK    4  A    between atoms: C7_12  and  C8_14 
REMARK    5  A    between atoms: C15_23  and  N3_24 
ROOT
HETATM    1  O1  UNL     1       4.909  41.787  58.030  1.00  0.00    -0.268 OA
HETATM    2  C1  UNL     1       5.358  42.969  58.057  1.00  0.00     0.252 C 
HETATM    3  N1  UNL     1       5.047  43.790  56.971  1.00  0.00    -0.350 N 
ATOM      4  H1  UNL     1       5.400  44.747  56.975  1.00  0.00     0.163 HD
ENDROOT
BRANCH   3   5
HETATM    5  C2  UNL     1       4.249  43.362  55.833  1.00  0.00     0.107 C 
HETATM    6  C3  UNL     1       3.581  44.604  55.277  1.00  0.00     0.027 C 
HETATM    7  C4  UNL     1       4.769  45.336  54.677  1.00  0.00     0.004 C 
HETATM    8  C5  UNL     1       5.752  44.257  54.271  1.00  0.00     0.027 C 
HETATM    9  C6  UNL     1       5.117  42.958  54.667  1.00  0.00     0.107 C 
BRANCH   9  10
HETATM   10  N2  UNL     1       6.064  41.934  55.005  1.00  0.00    -0.350 N 
HETATM   11  C7  UNL     1       5.776  40.564  54.885  1.00  0.00     0.259 C 
HETATM   12  O2  UNL     1       4.624  40.256  54.457  1.00  0.00    -0.267 OA
ATOM     13  H2  UNL     1       6.984  42.212  55.346  1.00  0.00     0.163 HD
BRANCH  11  14
HETATM   14  C8  UNL     1       6.749  39.521  55.234  1.00  0.00     0.074 A 
HETATM   15  C9  UNL     1       6.958  38.284  54.693  1.00  0.00     0.027 A 
HETATM   16  C10 UNL     1       7.932  37.538  55.225  1.00  0.00     0.033 A 
HETATM   17  C11 UNL     1       8.641  38.072  56.266  1.00  0.00     0.075 A 
HETATM   18 CL1  UNL     1       9.976  37.321  57.160  1.00  0.00    -0.076 Cl
HETATM   19  S1  UNL     1       7.917  39.607  56.467  1.00  0.00    -0.072 SA
ENDBRANCH  11  14
ENDBRANCH   9  10
ENDBRANCH   3   5
BRANCH   2  20
HETATM   20  C12 UNL     1       6.155  43.374  59.209  1.00  0.00     0.032 A 
HETATM   21  C13 UNL     1       7.308  42.725  59.599  1.00  0.00     0.019 A 
HETATM   22  C14 UNL     1       8.069  43.099  60.687  1.00  0.00     0.031 A 
HETATM   23  C15 UNL     1       7.658  44.182  61.429  1.00  0.00     0.042 A 
HETATM   24  C21 UNL     1       6.516  44.868  61.089  1.00  0.00     0.031 A 
HETATM   25  C22 UNL     1       5.779  44.454  59.981  1.00  0.00     0.019 A 
BRANCH  23  26
HETATM   26  N3  UNL     1       8.468  44.551  62.558  1.00  0.00    -0.290 N 
HETATM   27  C16 UNL     1       8.184  44.103  63.790  1.00  0.00     0.100 A 
HETATM   28  C17 UNL     1       8.926  44.426  64.904  1.00  0.00     0.018 A 
HETATM   29  C18 UNL     1      10.021  45.252  64.762  1.00  0.00     0.007 A 
HETATM   30  C19 UNL     1      10.289  45.697  63.485  1.00  0.00     0.075 A 
HETATM   31  C20 UNL     1       9.526  45.354  62.398  1.00  0.00     0.252 A 
HETATM   32  O3  UNL     1       9.814  45.791  61.234  1.00  0.00    -0.268 OA
ENDBRANCH  23  26
ENDBRANCH   2  20
TORSDOF 5
ENDMDL
