MODEL 3
REMARK VINA RESULT: -9.097917828      0.878      1.205
REMARK  5 active torsions:
REMARK  status: ('A' for Active; 'I' for Inactive)
REMARK       I    between atoms: C1_2  and  N1_3 
REMARK    1  A    between atoms: C1_2  and  C12_20 
REMARK    2  A    between atoms: N1_3  and  C2_5 
REMARK    3  A    between atoms: C6_9  and  N2_10 
REMARK       I    between atoms: N2_10  and  C7_12 
REMARK    4  A    between atoms: C7_12  and  C8_14 
REMARK    5  A    between atoms: C15_23  and  N3_24 
ROOT
HETATM    1  O1  UNL     1       6.076  44.486  59.079  1.00  0.00    -0.268 OA
HETATM    2  C1  UNL     1       6.304  43.413  59.709  1.00  0.00     0.252 C 
HETATM    3  N1  UNL     1       6.083  43.429  61.088  1.00  0.00    -0.350 N 
ATOM      4  H1  UNL     1       6.261  42.573  61.612  1.00  0.00     0.163 HD
ENDROOT
BRANCH   3   5
HETATM    5  C2  UNL     1       5.615  44.594  61.820  1.00  0.00     0.107 C 
HETATM    6  C3  UNL     1       4.135  44.733  61.518  1.00  0.00     0.027 C 
HETATM    7  C4  UNL     1       3.567  43.538  62.264  1.00  0.00     0.004 C 
HETATM    8  C5  UNL     1       4.503  43.301  63.430  1.00  0.00     0.027 C 
HETATM    9  C6  UNL     1       5.579  44.338  63.307  1.00  0.00     0.107 C 
BRANCH   9  10
HETATM   10  N2  UNL     1       6.847  43.916  63.830  1.00  0.00    -0.350 N 
HETATM   11  C7  UNL     1       7.899  44.813  64.086  1.00  0.00     0.259 C 
HETATM   12  O2  UNL     1       7.684  46.036  63.833  1.00  0.00    -0.267 OA
ATOM     13  H2  UNL     1       6.992  42.926  64.025  1.00  0.00     0.163 HD
BRANCH  11  14
HETATM   14  C8  UNL     1       9.195  44.375  64.620  1.00  0.00     0.074 A 
HETATM   15  C9  UNL     1       9.491  43.485  65.614  1.00  0.00     0.027 A 
HETATM   16  C10 UNL     1      10.783  43.282  65.891  1.00  0.00     0.033 A 
HETATM   17  C11 UNL     1      11.705  43.980  65.159  1.00  0.00     0.075 A 
HETATM   18 CL1  UNL     1      13.471  43.915  65.303  1.00  0.00    -0.076 Cl
HETATM   19  S1  UNL     1      10.727  44.902  64.102  1.00  0.00    -0.072 SA
ENDBRANCH  11  14
ENDBRANCH   9  10
ENDBRANCH   3   5
BRANCH   2  20
HETATM   20  C12 UNL     1       6.773  42.259  58.951  1.00  0.00     0.032 A 
HETATM   21  C13 UNL     1       7.055  42.302  57.601  1.00  0.00     0.019 A 
HETATM   22  C14 UNL     1       7.498  41.217  56.875  1.00  0.00     0.031 A 
HETATM   23  C15 UNL     1       7.669  40.019  57.529  1.00  0.00     0.042 A 
HETATM   24  C21 UNL     1       7.403  39.915  58.874  1.00  0.00     0.031 A 
HETATM   25  C22 UNL     1       6.958  41.038  59.568  1.00  0.00     0.019 A 
BRANCH  23  26
HETATM   26  N3  UNL     1       8.132  38.904  56.750  1.00  0.00    -0.290 N 
HETATM   27  C16 UNL     1       7.286  38.194  55.987  1.00  0.00     0.100 A 
HETATM   28  C17 UNL     1       7.677  37.118  55.222  1.00  0.00     0.018 A 
HETATM   29  C18 UNL     1       9.002  36.737  55.230  1.00  0.00     0.007 A 
HETATM   30  C19 UNL     1       9.847  37.484  56.022  1.00  0.00     0.075 A 
HETATM   31  C20 UNL     1       9.422  38.551  56.771  1.00  0.00     0.252 A 
HETATM   32  O3  UNL     1      10.244  39.213  57.490  1.00  0.00    -0.268 OA
ENDBRANCH  23  26
ENDBRANCH   2  20
TORSDOF 5
ENDMDL
