MODEL 1
REMARK VINA RESULT: -10.485871392      0.000      0.000
REMARK  5 active torsions:
REMARK  status: ('A' for Active; 'I' for Inactive)
REMARK       I    between atoms: C1_2  and  N1_3 
REMARK    1  A    between atoms: C1_2  and  C12_20 
REMARK    2  A    between atoms: N1_3  and  C2_5 
REMARK    3  A    between atoms: C6_9  and  N2_10 
REMARK       I    between atoms: N2_10  and  C7_12 
REMARK    4  A    between atoms: C7_12  and  C8_14 
REMARK    5  A    between atoms: C15_23  and  N3_24 
ROOT
HETATM    1  O1  UNL     1       6.541  44.347  59.236  1.00  0.00    -0.268 OA
HETATM    2  C1  UNL     1       6.661  43.264  59.879  1.00  0.00     0.252 C 
HETATM    3  N1  UNL     1       6.292  43.283  61.226  1.00  0.00    -0.350 N 
ATOM      4  H1  UNL     1       6.382  42.419  61.760  1.00  0.00     0.163 HD
ENDROOT
BRANCH   3   5
HETATM    5  C2  UNL     1       5.789  44.461  61.912  1.00  0.00     0.107 C 
HETATM    6  C3  UNL     1       4.318  44.576  61.558  1.00  0.00     0.027 C 
HETATM    7  C4  UNL     1       3.738  43.395  62.317  1.00  0.00     0.004 C 
HETATM    8  C5  UNL     1       4.638  43.199  63.519  1.00  0.00     0.027 C 
HETATM    9  C6  UNL     1       5.707  44.244  63.403  1.00  0.00     0.107 C 
BRANCH   9  10
HETATM   10  N2  UNL     1       6.962  43.850  63.978  1.00  0.00    -0.350 N 
HETATM   11  C7  UNL     1       8.024  44.750  64.173  1.00  0.00     0.259 C 
HETATM   12  O2  UNL     1       7.831  45.950  63.815  1.00  0.00    -0.267 OA
ATOM     13  H2  UNL     1       7.088  42.877  64.257  1.00  0.00     0.163 HD
BRANCH  11  14
HETATM   14  C8  UNL     1       9.305  44.341  64.760  1.00  0.00     0.074 A 
HETATM   15  C9  UNL     1       9.577  43.485  65.790  1.00  0.00     0.027 A 
HETATM   16  C10 UNL     1      10.861  43.302  66.114  1.00  0.00     0.033 A 
HETATM   17  C11 UNL     1      11.800  43.984  65.388  1.00  0.00     0.075 A 
HETATM   18 CL1  UNL     1      13.562  43.938  65.588  1.00  0.00    -0.076 Cl
HETATM   19  S1  UNL     1      10.848  44.864  64.273  1.00  0.00    -0.072 SA
ENDBRANCH  11  14
ENDBRANCH   9  10
ENDBRANCH   3   5
BRANCH   2  20
HETATM   20  C12 UNL     1       7.168  42.097  59.168  1.00  0.00     0.032 A 
HETATM   21  C13 UNL     1       8.025  42.179  58.090  1.00  0.00     0.019 A 
HETATM   22  C14 UNL     1       8.510  41.081  57.410  1.00  0.00     0.031 A 
HETATM   23  C15 UNL     1       8.119  39.830  57.826  1.00  0.00     0.042 A 
HETATM   24  C21 UNL     1       7.266  39.686  58.894  1.00  0.00     0.031 A 
HETATM   25  C22 UNL     1       6.801  40.823  59.552  1.00  0.00     0.019 A 
BRANCH  23  26
HETATM   26  N3  UNL     1       8.639  38.703  57.101  1.00  0.00    -0.290 N 
HETATM   27  C16 UNL     1       9.795  38.123  57.459  1.00  0.00     0.100 A 
HETATM   28  C17 UNL     1      10.337  37.043  56.800  1.00  0.00     0.018 A 
HETATM   29  C18 UNL     1       9.669  36.519  55.713  1.00  0.00     0.007 A 
HETATM   30  C19 UNL     1       8.486  37.135  55.368  1.00  0.00     0.075 A 
HETATM   31  C20 UNL     1       7.976  38.210  56.049  1.00  0.00     0.252 A 
HETATM   32  O3  UNL     1       6.875  38.748  55.692  1.00  0.00    -0.268 OA
ENDBRANCH  23  26
ENDBRANCH   2  20
TORSDOF 5
ENDMDL
