MODEL 2
REMARK VINA RESULT: -9.795257270      0.869      1.354
REMARK  5 active torsions:
REMARK  status: ('A' for Active; 'I' for Inactive)
REMARK       I    between atoms: C1_2  and  N1_3 
REMARK    1  A    between atoms: C1_2  and  C12_20 
REMARK    2  A    between atoms: N1_3  and  C2_5 
REMARK    3  A    between atoms: C6_9  and  N2_10 
REMARK       I    between atoms: N2_10  and  C7_12 
REMARK    4  A    between atoms: C7_12  and  C8_14 
REMARK    5  A    between atoms: C15_23  and  N3_24 
ROOT
HETATM    1  O1  UNL     1       6.812  44.392  59.769  1.00  0.00    -0.268 OA
HETATM    2  C1  UNL     1       6.363  43.230  59.992  1.00  0.00     0.252 C 
HETATM    3  N1  UNL     1       5.350  43.115  60.946  1.00  0.00    -0.350 N 
ATOM      4  H1  UNL     1       4.975  42.186  61.139  1.00  0.00     0.163 HD
ENDROOT
BRANCH   3   5
HETATM    5  C2  UNL     1       4.797  44.241  61.681  1.00  0.00     0.107 C 
HETATM    6  C3  UNL     1       3.288  44.136  61.567  1.00  0.00     0.027 C 
HETATM    7  C4  UNL     1       3.009  42.920  62.433  1.00  0.00     0.004 C 
HETATM    8  C5  UNL     1       4.106  42.901  63.477  1.00  0.00     0.027 C 
HETATM    9  C6  UNL     1       4.983  44.078  63.169  1.00  0.00     0.107 C 
BRANCH   9  10
HETATM   10  N2  UNL     1       6.355  43.886  63.541  1.00  0.00    -0.350 N 
HETATM   11  C7  UNL     1       7.245  44.957  63.739  1.00  0.00     0.259 C 
HETATM   12  O2  UNL     1       6.782  46.125  63.573  1.00  0.00    -0.267 OA
ATOM     13  H2  UNL     1       6.700  42.935  63.668  1.00  0.00     0.163 HD
BRANCH  11  14
HETATM   14  C8  UNL     1       8.649  44.754  64.118  1.00  0.00     0.074 A 
HETATM   15  C9  UNL     1       9.802  45.146  63.499  1.00  0.00     0.027 A 
HETATM   16  C10 UNL     1      10.957  44.813  64.085  1.00  0.00     0.033 A 
HETATM   17  C11 UNL     1      10.892  44.108  65.256  1.00  0.00     0.075 A 
HETATM   18 CL1  UNL     1      12.247  43.536  66.247  1.00  0.00    -0.076 Cl
HETATM   19  S1  UNL     1       9.209  43.933  65.498  1.00  0.00    -0.072 SA
ENDBRANCH  11  14
ENDBRANCH   9  10
ENDBRANCH   3   5
BRANCH   2  20
HETATM   20  C12 UNL     1       6.935  42.118  59.242  1.00  0.00     0.032 A 
HETATM   21  C13 UNL     1       6.580  40.802  59.449  1.00  0.00     0.019 A 
HETATM   22  C14 UNL     1       7.115  39.743  58.745  1.00  0.00     0.031 A 
HETATM   23  C15 UNL     1       8.058  40.010  57.780  1.00  0.00     0.042 A 
HETATM   24  C21 UNL     1       8.452  41.303  57.530  1.00  0.00     0.031 A 
HETATM   25  C22 UNL     1       7.885  42.342  58.265  1.00  0.00     0.019 A 
BRANCH  23  26
HETATM   26  N3  UNL     1       8.599  38.889  57.061  1.00  0.00    -0.290 N 
HETATM   27  C16 UNL     1       9.643  38.197  57.543  1.00  0.00     0.100 A 
HETATM   28  C17 UNL     1      10.200  37.117  56.896  1.00  0.00     0.018 A 
HETATM   29  C18 UNL     1       9.668  36.714  55.689  1.00  0.00     0.007 A 
HETATM   30  C19 UNL     1       8.598  37.443  55.219  1.00  0.00     0.075 A 
HETATM   31  C20 UNL     1       8.069  38.514  55.892  1.00  0.00     0.252 A 
HETATM   32  O3  UNL     1       7.076  39.160  55.416  1.00  0.00    -0.268 OA
ENDBRANCH  23  26
ENDBRANCH   2  20
TORSDOF 5
ENDMDL
