MODEL 5
REMARK VINA RESULT: -8.402673304      1.270      1.768
REMARK  5 active torsions:
REMARK  status: ('A' for Active; 'I' for Inactive)
REMARK       I    between atoms: C1_2  and  N1_3 
REMARK    1  A    between atoms: C1_2  and  C12_20 
REMARK    2  A    between atoms: N1_3  and  C2_5 
REMARK    3  A    between atoms: C6_9  and  N2_10 
REMARK       I    between atoms: N2_10  and  C7_12 
REMARK    4  A    between atoms: C7_12  and  C8_14 
REMARK    5  A    between atoms: C15_23  and  N3_24 
ROOT
HETATM    1  O1  UNL     1       5.976  43.822  59.103  1.00  0.00    -0.268 OA
HETATM    2  C1  UNL     1       5.734  42.630  59.450  1.00  0.00     0.252 C 
HETATM    3  N1  UNL     1       4.771  42.443  60.445  1.00  0.00    -0.350 N 
ATOM      4  H1  UNL     1       4.561  41.489  60.737  1.00  0.00     0.163 HD
ENDROOT
BRANCH   3   5
HETATM    5  C2  UNL     1       4.049  43.528  61.088  1.00  0.00     0.107 C 
HETATM    6  C3  UNL     1       2.572  43.229  60.920  1.00  0.00     0.027 C 
HETATM    7  C4  UNL     1       2.404  42.036  61.845  1.00  0.00     0.004 C 
HETATM    8  C5  UNL     1       3.445  42.212  62.932  1.00  0.00     0.027 C 
HETATM    9  C6  UNL     1       4.184  43.471  62.590  1.00  0.00     0.107 C 
BRANCH   9  10
HETATM   10  N2  UNL     1       5.550  43.473  63.028  1.00  0.00    -0.350 N 
HETATM   11  C7  UNL     1       6.278  44.657  63.237  1.00  0.00     0.259 C 
HETATM   12  O2  UNL     1       5.672  45.748  63.021  1.00  0.00    -0.267 OA
ATOM     13  H2  UNL     1       6.012  42.579  63.194  1.00  0.00     0.163 HD
BRANCH  11  14
HETATM   14  C8  UNL     1       7.677  44.653  63.684  1.00  0.00     0.074 A 
HETATM   15  C9  UNL     1       8.221  44.341  64.898  1.00  0.00     0.027 A 
HETATM   16  C10 UNL     1       9.549  44.429  65.017  1.00  0.00     0.033 A 
HETATM   17  C11 UNL     1      10.258  44.824  63.914  1.00  0.00     0.075 A 
HETATM   18 CL1  UNL     1      12.015  45.027  63.777  1.00  0.00    -0.076 Cl
HETATM   19  S1  UNL     1       9.035  45.059  62.744  1.00  0.00    -0.072 SA
ENDBRANCH  11  14
ENDBRANCH   9  10
ENDBRANCH   3   5
BRANCH   2  20
HETATM   20  C12 UNL     1       6.471  41.559  58.789  1.00  0.00     0.032 A 
HETATM   21  C13 UNL     1       6.145  40.225  58.914  1.00  0.00     0.019 A 
HETATM   22  C14 UNL     1       6.836  39.205  58.294  1.00  0.00     0.031 A 
HETATM   23  C15 UNL     1       7.913  39.532  57.503  1.00  0.00     0.042 A 
HETATM   24  C21 UNL     1       8.285  40.846  57.342  1.00  0.00     0.031 A 
HETATM   25  C22 UNL     1       7.558  41.844  57.988  1.00  0.00     0.019 A 
BRANCH  23  26
HETATM   26  N3  UNL     1       8.615  38.451  56.868  1.00  0.00    -0.290 N 
HETATM   27  C16 UNL     1       9.686  37.886  57.447  1.00  0.00     0.100 A 
HETATM   28  C17 UNL     1      10.394  36.849  56.883  1.00  0.00     0.018 A 
HETATM   29  C18 UNL     1       9.995  36.355  55.658  1.00  0.00     0.007 A 
HETATM   30  C19 UNL     1       8.893  36.955  55.088  1.00  0.00     0.075 A 
HETATM   31  C20 UNL     1       8.212  37.987  55.680  1.00  0.00     0.252 A 
HETATM   32  O3  UNL     1       7.196  38.510  55.112  1.00  0.00    -0.268 OA
ENDBRANCH  23  26
ENDBRANCH   2  20
TORSDOF 5
ENDMDL
