MODEL 4
REMARK VINA RESULT: -8.886860410      1.242      1.807
REMARK  5 active torsions:
REMARK  status: ('A' for Active; 'I' for Inactive)
REMARK       I    between atoms: C1_2  and  N1_3 
REMARK    1  A    between atoms: C1_2  and  C12_20 
REMARK    2  A    between atoms: N1_3  and  C2_5 
REMARK    3  A    between atoms: C6_9  and  N2_10 
REMARK       I    between atoms: N2_10  and  C7_12 
REMARK    4  A    between atoms: C7_12  and  C8_14 
REMARK    5  A    between atoms: C15_23  and  N3_24 
ROOT
HETATM    1  O1  UNL     1       5.509  44.287  58.933  1.00  0.00    -0.268 OA
HETATM    2  C1  UNL     1       5.752  43.203  59.539  1.00  0.00     0.252 C 
HETATM    3  N1  UNL     1       5.447  43.157  60.901  1.00  0.00    -0.350 N 
ATOM      4  H1  UNL     1       5.635  42.291  61.406  1.00  0.00     0.163 HD
ENDROOT
BRANCH   3   5
HETATM    5  C2  UNL     1       4.878  44.270  61.643  1.00  0.00     0.107 C 
HETATM    6  C3  UNL     1       3.372  44.166  61.498  1.00  0.00     0.027 C 
HETATM    7  C4  UNL     1       3.079  42.935  62.340  1.00  0.00     0.004 C 
HETATM    8  C5  UNL     1       4.156  42.902  63.405  1.00  0.00     0.027 C 
HETATM    9  C6  UNL     1       5.036  44.085  63.132  1.00  0.00     0.107 C 
BRANCH   9  10
HETATM   10  N2  UNL     1       6.402  43.889  63.527  1.00  0.00    -0.350 N 
HETATM   11  C7  UNL     1       7.295  44.956  63.726  1.00  0.00     0.259 C 
HETATM   12  O2  UNL     1       6.842  46.125  63.540  1.00  0.00    -0.267 OA
ATOM     13  H2  UNL     1       6.739  42.937  63.670  1.00  0.00     0.163 HD
BRANCH  11  14
HETATM   14  C8  UNL     1       8.691  44.749  64.130  1.00  0.00     0.074 A 
HETATM   15  C9  UNL     1       9.856  45.150  63.537  1.00  0.00     0.027 A 
HETATM   16  C10 UNL     1      11.000  44.810  64.140  1.00  0.00     0.033 A 
HETATM   17  C11 UNL     1      10.914  44.090  65.301  1.00  0.00     0.075 A 
HETATM   18 CL1  UNL     1      12.250  43.506  66.310  1.00  0.00    -0.076 Cl
HETATM   19  S1  UNL     1       9.226  43.912  65.510  1.00  0.00    -0.072 SA
ENDBRANCH  11  14
ENDBRANCH   9  10
ENDBRANCH   3   5
BRANCH   2  20
HETATM   20  C12 UNL     1       6.322  42.102  58.772  1.00  0.00     0.032 A 
HETATM   21  C13 UNL     1       6.398  40.808  59.245  1.00  0.00     0.019 A 
HETATM   22  C14 UNL     1       6.936  39.759  58.529  1.00  0.00     0.031 A 
HETATM   23  C15 UNL     1       7.427  40.013  57.269  1.00  0.00     0.042 A 
HETATM   24  C21 UNL     1       7.380  41.284  56.746  1.00  0.00     0.031 A 
HETATM   25  C22 UNL     1       6.827  42.313  57.505  1.00  0.00     0.019 A 
BRANCH  23  26
HETATM   26  N3  UNL     1       7.982  38.903  56.544  1.00  0.00    -0.290 N 
HETATM   27  C16 UNL     1       7.224  38.172  55.713  1.00  0.00     0.100 A 
HETATM   28  C17 UNL     1       7.705  37.100  54.995  1.00  0.00     0.018 A 
HETATM   29  C18 UNL     1       9.031  36.747  55.126  1.00  0.00     0.007 A 
HETATM   30  C19 UNL     1       9.785  37.516  55.987  1.00  0.00     0.075 A 
HETATM   31  C20 UNL     1       9.272  38.578  56.686  1.00  0.00     0.252 A 
HETATM   32  O3  UNL     1      10.010  39.261  57.472  1.00  0.00    -0.268 OA
ENDBRANCH  23  26
ENDBRANCH   2  20
TORSDOF 5
ENDMDL
