MODEL 7
REMARK VINA RESULT: -7.642759217      4.724      6.575
REMARK  5 active torsions:
REMARK  status: ('A' for Active; 'I' for Inactive)
REMARK       I    between atoms: C1_2  and  N1_3 
REMARK    1  A    between atoms: C1_2  and  C12_20 
REMARK    2  A    between atoms: N1_3  and  C2_5 
REMARK    3  A    between atoms: C6_9  and  N2_10 
REMARK       I    between atoms: N2_10  and  C7_12 
REMARK    4  A    between atoms: C7_12  and  C8_14 
REMARK    5  A    between atoms: C15_23  and  N3_24 
ROOT
HETATM    1  O1  UNL     1       5.949  42.007  60.318  1.00  0.00    -0.268 OA
HETATM    2  C1  UNL     1       6.952  42.205  59.572  1.00  0.00     0.252 C 
HETATM    3  N1  UNL     1       7.442  43.511  59.503  1.00  0.00    -0.350 N 
ATOM      4  H1  UNL     1       8.250  43.690  58.907  1.00  0.00     0.163 HD
ENDROOT
BRANCH   3   5
HETATM    5  C2  UNL     1       6.868  44.631  60.230  1.00  0.00     0.107 C 
HETATM    6  C3  UNL     1       7.781  44.898  61.411  1.00  0.00     0.027 C 
HETATM    7  C4  UNL     1       9.008  45.462  60.714  1.00  0.00     0.004 C 
HETATM    8  C5  UNL     1       8.493  46.137  59.460  1.00  0.00     0.027 C 
HETATM    9  C6  UNL     1       7.009  45.923  59.462  1.00  0.00     0.107 C 
BRANCH   9  10
HETATM   10  N2  UNL     1       6.435  45.855  58.148  1.00  0.00    -0.350 N 
HETATM   11  C7  UNL     1       6.164  47.000  57.379  1.00  0.00     0.259 C 
HETATM   12  O2  UNL     1       6.451  48.120  57.897  1.00  0.00    -0.267 OA
ATOM     13  H2  UNL     1       6.215  44.940  57.757  1.00  0.00     0.163 HD
BRANCH  11  14
HETATM   14  C8  UNL     1       5.576  46.924  56.035  1.00  0.00     0.074 A 
HETATM   15  C9  UNL     1       4.620  47.698  55.439  1.00  0.00     0.027 A 
HETATM   16  C10 UNL     1       4.275  47.388  54.185  1.00  0.00     0.033 A 
HETATM   17  C11 UNL     1       4.905  46.324  53.599  1.00  0.00     0.075 A 
HETATM   18 CL1  UNL     1       4.654  45.689  51.962  1.00  0.00    -0.076 Cl
HETATM   19  S1  UNL     1       5.964  45.789  54.830  1.00  0.00    -0.072 SA
ENDBRANCH  11  14
ENDBRANCH   9  10
ENDBRANCH   3   5
BRANCH   2  20
HETATM   20  C12 UNL     1       7.509  41.065  58.854  1.00  0.00     0.032 A 
HETATM   21  C13 UNL     1       8.355  41.190  57.771  1.00  0.00     0.019 A 
HETATM   22  C14 UNL     1       8.886  40.118  57.085  1.00  0.00     0.031 A 
HETATM   23  C15 UNL     1       8.556  38.849  57.499  1.00  0.00     0.042 A 
HETATM   24  C21 UNL     1       7.716  38.662  58.572  1.00  0.00     0.031 A 
HETATM   25  C22 UNL     1       7.202  39.774  59.236  1.00  0.00     0.019 A 
BRANCH  23  26
HETATM   26  N3  UNL     1       9.123  37.749  56.767  1.00  0.00    -0.290 N 
HETATM   27  C16 UNL     1      10.307  37.222  57.117  1.00  0.00     0.100 A 
HETATM   28  C17 UNL     1      10.895  36.171  56.451  1.00  0.00     0.018 A 
HETATM   29  C18 UNL     1      10.246  35.620  55.366  1.00  0.00     0.007 A 
HETATM   30  C19 UNL     1       9.033  36.181  55.030  1.00  0.00     0.075 A 
HETATM   31  C20 UNL     1       8.478  37.229  55.718  1.00  0.00     0.252 A 
HETATM   32  O3  UNL     1       7.350  37.716  55.368  1.00  0.00    -0.268 OA
ENDBRANCH  23  26
ENDBRANCH   2  20
TORSDOF 5
ENDMDL
