MODEL 6
REMARK VINA RESULT: -8.363598875      3.765      5.525
REMARK  5 active torsions:
REMARK  status: ('A' for Active; 'I' for Inactive)
REMARK       I    between atoms: C1_2  and  N1_3 
REMARK    1  A    between atoms: C1_2  and  C12_20 
REMARK    2  A    between atoms: N1_3  and  C2_5 
REMARK    3  A    between atoms: C6_9  and  N2_10 
REMARK       I    between atoms: N2_10  and  C7_12 
REMARK    4  A    between atoms: C7_12  and  C8_14 
REMARK    5  A    between atoms: C15_23  and  N3_24 
ROOT
HETATM    1  O1  UNL     1       5.653  42.897  60.325  1.00  0.00    -0.268 OA
HETATM    2  C1  UNL     1       6.875  42.575  60.391  1.00  0.00     0.252 C 
HETATM    3  N1  UNL     1       7.665  43.274  61.305  1.00  0.00    -0.350 N 
ATOM      4  H1  UNL     1       8.653  43.028  61.373  1.00  0.00     0.163 HD
ENDROOT
BRANCH   3   5
HETATM    5  C2  UNL     1       7.165  44.333  62.166  1.00  0.00     0.107 C 
HETATM    6  C3  UNL     1       8.107  44.412  63.352  1.00  0.00     0.027 C 
HETATM    7  C4  UNL     1       9.355  44.985  62.701  1.00  0.00     0.004 C 
HETATM    8  C5  UNL     1       8.862  45.827  61.542  1.00  0.00     0.027 C 
HETATM    9  C6  UNL     1       7.368  45.695  61.548  1.00  0.00     0.107 C 
BRANCH   9  10
HETATM   10  N2  UNL     1       6.775  45.810  60.247  1.00  0.00    -0.350 N 
HETATM   11  C7  UNL     1       7.509  45.640  59.060  1.00  0.00     0.259 C 
HETATM   12  O2  UNL     1       8.742  45.375  59.182  1.00  0.00    -0.267 OA
ATOM     13  H2  UNL     1       5.780  46.024  60.180  1.00  0.00     0.163 HD
BRANCH  11  14
HETATM   14  C8  UNL     1       6.896  45.761  57.731  1.00  0.00     0.074 A 
HETATM   15  C9  UNL     1       7.027  46.730  56.778  1.00  0.00     0.027 A 
HETATM   16  C10 UNL     1       6.335  46.574  55.645  1.00  0.00     0.033 A 
HETATM   17  C11 UNL     1       5.552  45.456  55.530  1.00  0.00     0.075 A 
HETATM   18 CL1  UNL     1       4.534  44.989  54.155  1.00  0.00    -0.076 Cl
HETATM   19  S1  UNL     1       5.813  44.660  57.020  1.00  0.00    -0.072 SA
ENDBRANCH  11  14
ENDBRANCH   9  10
ENDBRANCH   3   5
BRANCH   2  20
HETATM   20  C12 UNL     1       7.352  41.510  59.517  1.00  0.00     0.032 A 
HETATM   21  C13 UNL     1       7.117  40.172  59.754  1.00  0.00     0.019 A 
HETATM   22  C14 UNL     1       7.564  39.157  58.935  1.00  0.00     0.031 A 
HETATM   23  C15 UNL     1       8.286  39.493  57.814  1.00  0.00     0.042 A 
HETATM   24  C21 UNL     1       8.553  40.811  57.525  1.00  0.00     0.031 A 
HETATM   25  C22 UNL     1       8.081  41.804  58.382  1.00  0.00     0.019 A 
BRANCH  23  26
HETATM   26  N3  UNL     1       8.740  38.417  56.976  1.00  0.00    -0.290 N 
HETATM   27  C16 UNL     1       9.876  37.757  57.251  1.00  0.00     0.100 A 
HETATM   28  C17 UNL     1      10.356  36.720  56.483  1.00  0.00     0.018 A 
HETATM   29  C18 UNL     1       9.643  36.328  55.369  1.00  0.00     0.007 A 
HETATM   30  C19 UNL     1       8.482  37.024  55.111  1.00  0.00     0.075 A 
HETATM   31  C20 UNL     1       8.035  38.052  55.900  1.00  0.00     0.252 A 
HETATM   32  O3  UNL     1       6.952  38.667  55.620  1.00  0.00    -0.268 OA
ENDBRANCH  23  26
ENDBRANCH   2  20
TORSDOF 5
ENDMDL
