MODEL 17
REMARK VINA RESULT: -7.548097020      3.460      7.072
REMARK  7 active torsions:
REMARK  status: ('A' for Active; 'I' for Inactive)
REMARK    1  A    between atoms: C2_2  and  C9_11 
REMARK    2  A    between atoms: C3_3  and  C4_4 
REMARK    3  A    between atoms: C5_5  and  C6_6 
REMARK    4  A    between atoms: C6_6  and  C8_8 
REMARK    5  A    between atoms: C11_16  and  C12_17 
REMARK    6  A    between atoms: C13_20  and  C14_21 
REMARK    7  A    between atoms: C14_21  and  C15_22 
ROOT
HETATM    1  C9  UNL     1      -3.851 -34.220  82.436  1.00  0.00     0.047 C 
HETATM    2  C10 UNL     1      -2.865 -35.235  82.990  1.00  0.00     0.242 C 
HETATM    3  N1  UNL     1      -1.680 -34.534  83.324  1.00  0.00    -0.060 N 
ATOM      4  H11 UNL     1      -0.837 -34.988  82.975  1.00  0.00     0.278 HD
ATOM      5  H12 UNL     1      -1.455 -34.583  84.318  1.00  0.00     0.278 HD
HETATM    6  C11 UNL     1      -1.837 -33.124  82.826  1.00  0.00     0.291 C 
HETATM    7  C13 UNL     1      -3.283 -32.962  83.024  1.00  0.00     0.046 C 
ENDROOT
BRANCH   1   8
HETATM    8  C2  UNL     1      -3.887 -34.396  81.009  1.00  0.00    -0.078 C 
HETATM    9  C1  UNL     1      -5.279 -34.244  80.399  1.00  0.00     0.044 C 
HETATM   10  C3  UNL     1      -2.971 -34.660  80.138  1.00  0.00     0.003 C 
BRANCH  10  11
HETATM   11  C4  UNL     1      -3.222 -34.802  78.708  1.00  0.00    -0.003 C 
HETATM   12  C5  UNL     1      -2.947 -33.894  77.823  1.00  0.00    -0.012 C 
BRANCH  12  13
HETATM   13  C6  UNL     1      -3.241 -34.132  76.390  1.00  0.00     0.105 C 
HETATM   14  C7  UNL     1      -3.684 -35.592  76.215  1.00  0.00     0.025 C 
BRANCH  13  15
HETATM   15  C8  UNL     1      -4.303 -33.217  75.889  1.00  0.00     0.180 C 
HETATM   16  O1  UNL     1      -4.056 -32.282  75.094  1.00  0.00    -0.647 OA
HETATM   17  O2  UNL     1      -5.601 -33.407  76.314  1.00  0.00    -0.647 OA
ENDBRANCH  13  15
ENDBRANCH  12  13
ENDBRANCH  10  11
ENDBRANCH   1   8
BRANCH   7  18
HETATM   18  C14 UNL     1      -4.015 -31.746  82.759  1.00  0.00     0.121 C 
BRANCH  18  19
HETATM   19  C15 UNL     1      -5.433 -31.784  83.105  1.00  0.00     0.172 C 
HETATM   20  O5  UNL     1      -5.873 -32.173  84.243  1.00  0.00    -0.648 OA
HETATM   21  O6  UNL     1      -6.376 -31.384  82.176  1.00  0.00    -0.648 OA
ENDBRANCH  18  19
ENDBRANCH   7  18
BRANCH   6  22
HETATM   22  C12 UNL     1      -0.940 -32.286  83.651  1.00  0.00     0.205 C 
HETATM   23  O3  UNL     1      -1.143 -32.098  84.861  1.00  0.00    -0.646 OA
HETATM   24  O4  UNL     1       0.172 -31.677  83.090  1.00  0.00    -0.646 OA
ENDBRANCH   6  22
TORSDOF 7
ENDMDL
