MODEL 16
REMARK VINA RESULT: -7.586509452      3.986      7.312
REMARK  7 active torsions:
REMARK  status: ('A' for Active; 'I' for Inactive)
REMARK    1  A    between atoms: C2_2  and  C9_11 
REMARK    2  A    between atoms: C3_3  and  C4_4 
REMARK    3  A    between atoms: C5_5  and  C6_6 
REMARK    4  A    between atoms: C6_6  and  C8_8 
REMARK    5  A    between atoms: C11_16  and  C12_17 
REMARK    6  A    between atoms: C13_20  and  C14_21 
REMARK    7  A    between atoms: C14_21  and  C15_22 
ROOT
HETATM    1  C9  UNL     1      -2.104 -35.683  81.962  1.00  0.00     0.047 C 
HETATM    2  C10 UNL     1      -0.609 -35.942  82.049  1.00  0.00     0.242 C 
HETATM    3  N1  UNL     1       0.005 -34.737  82.470  1.00  0.00    -0.060 N 
ATOM      4  H11 UNL     1       0.817 -34.485  81.906  1.00  0.00     0.278 HD
ATOM      5  H12 UNL     1       0.487 -34.826  83.364  1.00  0.00     0.278 HD
HETATM    6  C11 UNL     1      -1.056 -33.672  82.479  1.00  0.00     0.291 C 
HETATM    7  C13 UNL     1      -2.211 -34.491  82.867  1.00  0.00     0.046 C 
ENDROOT
BRANCH   1   8
HETATM    8  C2  UNL     1      -2.434 -35.561  80.567  1.00  0.00    -0.078 C 
HETATM    9  C1  UNL     1      -1.662 -36.518  79.660  1.00  0.00     0.044 C 
HETATM   10  C3  UNL     1      -3.256 -34.800  79.927  1.00  0.00     0.003 C 
BRANCH  10  11
HETATM   11  C4  UNL     1      -3.444 -34.835  78.481  1.00  0.00    -0.003 C 
HETATM   12  C5  UNL     1      -3.063 -33.896  77.670  1.00  0.00    -0.012 C 
BRANCH  12  13
HETATM   13  C6  UNL     1      -3.299 -34.023  76.213  1.00  0.00     0.105 C 
HETATM   14  C7  UNL     1      -3.741 -35.463  75.911  1.00  0.00     0.025 C 
BRANCH  13  15
HETATM   15  C8  UNL     1      -4.337 -33.066  75.740  1.00  0.00     0.180 C 
HETATM   16  O1  UNL     1      -4.061 -32.099  74.995  1.00  0.00    -0.647 OA
HETATM   17  O2  UNL     1      -5.645 -33.251  76.137  1.00  0.00    -0.647 OA
ENDBRANCH  13  15
ENDBRANCH  12  13
ENDBRANCH  10  11
ENDBRANCH   1   8
BRANCH   7  18
HETATM   18  C14 UNL     1      -3.543 -33.977  83.090  1.00  0.00     0.121 C 
BRANCH  18  19
HETATM   19  C15 UNL     1      -3.949 -33.886  84.490  1.00  0.00     0.172 C 
HETATM   20  O5  UNL     1      -5.147 -33.631  84.863  1.00  0.00    -0.648 OA
HETATM   21  O6  UNL     1      -3.013 -34.082  85.489  1.00  0.00    -0.648 OA
ENDBRANCH  18  19
ENDBRANCH   7  18
BRANCH   6  22
HETATM   22  C12 UNL     1      -0.604 -32.638  83.435  1.00  0.00     0.205 C 
HETATM   23  O3  UNL     1      -1.252 -31.597  83.634  1.00  0.00    -0.646 OA
HETATM   24  O4  UNL     1       0.572 -32.802  84.150  1.00  0.00    -0.646 OA
ENDBRANCH   6  22
TORSDOF 7
ENDMDL
