MODEL 9
REMARK VINA RESULT: -9.192553781      1.136      4.590
REMARK  2 active torsions:
REMARK  status: ('A' for Active; 'I' for Inactive)
REMARK    1  A    between atoms: C4_4  and  C5_5 
REMARK    2  A    between atoms: C5_5  and  N1_6 
ROOT
HETATM    1  C5  UNL     1      -9.555 -28.019 -14.624  1.00  0.00     0.186 C 
HETATM    2  C11 UNL     1      -9.964 -27.713 -16.084  1.00  0.00     0.047 C 
HETATM    3  C12 UNL     1     -10.680 -26.374 -16.058  1.00  0.00     0.003 C 
HETATM    4  C13 UNL     1     -12.072 -26.623 -15.563  1.00  0.00     0.000 C 
HETATM    5  C14 UNL     1     -12.059 -27.823 -14.687  1.00  0.00     0.003 C 
HETATM    6  C15 UNL     1     -10.800 -27.891 -13.812  1.00  0.00     0.047 C 
ENDROOT
BRANCH   1   7
HETATM    7  C4  UNL     1      -9.215 -29.473 -14.650  1.00  0.00    -0.020 A 
HETATM    8  C3  UNL     1      -7.906 -29.879 -14.879  1.00  0.00     0.010 A 
HETATM    9  C2  UNL     1      -7.564 -31.225 -14.897  1.00  0.00     0.001 A 
HETATM   10  C1  UNL     1      -8.514 -32.212 -14.688  1.00  0.00     0.000 A 
HETATM   11  C17 UNL     1      -9.801 -31.815 -14.460  1.00  0.00     0.001 A 
HETATM   12  C16 UNL     1     -10.128 -30.476 -14.445  1.00  0.00     0.010 A 
ENDBRANCH   1   7
BRANCH   1  13
HETATM   13  N1  UNL     1      -8.452 -27.196 -14.332  1.00  0.00     0.102 N 
HETATM   14  C6  UNL     1      -8.065 -26.200 -15.290  1.00  0.00     0.274 C 
HETATM   15  C7  UNL     1      -6.676 -25.707 -14.904  1.00  0.00     0.030 C 
HETATM   16  C8  UNL     1      -6.300 -25.984 -13.487  1.00  0.00     0.003 C 
HETATM   17  C9  UNL     1      -7.417 -25.896 -12.508  1.00  0.00     0.030 C 
HETATM   18  C10 UNL     1      -8.670 -26.504 -13.082  1.00  0.00     0.274 C 
ENDBRANCH   1  13
TORSDOF 2
ENDMDL
