MODEL 13
REMARK VINA RESULT: -8.527999505      0.584      1.279
REMARK  2 active torsions:
REMARK  status: ('A' for Active; 'I' for Inactive)
REMARK    1  A    between atoms: C4_4  and  C5_5 
REMARK    2  A    between atoms: C5_5  and  N1_6 
ROOT
HETATM    1  C5  UNL     1      -7.890 -27.460 -13.951  1.00  0.00     0.186 C 
HETATM    2  C11 UNL     1      -6.858 -26.636 -14.755  1.00  0.00     0.047 C 
HETATM    3  C12 UNL     1      -5.550 -26.720 -13.989  1.00  0.00     0.003 C 
HETATM    4  C13 UNL     1      -5.643 -25.762 -12.841  1.00  0.00     0.000 C 
HETATM    5  C14 UNL     1      -7.072 -25.608 -12.463  1.00  0.00     0.003 C 
HETATM    6  C15 UNL     1      -7.844 -26.931 -12.557  1.00  0.00     0.047 C 
ENDROOT
BRANCH   1   7
HETATM    7  C4  UNL     1      -9.203 -27.034 -14.522  1.00  0.00    -0.020 A 
HETATM    8  C3  UNL     1      -9.251 -26.366 -15.738  1.00  0.00     0.010 A 
HETATM    9  C2  UNL     1     -10.461 -25.970 -16.294  1.00  0.00     0.001 A 
HETATM   10  C1  UNL     1     -11.664 -26.227 -15.655  1.00  0.00     0.000 A 
HETATM   11  C17 UNL     1     -11.619 -26.886 -14.460  1.00  0.00     0.001 A 
HETATM   12  C16 UNL     1     -10.413 -27.273 -13.919  1.00  0.00     0.010 A 
ENDBRANCH   1   7
BRANCH   1  13
HETATM   13  N1  UNL     1      -7.597 -28.816 -14.186  1.00  0.00     0.102 N 
HETATM   14  C6  UNL     1      -8.587 -29.632 -14.828  1.00  0.00     0.274 C 
HETATM   15  C7  UNL     1      -8.172 -31.087 -14.645  1.00  0.00     0.030 C 
HETATM   16  C8  UNL     1      -6.729 -31.274 -14.316  1.00  0.00     0.003 C 
HETATM   17  C9  UNL     1      -5.800 -30.314 -14.972  1.00  0.00     0.030 C 
HETATM   18  C10 UNL     1      -6.393 -28.928 -14.978  1.00  0.00     0.274 C 
ENDBRANCH   1  13
TORSDOF 2
ENDMDL
