MODEL 10
REMARK VINA RESULT: -9.109500186      1.175      4.657
REMARK  2 active torsions:
REMARK  status: ('A' for Active; 'I' for Inactive)
REMARK    1  A    between atoms: C4_4  and  C5_5 
REMARK    2  A    between atoms: C5_5  and  N1_6 
ROOT
HETATM    1  C5  UNL     1      -9.608 -28.036 -14.647  1.00  0.00     0.186 C 
HETATM    2  C11 UNL     1     -10.014 -27.747 -16.111  1.00  0.00     0.047 C 
HETATM    3  C12 UNL     1     -10.717 -26.401 -16.104  1.00  0.00     0.003 C 
HETATM    4  C13 UNL     1     -12.111 -26.629 -15.605  1.00  0.00     0.000 C 
HETATM    5  C14 UNL     1     -12.110 -27.817 -14.711  1.00  0.00     0.003 C 
HETATM    6  C15 UNL     1     -10.851 -27.884 -13.836  1.00  0.00     0.047 C 
ENDROOT
BRANCH   1   7
HETATM    7  C4  UNL     1      -9.282 -29.494 -14.653  1.00  0.00    -0.020 A 
HETATM    8  C3  UNL     1     -10.281 -30.433 -14.429  1.00  0.00     0.010 A 
HETATM    9  C2  UNL     1     -10.004 -31.794 -14.441  1.00  0.00     0.001 A 
HETATM   10  C1  UNL     1      -8.721 -32.265 -14.674  1.00  0.00     0.000 A 
HETATM   11  C17 UNL     1      -7.739 -31.344 -14.896  1.00  0.00     0.001 A 
HETATM   12  C16 UNL     1      -8.026 -29.996 -14.882  1.00  0.00     0.010 A 
ENDBRANCH   1   7
BRANCH   1  13
HETATM   13  N1  UNL     1      -8.496 -27.221 -14.368  1.00  0.00     0.102 N 
HETATM   14  C6  UNL     1      -8.157 -26.179 -15.295  1.00  0.00     0.274 C 
HETATM   15  C7  UNL     1      -6.754 -25.695 -14.950  1.00  0.00     0.030 C 
HETATM   16  C8  UNL     1      -6.314 -26.035 -13.566  1.00  0.00     0.003 C 
HETATM   17  C9  UNL     1      -7.385 -25.999 -12.534  1.00  0.00     0.030 C 
HETATM   18  C10 UNL     1      -8.661 -26.588 -13.079  1.00  0.00     0.274 C 
ENDBRANCH   1  13
TORSDOF 2
ENDMDL
