MODEL 5
REMARK VINA RESULT: -9.298370405      0.586      1.673
REMARK  2 active torsions:
REMARK  status: ('A' for Active; 'I' for Inactive)
REMARK    1  A    between atoms: C4_4  and  C5_5 
REMARK    2  A    between atoms: C5_5  and  N1_6 
ROOT
HETATM    1  C5  UNL     1      -7.962 -27.672 -13.899  1.00  0.00     0.186 C 
HETATM    2  C11 UNL     1      -6.932 -26.792 -14.645  1.00  0.00     0.047 C 
HETATM    3  C12 UNL     1      -5.637 -26.885 -13.859  1.00  0.00     0.003 C 
HETATM    4  C13 UNL     1      -5.770 -25.983 -12.670  1.00  0.00     0.000 C 
HETATM    5  C14 UNL     1      -7.209 -25.874 -12.313  1.00  0.00     0.003 C 
HETATM    6  C15 UNL     1      -7.952 -27.207 -12.481  1.00  0.00     0.047 C 
ENDROOT
BRANCH   1   7
HETATM    7  C4  UNL     1      -9.273 -27.246 -14.475  1.00  0.00    -0.020 A 
HETATM    8  C3  UNL     1     -10.433 -27.349 -13.718  1.00  0.00     0.010 A 
HETATM    9  C2  UNL     1     -11.661 -26.949 -14.228  1.00  0.00     0.001 A 
HETATM   10  C1  UNL     1     -11.775 -26.434 -15.510  1.00  0.00     0.000 A 
HETATM   11  C17 UNL     1     -10.635 -26.330 -16.255  1.00  0.00     0.001 A 
HETATM   12  C16 UNL     1      -9.422 -26.731 -15.738  1.00  0.00     0.010 A 
ENDBRANCH   1   7
BRANCH   1  13
HETATM   13  N1  UNL     1      -7.636 -29.009 -14.190  1.00  0.00     0.102 N 
HETATM   14  C6  UNL     1      -8.690 -29.904 -14.576  1.00  0.00     0.274 C 
HETATM   15  C7  UNL     1      -8.141 -31.324 -14.490  1.00  0.00     0.030 C 
HETATM   16  C8  UNL     1      -6.651 -31.405 -14.509  1.00  0.00     0.003 C 
HETATM   17  C9  UNL     1      -5.973 -30.399 -15.369  1.00  0.00     0.030 C 
HETATM   18  C10 UNL     1      -6.648 -29.057 -15.243  1.00  0.00     0.274 C 
ENDBRANCH   1  13
TORSDOF 2
ENDMDL
