MODEL 1
REMARK VINA RESULT: -9.900401114      0.000      0.000
REMARK  2 active torsions:
REMARK  status: ('A' for Active; 'I' for Inactive)
REMARK    1  A    between atoms: C4_4  and  C5_5 
REMARK    2  A    between atoms: C5_5  and  N1_6 
ROOT
HETATM    1  C5  UNL     1      -7.998 -27.377 -14.104  1.00  0.00     0.186 C 
HETATM    2  C11 UNL     1      -7.188 -26.286 -14.842  1.00  0.00     0.047 C 
HETATM    3  C12 UNL     1      -5.815 -26.260 -14.195  1.00  0.00     0.003 C 
HETATM    4  C13 UNL     1      -5.943 -25.504 -12.908  1.00  0.00     0.000 C 
HETATM    5  C14 UNL     1      -7.336 -25.646 -12.408  1.00  0.00     0.003 C 
HETATM    6  C15 UNL     1      -7.900 -27.053 -12.652  1.00  0.00     0.047 C 
ENDROOT
BRANCH   1   7
HETATM    7  C4  UNL     1      -9.410 -27.100 -14.505  1.00  0.00    -0.020 A 
HETATM    8  C3  UNL     1      -9.703 -26.715 -15.808  1.00  0.00     0.010 A 
HETATM    9  C2  UNL     1     -11.009 -26.462 -16.206  1.00  0.00     0.001 A 
HETATM   10  C1  UNL     1     -12.068 -26.584 -15.320  1.00  0.00     0.000 A 
HETATM   11  C17 UNL     1     -11.783 -26.964 -14.040  1.00  0.00     0.001 A 
HETATM   12  C16 UNL     1     -10.483 -27.212 -13.656  1.00  0.00     0.010 A 
ENDBRANCH   1   7
BRANCH   1  13
HETATM   13  N1  UNL     1      -7.523 -28.617 -14.570  1.00  0.00     0.102 N 
HETATM   14  C6  UNL     1      -6.197 -29.026 -14.205  1.00  0.00     0.274 C 
HETATM   15  C7  UNL     1      -5.814 -30.197 -15.102  1.00  0.00     0.030 C 
HETATM   16  C8  UNL     1      -6.976 -30.889 -15.733  1.00  0.00     0.003 C 
HETATM   17  C9  UNL     1      -8.199 -30.969 -14.890  1.00  0.00     0.030 C 
HETATM   18  C10 UNL     1      -8.412 -29.675 -14.146  1.00  0.00     0.274 C 
ENDBRANCH   1  13
TORSDOF 2
ENDMDL
