MODEL 14
REMARK VINA RESULT: -7.792343034      1.319      1.773
REMARK  2 active torsions:
REMARK  status: ('A' for Active; 'I' for Inactive)
REMARK    1  A    between atoms: C4_4  and  C5_5 
REMARK    2  A    between atoms: C5_5  and  N1_6 
ROOT
HETATM    1  C5  UNL     1      -8.296 -28.636 -14.152  1.00  0.00     0.186 C 
HETATM    2  C11 UNL     1      -7.269 -27.812 -14.963  1.00  0.00     0.047 C 
HETATM    3  C12 UNL     1      -6.003 -27.759 -14.126  1.00  0.00     0.003 C 
HETATM    4  C13 UNL     1      -6.215 -26.726 -13.062  1.00  0.00     0.000 C 
HETATM    5  C14 UNL     1      -7.670 -26.633 -12.771  1.00  0.00     0.003 C 
HETATM    6  C15 UNL     1      -8.358 -28.004 -12.802  1.00  0.00     0.047 C 
ENDROOT
BRANCH   1   7
HETATM    7  C4  UNL     1      -9.597 -28.336 -14.821  1.00  0.00    -0.020 A 
HETATM    8  C3  UNL     1      -9.645 -27.445 -15.885  1.00  0.00     0.010 A 
HETATM    9  C2  UNL     1     -10.841 -27.158 -16.529  1.00  0.00     0.001 A 
HETATM   10  C1  UNL     1     -12.031 -27.749 -16.134  1.00  0.00     0.000 A 
HETATM   11  C17 UNL     1     -11.986 -28.627 -15.089  1.00  0.00     0.001 A 
HETATM   12  C16 UNL     1     -10.793 -28.903 -14.458  1.00  0.00     0.010 A 
ENDBRANCH   1   7
BRANCH   1  13
HETATM   13  N1  UNL     1      -7.912 -29.985 -14.267  1.00  0.00     0.102 N 
HETATM   14  C6  UNL     1      -8.801 -30.997 -13.771  1.00  0.00     0.274 C 
HETATM   15  C7  UNL     1      -8.015 -32.301 -13.696  1.00  0.00     0.030 C 
HETATM   16  C8  UNL     1      -6.786 -32.324 -14.541  1.00  0.00     0.003 C 
HETATM   17  C9  UNL     1      -6.893 -31.596 -15.834  1.00  0.00     0.030 C 
HETATM   18  C10 UNL     1      -7.652 -30.307 -15.651  1.00  0.00     0.274 C 
ENDBRANCH   1  13
TORSDOF 2
ENDMDL
