MODEL 11
REMARK VINA RESULT: -8.978943933      1.071      4.773
REMARK  2 active torsions:
REMARK  status: ('A' for Active; 'I' for Inactive)
REMARK    1  A    between atoms: C4_4  and  C5_5 
REMARK    2  A    between atoms: C5_5  and  N1_6 
ROOT
HETATM    1  C5  UNL     1      -9.518 -27.766 -14.500  1.00  0.00     0.186 C 
HETATM    2  C11 UNL     1      -9.824 -27.378 -15.965  1.00  0.00     0.047 C 
HETATM    3  C12 UNL     1     -10.776 -26.197 -15.907  1.00  0.00     0.003 C 
HETATM    4  C13 UNL     1     -12.141 -26.738 -15.609  1.00  0.00     0.000 C 
HETATM    5  C14 UNL     1     -11.995 -28.006 -14.847  1.00  0.00     0.003 C 
HETATM    6  C15 UNL     1     -10.842 -27.947 -13.836  1.00  0.00     0.047 C 
ENDROOT
BRANCH   1   7
HETATM    7  C4  UNL     1      -8.911 -29.126 -14.614  1.00  0.00    -0.020 A 
HETATM    8  C3  UNL     1      -9.708 -30.257 -14.489  1.00  0.00     0.010 A 
HETATM    9  C2  UNL     1      -9.168 -31.532 -14.603  1.00  0.00     0.001 A 
HETATM   10  C1  UNL     1      -7.816 -31.723 -14.843  1.00  0.00     0.000 A 
HETATM   11  C17 UNL     1      -7.032 -30.611 -14.968  1.00  0.00     0.001 A 
HETATM   12  C16 UNL     1      -7.579 -29.352 -14.853  1.00  0.00     0.010 A 
ENDBRANCH   1   7
BRANCH   1  13
HETATM   13  N1  UNL     1      -8.623 -26.799 -14.004  1.00  0.00     0.102 N 
HETATM   14  C6  UNL     1      -8.051 -26.995 -12.703  1.00  0.00     0.274 C 
HETATM   15  C7  UNL     1      -7.420 -25.675 -12.275  1.00  0.00     0.030 C 
HETATM   16  C8  UNL     1      -7.138 -24.739 -13.402  1.00  0.00     0.003 C 
HETATM   17  C9  UNL     1      -6.713 -25.387 -14.672  1.00  0.00     0.030 C 
HETATM   18  C10 UNL     1      -7.518 -26.637 -14.921  1.00  0.00     0.274 C 
ENDBRANCH   1  13
TORSDOF 2
ENDMDL
