MODEL 3
REMARK VINA RESULT: -5.416524496      1.814      6.031
REMARK  12 active torsions:
REMARK  status: ('A' for Active; 'I' for Inactive)
REMARK    1  A    between atoms: O1_1  and  C1_3 
REMARK    2  A    between atoms: C1_3  and  C2_4 
REMARK    3  A    between atoms: C3_6  and  O3_7 
REMARK    4  A    between atoms: O3_7  and  C4_8 
REMARK    5  A    between atoms: C5_9  and  C6_10 
REMARK    6  A    between atoms: C6_10  and  O4_11 
REMARK    7  A    between atoms: C7_14  and  O6_15 
REMARK    8  A    between atoms: C8_17  and  O7_18 
REMARK    9  A    between atoms: C9_20  and  O8_21 
REMARK   10  A    between atoms: C10_23  and  O9_24 
REMARK   11  A    between atoms: C11_26  and  O10_27 
REMARK   12  A    between atoms: C12_29  and  O11_30 
ROOT
HETATM    1  O3  UNL     1      53.730 -12.819  15.453  1.00  0.00    -0.348 OA
ENDROOT
BRANCH   1   2
HETATM    2  C3  UNL     1      52.993 -13.786  14.775  1.00  0.00     0.292 C 
HETATM    3  O2  UNL     1      53.778 -14.798  14.270  1.00  0.00    -0.348 OA
HETATM    4  C2  UNL     1      52.989 -15.943  14.191  1.00  0.00     0.179 C 
HETATM    5  C12 UNL     1      51.685 -15.681  13.470  1.00  0.00     0.180 C 
HETATM    6  C11 UNL     1      51.686 -14.331  12.785  1.00  0.00     0.183 C 
HETATM    7  C10 UNL     1      52.145 -13.219  13.687  1.00  0.00     0.204 C 
BRANCH   4   8
HETATM    8  C1  UNL     1      53.743 -17.106  13.590  1.00  0.00     0.198 C 
BRANCH   8   9
HETATM    9  O1  UNL     1      53.152 -18.331  13.869  1.00  0.00    -0.398 OA
ATOM     10  H1  UNL     1      53.693 -19.067  13.610  1.00  0.00     0.209 HD
ENDBRANCH   8   9
ENDBRANCH   4   8
BRANCH   5  11
HETATM   11  O11 UNL     1      51.580 -16.641  12.454  1.00  0.00    -0.390 OA
ATOM     12  H11 UNL     1      52.461 -16.813  12.142  1.00  0.00     0.210 HD
ENDBRANCH   5  11
BRANCH   6  13
HETATM   13  O10 UNL     1      50.346 -14.079  12.415  1.00  0.00    -0.390 OA
ATOM     14  H10 UNL     1      50.102 -13.223  12.747  1.00  0.00     0.210 HD
ENDBRANCH   6  13
BRANCH   7  15
HETATM   15  O9  UNL     1      52.852 -12.300  12.888  1.00  0.00    -0.388 OA
ATOM     16  H9  UNL     1      52.451 -12.186  12.035  1.00  0.00     0.210 HD
ENDBRANCH   7  15
ENDBRANCH   1   2
BRANCH   1  17
HETATM   17  C4  UNL     1      53.523 -12.829  16.817  1.00  0.00     0.187 C 
HETATM   18  C5  UNL     1      52.281 -12.033  17.132  1.00  0.00     0.180 C 
HETATM   19  O5  UNL     1      52.090 -11.839  18.490  1.00  0.00    -0.349 OA
HETATM   20  C7  UNL     1      53.171 -11.245  19.117  1.00  0.00     0.288 C 
HETATM   21  C8  UNL     1      54.453 -12.019  18.916  1.00  0.00     0.204 C 
HETATM   22  C9  UNL     1      54.758 -12.255  17.473  1.00  0.00     0.183 C 
BRANCH  18  23
HETATM   23  C6  UNL     1      52.256 -10.725  16.359  1.00  0.00     0.198 C 
BRANCH  23  24
HETATM   24  O4  UNL     1      51.241 -10.805  15.406  1.00  0.00    -0.398 OA
ATOM     25  H4  UNL     1      50.962 -11.711  15.350  1.00  0.00     0.209 HD
ENDBRANCH  23  24
ENDBRANCH  18  23
BRANCH  20  26
HETATM   26  O6  UNL     1      52.910 -11.226  20.487  1.00  0.00    -0.369 OA
ATOM     27  H6  UNL     1      53.743 -11.269  20.941  1.00  0.00     0.212 HD
ENDBRANCH  20  26
BRANCH  21  28
HETATM   28  O7  UNL     1      55.478 -11.298  19.524  1.00  0.00    -0.388 OA
ATOM     29  H7  UNL     1      55.383 -11.403  20.463  1.00  0.00     0.210 HD
ENDBRANCH  21  28
BRANCH  22  30
HETATM   30  O8  UNL     1      55.249 -11.150  16.814  1.00  0.00    -0.390 OA
ATOM     31  H8  UNL     1      56.149 -11.260  16.530  1.00  0.00     0.210 HD
ENDBRANCH  22  30
ENDBRANCH   1  17
TORSDOF 12
ENDMDL
