MODEL 1
REMARK VINA RESULT: -6.153043213      0.000      0.000
REMARK  12 active torsions:
REMARK  status: ('A' for Active; 'I' for Inactive)
REMARK    1  A    between atoms: O1_1  and  C1_3 
REMARK    2  A    between atoms: C1_3  and  C2_4 
REMARK    3  A    between atoms: C3_6  and  O3_7 
REMARK    4  A    between atoms: O3_7  and  C4_8 
REMARK    5  A    between atoms: C5_9  and  C6_10 
REMARK    6  A    between atoms: C6_10  and  O4_11 
REMARK    7  A    between atoms: C7_14  and  O6_15 
REMARK    8  A    between atoms: C8_17  and  O7_18 
REMARK    9  A    between atoms: C9_20  and  O8_21 
REMARK   10  A    between atoms: C10_23  and  O9_24 
REMARK   11  A    between atoms: C11_26  and  O10_27 
REMARK   12  A    between atoms: C12_29  and  O11_30 
ROOT
HETATM    1  O3  UNL     1      53.369 -11.732  15.833  1.00  0.00    -0.348 OA
ENDROOT
BRANCH   1   2
HETATM    2  C3  UNL     1      53.633 -11.914  17.188  1.00  0.00     0.292 C 
HETATM    3  O2  UNL     1      53.908 -13.224  17.507  1.00  0.00    -0.348 OA
HETATM    4  C2  UNL     1      54.726 -13.221  18.634  1.00  0.00     0.179 C 
HETATM    5  C12 UNL     1      54.155 -12.365  19.743  1.00  0.00     0.180 C 
HETATM    6  C11 UNL     1      52.726 -11.956  19.455  1.00  0.00     0.183 C 
HETATM    7  C10 UNL     1      52.545 -11.400  18.069  1.00  0.00     0.204 C 
BRANCH   4   8
HETATM    8  C1  UNL     1      55.041 -14.621  19.106  1.00  0.00     0.198 C 
BRANCH   8   9
HETATM    9  O1  UNL     1      54.001 -15.511  18.878  1.00  0.00    -0.398 OA
ATOM     10  H1  UNL     1      54.046 -16.279  19.435  1.00  0.00     0.209 HD
ENDBRANCH   8   9
ENDBRANCH   4   8
BRANCH   5  11
HETATM   11  O11 UNL     1      54.114 -13.161  20.895  1.00  0.00    -0.390 OA
ATOM     12  H11 UNL     1      54.601 -12.700  21.569  1.00  0.00     0.210 HD
ENDBRANCH   5  11
BRANCH   6  13
HETATM   13  O10 UNL     1      52.414 -10.940  20.386  1.00  0.00    -0.390 OA
ATOM     14  H10 UNL     1      51.831 -11.304  21.041  1.00  0.00     0.210 HD
ENDBRANCH   6  13
BRANCH   7  15
HETATM   15  O9  UNL     1      51.271 -11.797  17.624  1.00  0.00    -0.388 OA
ATOM     16  H9  UNL     1      51.075 -12.697  17.858  1.00  0.00     0.210 HD
ENDBRANCH   7  15
ENDBRANCH   1   2
BRANCH   1  17
HETATM   17  C4  UNL     1      53.275 -12.915  15.130  1.00  0.00     0.187 C 
HETATM   18  C5  UNL     1      54.409 -12.989  14.138  1.00  0.00     0.180 C 
HETATM   19  O5  UNL     1      54.298 -14.059  13.265  1.00  0.00    -0.349 OA
HETATM   20  C7  UNL     1      53.100 -14.081  12.573  1.00  0.00     0.288 C 
HETATM   21  C8  UNL     1      51.901 -14.083  13.493  1.00  0.00     0.204 C 
HETATM   22  C9  UNL     1      51.920 -12.944  14.459  1.00  0.00     0.183 C 
BRANCH  18  23
HETATM   23  C6  UNL     1      54.586 -11.670  13.406  1.00  0.00     0.198 C 
BRANCH  23  24
HETATM   24  O4  UNL     1      55.441 -10.868  14.162  1.00  0.00    -0.398 OA
ATOM     25  H4  UNL     1      54.915 -10.211  14.602  1.00  0.00     0.209 HD
ENDBRANCH  23  24
ENDBRANCH  18  23
BRANCH  20  26
HETATM   26  O6  UNL     1      53.057 -15.264  11.836  1.00  0.00    -0.369 OA
ATOM     27  H6  UNL     1      52.506 -15.112  11.077  1.00  0.00     0.212 HD
ENDBRANCH  20  26
BRANCH  21  28
HETATM   28  O7  UNL     1      50.761 -14.033  12.696  1.00  0.00    -0.388 OA
ATOM     29  H7  UNL     1      50.172 -14.716  12.995  1.00  0.00     0.210 HD
ENDBRANCH  21  28
BRANCH  22  30
HETATM   30  O8  UNL     1      51.572 -11.731  13.906  1.00  0.00    -0.390 OA
ATOM     31  H8  UNL     1      51.929 -11.607  13.035  1.00  0.00     0.210 HD
ENDBRANCH  22  30
ENDBRANCH   1  17
TORSDOF 12
ENDMDL
