MODEL 2
REMARK VINA RESULT: -5.667058661      1.237      1.377
REMARK  12 active torsions:
REMARK  status: ('A' for Active; 'I' for Inactive)
REMARK    1  A    between atoms: O1_1  and  C1_3 
REMARK    2  A    between atoms: C1_3  and  C2_4 
REMARK    3  A    between atoms: C3_6  and  O3_7 
REMARK    4  A    between atoms: O3_7  and  C4_8 
REMARK    5  A    between atoms: C5_9  and  C6_10 
REMARK    6  A    between atoms: C6_10  and  O4_11 
REMARK    7  A    between atoms: C7_14  and  O6_15 
REMARK    8  A    between atoms: C8_17  and  O7_18 
REMARK    9  A    between atoms: C9_20  and  O8_21 
REMARK   10  A    between atoms: C10_23  and  O9_24 
REMARK   11  A    between atoms: C11_26  and  O10_27 
REMARK   12  A    between atoms: C12_29  and  O11_30 
ROOT
HETATM    1  O3  UNL     1      53.225 -11.726  16.569  1.00  0.00    -0.348 OA
ENDROOT
BRANCH   1   2
HETATM    2  C3  UNL     1      53.940 -12.281  17.627  1.00  0.00     0.292 C 
HETATM    3  O2  UNL     1      53.979 -13.656  17.583  1.00  0.00    -0.348 OA
HETATM    4  C2  UNL     1      55.143 -14.066  18.228  1.00  0.00     0.179 C 
HETATM    5  C12 UNL     1      55.283 -13.434  19.595  1.00  0.00     0.180 C 
HETATM    6  C11 UNL     1      54.007 -12.742  20.025  1.00  0.00     0.183 C 
HETATM    7  C10 UNL     1      53.447 -11.835  18.963  1.00  0.00     0.204 C 
BRANCH   4   8
HETATM    8  C1  UNL     1      55.254 -15.571  18.287  1.00  0.00     0.198 C 
BRANCH   8   9
HETATM    9  O1  UNL     1      54.028 -16.193  18.475  1.00  0.00    -0.398 OA
ATOM     10  H1  UNL     1      53.994 -17.062  18.094  1.00  0.00     0.209 HD
ENDBRANCH   8   9
ENDBRANCH   4   8
BRANCH   5  11
HETATM   11  O11 UNL     1      55.494 -14.476  20.508  1.00  0.00    -0.390 OA
ATOM     12  H11 UNL     1      55.386 -14.109  21.378  1.00  0.00     0.210 HD
ENDBRANCH   5  11
BRANCH   6  13
HETATM   13  O10 UNL     1      54.347 -11.954  21.147  1.00  0.00    -0.390 OA
ATOM     14  H10 UNL     1      53.841 -12.260  21.891  1.00  0.00     0.210 HD
ENDBRANCH   6  13
BRANCH   7  15
HETATM   15  O9  UNL     1      52.045 -11.898  19.058  1.00  0.00    -0.388 OA
ATOM     16  H9  UNL     1      51.759 -12.452  19.775  1.00  0.00     0.210 HD
ENDBRANCH   7  15
ENDBRANCH   1   2
BRANCH   1  17
HETATM   17  C4  UNL     1      53.263 -12.491  15.422  1.00  0.00     0.187 C 
HETATM   18  C5  UNL     1      54.446 -12.066  14.588  1.00  0.00     0.180 C 
HETATM   19  O5  UNL     1      54.467 -12.656  13.335  1.00  0.00    -0.349 OA
HETATM   20  C7  UNL     1      53.310 -12.441  12.607  1.00  0.00     0.288 C 
HETATM   21  C8  UNL     1      52.072 -12.907  13.339  1.00  0.00     0.204 C 
HETATM   22  C9  UNL     1      51.950 -12.300  14.698  1.00  0.00     0.183 C 
BRANCH  18  23
HETATM   23  C6  UNL     1      54.548 -10.552  14.509  1.00  0.00     0.198 C 
BRANCH  23  24
HETATM   24  O4  UNL     1      55.506 -10.134  15.432  1.00  0.00    -0.398 OA
ATOM     25  H4  UNL     1      55.282  -9.254  15.710  1.00  0.00     0.209 HD
ENDBRANCH  23  24
ENDBRANCH  18  23
BRANCH  20  26
HETATM   26  O6  UNL     1      53.401 -13.188  11.433  1.00  0.00    -0.369 OA
ATOM     27  H6  UNL     1      52.837 -13.946  11.528  1.00  0.00     0.212 HD
ENDBRANCH  20  26
BRANCH  21  28
HETATM   28  O7  UNL     1      50.972 -12.578  12.552  1.00  0.00    -0.388 OA
ATOM     29  H7  UNL     1      50.943 -11.632  12.482  1.00  0.00     0.210 HD
ENDBRANCH  21  28
BRANCH  22  30
HETATM   30  O8  UNL     1      51.529 -10.988  14.693  1.00  0.00    -0.390 OA
ATOM     31  H8  UNL     1      50.589 -10.903  14.803  1.00  0.00     0.210 HD
ENDBRANCH  22  30
ENDBRANCH   1  17
TORSDOF 12
ENDMDL
