MODEL 2
REMARK VINA RESULT: -7.145780010      0.085      1.093
REMARK  1 active torsions:
REMARK  status: ('A' for Active; 'I' for Inactive)
REMARK    1  A    between atoms: C4_5  and  C5_6 
ROOT
HETATM    1  O1  UNL     1      55.357  90.768   6.296  1.00  0.00    -0.274 OA
HETATM    2  C1  UNL     1      54.874  91.854   6.526  1.00  0.00     0.218 C 
HETATM    3  C2  UNL     1      53.721  91.975   7.487  1.00  0.00     0.105 C 
HETATM    4  C3  UNL     1      53.411  93.462   7.483  1.00  0.00     0.045 C 
HETATM    5  C4  UNL     1      54.664  94.023   7.032  1.00  0.00     0.186 C 
HETATM    6  N1  UNL     1      55.287  93.137   6.045  1.00  0.00    -0.347 N 
ATOM      7  H1  UNL     1      55.861  93.372   5.236  1.00  0.00     0.163 HD
ENDROOT
BRANCH   5   8
HETATM    8  C5  UNL     1      55.569  94.421   8.095  1.00  0.00     0.196 C 
HETATM    9  O2  UNL     1      56.732  93.832   8.108  1.00  0.00    -0.646 OA
HETATM   10  O3  UNL     1      55.229  95.325   9.052  1.00  0.00    -0.646 OA
ENDBRANCH   5   8
TORSDOF 1
ENDMDL
