MODEL 1
REMARK VINA RESULT: -7.313954692      0.000      0.000
REMARK  1 active torsions:
REMARK  status: ('A' for Active; 'I' for Inactive)
REMARK    1  A    between atoms: C4_5  and  C5_6 
ROOT
HETATM    1  O1  UNL     1      55.284  90.779   6.253  1.00  0.00    -0.274 OA
HETATM    2  C1  UNL     1      54.833  91.872   6.511  1.00  0.00     0.218 C 
HETATM    3  C2  UNL     1      53.691  92.003   7.484  1.00  0.00     0.105 C 
HETATM    4  C3  UNL     1      53.422  93.498   7.514  1.00  0.00     0.045 C 
HETATM    5  C4  UNL     1      54.685  94.034   7.064  1.00  0.00     0.186 C 
HETATM    6  N1  UNL     1      55.276  93.153   6.053  1.00  0.00    -0.347 N 
ATOM      7  H1  UNL     1      55.849  93.390   5.243  1.00  0.00     0.163 HD
ENDROOT
BRANCH   5   8
HETATM    8  C5  UNL     1      55.609  94.385   8.127  1.00  0.00     0.196 C 
HETATM    9  O2  UNL     1      55.213  95.320   8.945  1.00  0.00    -0.646 OA
HETATM   10  O3  UNL     1      56.835  93.811   8.257  1.00  0.00    -0.646 OA
ENDBRANCH   5   8
TORSDOF 1
ENDMDL
