MODEL 15
REMARK VINA RESULT: -2.611823470      7.936      8.798
REMARK  1 active torsions:
REMARK  status: ('A' for Active; 'I' for Inactive)
REMARK    1  A    between atoms: C4_5  and  C5_6 
ROOT
HETATM    1  O1  UNL     1      60.954  97.120   5.845  1.00  0.00    -0.274 OA
HETATM    2  C1  UNL     1      60.903  97.712   4.790  1.00  0.00     0.218 C 
HETATM    3  C2  UNL     1      60.014  97.203   3.686  1.00  0.00     0.105 C 
HETATM    4  C3  UNL     1      60.247  98.195   2.559  1.00  0.00     0.045 C 
HETATM    5  C4  UNL     1      60.726  99.352   3.279  1.00  0.00     0.186 C 
HETATM    6  N1  UNL     1      61.549  98.933   4.416  1.00  0.00    -0.347 N 
ATOM      7  H1  UNL     1      62.362  99.389   4.830  1.00  0.00     0.163 HD
ENDROOT
BRANCH   5   8
HETATM    8  C5  UNL     1      59.698 100.312   3.640  1.00  0.00     0.196 C 
HETATM    9  O2  UNL     1      60.022 101.569   3.524  1.00  0.00    -0.646 OA
HETATM   10  O3  UNL     1      58.476  99.942   4.108  1.00  0.00    -0.646 OA
ENDBRANCH   5   8
TORSDOF 1
ENDMDL
