MODEL 16
REMARK VINA RESULT: -2.344698286      8.490      9.682
REMARK  1 active torsions:
REMARK  status: ('A' for Active; 'I' for Inactive)
REMARK    1  A    between atoms: C4_5  and  C5_6 
ROOT
HETATM    1  O1  UNL     1      62.124 101.370   4.242  1.00  0.00    -0.274 OA
HETATM    2  C1  UNL     1      61.173 100.621   4.251  1.00  0.00     0.218 C 
HETATM    3  C2  UNL     1      59.870 101.055   3.632  1.00  0.00     0.105 C 
HETATM    4  C3  UNL     1      58.956  99.863   3.862  1.00  0.00     0.045 C 
HETATM    5  C4  UNL     1      59.908  98.790   4.032  1.00  0.00     0.186 C 
HETATM    6  N1  UNL     1      61.098  99.277   4.734  1.00  0.00    -0.347 N 
ATOM      7  H1  UNL     1      61.707  98.789   5.390  1.00  0.00     0.163 HD
ENDROOT
BRANCH   5   8
HETATM    8  C5  UNL     1      60.221  98.058   2.817  1.00  0.00     0.196 C 
HETATM    9  O2  UNL     1      60.136  96.759   2.893  1.00  0.00    -0.646 OA
HETATM   10  O3  UNL     1      60.616  98.670   1.669  1.00  0.00    -0.646 OA
ENDBRANCH   5   8
TORSDOF 1
ENDMDL
