MODEL 3
REMARK VINA RESULT: -9.126462644      1.674      6.363
REMARK  5 active torsions:
REMARK  status: ('A' for Active; 'I' for Inactive)
REMARK    1  A    between atoms: O1_1  and  C1_3 
REMARK    2  A    between atoms: C12_31  and  O11_32 
REMARK    3  A    between atoms: C13_34  and  O12_35 
REMARK    4  A    between atoms: C14_37  and  O13_38 
REMARK    5  A    between atoms: C15_40  and  O14_41 
ROOT
HETATM    1  C1  UNL     1       5.177  -5.558   5.086  1.00  0.00     0.176 A 
HETATM    2  C2  UNL     1       6.516  -5.904   5.427  1.00  0.00     0.129 A 
HETATM    3  N1  UNL     1       7.136  -7.089   5.685  1.00  0.00    -0.346 N 
ATOM      4  H1  UNL     1       6.695  -8.009   5.675  1.00  0.00     0.167 HD
HETATM    5  C3  UNL     1       8.431  -6.839   5.956  1.00  0.00     0.188 A 
HETATM    6  N2  UNL     1       8.620  -5.509   5.870  1.00  0.00    -0.297 N 
HETATM    7  C4  UNL     1       7.482  -4.963   5.556  1.00  0.00     0.143 A 
HETATM    8  N3  UNL     1       7.141  -3.707   5.356  1.00  0.00    -0.336 N 
ATOM      9  H3  UNL     1       7.856  -2.986   5.450  1.00  0.00     0.168 HD
HETATM   10  C5  UNL     1       5.857  -3.323   5.023  1.00  0.00     0.189 A 
HETATM   11  N4  UNL     1       4.904  -4.258   4.895  1.00  0.00    -0.292 N 
HETATM   12  C6  UNL     1       3.547  -3.819   4.545  1.00  0.00     0.262 C 
HETATM   13  O2  UNL     1       3.396  -2.776   3.641  1.00  0.00    -0.353 OA
HETATM   14  C7  UNL     1       2.720  -1.746   4.212  1.00  0.00     0.180 C 
HETATM   15  C8  UNL     1       3.623  -0.538   4.460  1.00  0.00     0.216 C 
HETATM   16  O3  UNL     1       4.509  -0.334   3.433  1.00  0.00    -0.287 OA
HETATM   17  P1  UNL     1       5.704   0.753   3.957  1.00  0.00     0.417 P 
HETATM   18  O4  UNL     1       5.578   0.979   5.440  1.00  0.00    -0.624 OA
HETATM   19  O5  UNL     1       5.472   2.224   3.161  1.00  0.00    -0.624 OA
HETATM   20  O6  UNL     1       7.208   0.089   3.621  1.00  0.00    -0.180 OA
HETATM   21  P2  UNL     1       8.150   0.010   4.998  1.00  0.00     0.417 P 
HETATM   22  O7  UNL     1       8.915   1.307   5.154  1.00  0.00    -0.624 OA
HETATM   23  O8  UNL     1       7.163  -0.181   6.353  1.00  0.00    -0.624 OA
HETATM   24  O9  UNL     1       9.265  -1.280   4.918  1.00  0.00    -0.287 OA
HETATM   25  C9  UNL     1       9.940  -1.317   6.115  1.00  0.00     0.216 C 
HETATM   26  C10 UNL     1      10.560  -2.658   6.439  1.00  0.00     0.180 C 
HETATM   27  O10 UNL     1       9.635  -3.600   6.797  1.00  0.00    -0.353 OA
HETATM   28  C11 UNL     1       9.850  -4.765   6.078  1.00  0.00     0.262 C 
HETATM   29  C12 UNL     1      10.369  -4.257   4.751  1.00  0.00     0.198 C 
HETATM   30  C13 UNL     1      11.283  -3.144   5.219  1.00  0.00     0.182 C 
HETATM   31  C14 UNL     1       2.101  -2.192   5.483  1.00  0.00     0.182 C 
HETATM   32  C15 UNL     1       2.823  -3.444   5.823  1.00  0.00     0.198 C 
ENDROOT
BRANCH   1  33
HETATM   33  O1  UNL     1       4.505  -6.672   5.044  1.00  0.00    -0.344 OA
ATOM     34  H1  UNL     1       3.772  -6.569   5.639  1.00  0.00     0.219 HD
ENDBRANCH   1  33
BRANCH  32  35
HETATM   35  O14 UNL     1       1.914  -4.420   6.206  1.00  0.00    -0.388 OA
ATOM     36  H14 UNL     1       1.085  -4.330   5.750  1.00  0.00     0.210 HD
ENDBRANCH  32  35
BRANCH  31  37
HETATM   37  O13 UNL     1       0.723  -2.347   5.419  1.00  0.00    -0.390 OA
ATOM     38  H13 UNL     1       0.323  -2.601   6.242  1.00  0.00     0.210 HD
ENDBRANCH  31  37
BRANCH  29  39
HETATM   39  O11 UNL     1      11.035  -5.227   4.025  1.00  0.00    -0.388 OA
ATOM     40  H11 UNL     1      10.971  -5.098   3.086  1.00  0.00     0.210 HD
ENDBRANCH  29  39
BRANCH  30  41
HETATM   41  O12 UNL     1      12.488  -3.735   5.623  1.00  0.00    -0.390 OA
ATOM     42  H12 UNL     1      12.878  -4.167   4.872  1.00  0.00     0.210 HD
ENDBRANCH  30  41
TORSDOF 5
ENDMDL
