MODEL 1
REMARK VINA RESULT: -9.707248557      0.000      0.000
REMARK  5 active torsions:
REMARK  status: ('A' for Active; 'I' for Inactive)
REMARK    1  A    between atoms: O1_1  and  C1_3 
REMARK    2  A    between atoms: C12_31  and  O11_32 
REMARK    3  A    between atoms: C13_34  and  O12_35 
REMARK    4  A    between atoms: C14_37  and  O13_38 
REMARK    5  A    between atoms: C15_40  and  O14_41 
ROOT
HETATM    1  C1  UNL     1       8.293  -6.178   6.383  1.00  0.00     0.176 A 
HETATM    2  C2  UNL     1       6.871  -6.199   6.463  1.00  0.00     0.129 A 
HETATM    3  N1  UNL     1       5.981  -7.060   7.031  1.00  0.00    -0.346 N 
ATOM      4  H1  UNL     1       6.216  -7.912   7.540  1.00  0.00     0.167 HD
HETATM    5  C3  UNL     1       4.738  -6.594   6.806  1.00  0.00     0.188 A 
HETATM    6  N2  UNL     1       4.848  -5.452   6.102  1.00  0.00    -0.297 N 
HETATM    7  C4  UNL     1       6.113  -5.225   5.903  1.00  0.00     0.143 A 
HETATM    8  N3  UNL     1       6.739  -4.250   5.277  1.00  0.00    -0.336 N 
ATOM      9  H3  UNL     1       6.183  -3.510   4.849  1.00  0.00     0.168 HD
HETATM   10  C5  UNL     1       8.114  -4.187   5.174  1.00  0.00     0.189 A 
HETATM   11  N4  UNL     1       8.860  -5.152   5.730  1.00  0.00    -0.292 N 
HETATM   12  C6  UNL     1      10.320  -5.059   5.600  1.00  0.00     0.262 C 
HETATM   13  O2  UNL     1      10.919  -3.810   5.680  1.00  0.00    -0.353 OA
HETATM   14  C7  UNL     1      11.601  -3.534   4.540  1.00  0.00     0.180 C 
HETATM   15  C8  UNL     1      10.923  -2.437   3.720  1.00  0.00     0.216 C 
HETATM   16  O3  UNL     1      10.414  -1.438   4.511  1.00  0.00    -0.287 OA
HETATM   17  P1  UNL     1       9.361  -0.491   3.574  1.00  0.00     0.417 P 
HETATM   18  O4  UNL     1       9.114  -1.155   2.247  1.00  0.00    -0.624 OA
HETATM   19  O5  UNL     1      10.091   1.008   3.306  1.00  0.00    -0.624 OA
HETATM   20  O6  UNL     1       7.908  -0.340   4.400  1.00  0.00    -0.180 OA
HETATM   21  P2  UNL     1       6.626  -0.840   3.454  1.00  0.00     0.417 P 
HETATM   22  O7  UNL     1       6.120   0.331   2.639  1.00  0.00    -0.624 OA
HETATM   23  O8  UNL     1       7.142  -2.038   2.383  1.00  0.00    -0.624 OA
HETATM   24  O9  UNL     1       5.344  -1.441   4.407  1.00  0.00    -0.287 OA
HETATM   25  C9  UNL     1       4.370  -1.898   3.549  1.00  0.00     0.216 C 
HETATM   26  C10 UNL     1       3.432  -2.915   4.159  1.00  0.00     0.180 C 
HETATM   27  O10 UNL     1       4.017  -4.139   4.336  1.00  0.00    -0.353 OA
HETATM   28  C11 UNL     1       3.781  -4.589   5.626  1.00  0.00     0.262 C 
HETATM   29  C12 UNL     1       3.761  -3.311   6.434  1.00  0.00     0.198 C 
HETATM   30  C13 UNL     1       2.993  -2.402   5.497  1.00  0.00     0.182 C 
HETATM   31  C14 UNL     1      11.743  -4.767   3.727  1.00  0.00     0.182 C 
HETATM   32  C15 UNL     1      10.722  -5.691   4.282  1.00  0.00     0.198 C 
ENDROOT
BRANCH   1  33
HETATM   33  O1  UNL     1       8.715  -7.239   7.008  1.00  0.00    -0.344 OA
ATOM     34  H1  UNL     1       8.663  -7.957   6.389  1.00  0.00     0.219 HD
ENDBRANCH   1  33
BRANCH  32  35
HETATM   35  O14 UNL     1      11.278  -6.950   4.460  1.00  0.00    -0.388 OA
ATOM     36  H14 UNL     1      10.930  -7.582   3.842  1.00  0.00     0.210 HD
ENDBRANCH  32  35
BRANCH  31  37
HETATM   37  O13 UNL     1      13.026  -5.297   3.722  1.00  0.00    -0.390 OA
ATOM     38  H13 UNL     1      13.062  -6.220   3.503  1.00  0.00     0.210 HD
ENDBRANCH  31  37
BRANCH  29  39
HETATM   39  O11 UNL     1       3.143  -3.459   7.663  1.00  0.00    -0.388 OA
ATOM     40  H11 UNL     1       3.102  -2.649   8.158  1.00  0.00     0.210 HD
ENDBRANCH  29  39
BRANCH  30  41
HETATM   41  O12 UNL     1       1.631  -2.691   5.658  1.00  0.00    -0.390 OA
ATOM     42  H12 UNL     1       1.544  -3.367   6.320  1.00  0.00     0.210 HD
ENDBRANCH  30  41
TORSDOF 5
ENDMDL
