MODEL 2
REMARK VINA RESULT: -9.141357105      1.355      1.685
REMARK  5 active torsions:
REMARK  status: ('A' for Active; 'I' for Inactive)
REMARK    1  A    between atoms: O1_1  and  C1_3 
REMARK    2  A    between atoms: C12_31  and  O11_32 
REMARK    3  A    between atoms: C13_34  and  O12_35 
REMARK    4  A    between atoms: C14_37  and  O13_38 
REMARK    5  A    between atoms: C15_40  and  O14_41 
ROOT
HETATM    1  C1  UNL     1       7.149  -6.048   6.014  1.00  0.00     0.176 A 
HETATM    2  C2  UNL     1       5.831  -5.615   5.693  1.00  0.00     0.129 A 
HETATM    3  N1  UNL     1       4.598  -6.164   5.876  1.00  0.00    -0.346 N 
ATOM      4  H1  UNL     1       4.405  -7.065   6.315  1.00  0.00     0.167 HD
HETATM    5  C3  UNL     1       3.678  -5.317   5.377  1.00  0.00     0.188 A 
HETATM    6  N2  UNL     1       4.329  -4.246   4.886  1.00  0.00    -0.297 N 
HETATM    7  C4  UNL     1       5.603  -4.430   5.076  1.00  0.00     0.143 A 
HETATM    8  N3  UNL     1       6.647  -3.685   4.780  1.00  0.00    -0.336 N 
ATOM      9  H3  UNL     1       6.492  -2.791   4.314  1.00  0.00     0.168 HD
HETATM   10  C5  UNL     1       7.943  -4.063   5.071  1.00  0.00     0.189 A 
HETATM   11  N4  UNL     1       8.164  -5.235   5.683  1.00  0.00    -0.292 N 
HETATM   12  C6  UNL     1       9.554  -5.611   5.975  1.00  0.00     0.262 C 
HETATM   13  O2  UNL     1      10.441  -4.622   6.380  1.00  0.00    -0.353 OA
HETATM   14  C7  UNL     1      11.487  -4.540   5.518  1.00  0.00     0.180 C 
HETATM   15  C8  UNL     1      11.447  -3.255   4.692  1.00  0.00     0.216 C 
HETATM   16  O3  UNL     1      11.039  -2.175   5.433  1.00  0.00    -0.287 OA
HETATM   17  P1  UNL     1      10.650  -0.907   4.373  1.00  0.00     0.417 P 
HETATM   18  O4  UNL     1      10.634  -1.409   2.955  1.00  0.00    -0.624 OA
HETATM   19  O5  UNL     1      11.835   0.288   4.513  1.00  0.00    -0.624 OA
HETATM   20  O6  UNL     1       9.128  -0.328   4.775  1.00  0.00    -0.180 OA
HETATM   21  P2  UNL     1       8.106  -0.357   3.455  1.00  0.00     0.417 P 
HETATM   22  O7  UNL     1       8.242   0.943   2.690  1.00  0.00    -0.624 OA
HETATM   23  O8  UNL     1       8.545  -1.618   2.423  1.00  0.00    -0.624 OA
HETATM   24  O9  UNL     1       6.478  -0.548   3.929  1.00  0.00    -0.287 OA
HETATM   25  C9  UNL     1       5.722  -0.638   2.784  1.00  0.00     0.216 C 
HETATM   26  C10 UNL     1       4.386  -1.322   2.972  1.00  0.00     0.180 C 
HETATM   27  O10 UNL     1       4.500  -2.674   3.144  1.00  0.00    -0.353 OA
HETATM   28  C11 UNL     1       3.763  -3.070   4.248  1.00  0.00     0.262 C 
HETATM   29  C12 UNL     1       3.876  -1.883   5.178  1.00  0.00     0.198 C 
HETATM   30  C13 UNL     1       3.734  -0.743   4.191  1.00  0.00     0.182 C 
HETATM   31  C14 UNL     1      11.498  -5.723   4.625  1.00  0.00     0.182 C 
HETATM   32  C15 UNL     1      10.132  -6.290   4.750  1.00  0.00     0.198 C 
ENDROOT
BRANCH   1  33
HETATM   33  O1  UNL     1       7.029  -7.209   6.588  1.00  0.00    -0.344 OA
ATOM     34  H1  UNL     1       7.870  -7.405   6.983  1.00  0.00     0.219 HD
ENDBRANCH   1  33
BRANCH  32  35
HETATM   35  O14 UNL     1      10.209  -7.667   4.911  1.00  0.00    -0.388 OA
ATOM     36  H14 UNL     1      10.006  -7.931   5.800  1.00  0.00     0.210 HD
ENDBRANCH  32  35
BRANCH  31  37
HETATM   37  O13 UNL     1      12.505  -6.636   4.906  1.00  0.00    -0.390 OA
ATOM     38  H13 UNL     1      12.725  -7.206   4.180  1.00  0.00     0.210 HD
ENDBRANCH  31  37
BRANCH  29  39
HETATM   39  O11 UNL     1       2.899  -1.868   6.157  1.00  0.00    -0.388 OA
ATOM     40  H11 UNL     1       3.080  -1.247   6.853  1.00  0.00     0.210 HD
ENDBRANCH  29  39
BRANCH  30  41
HETATM   41  O12 UNL     1       2.365  -0.586   3.929  1.00  0.00    -0.390 OA
ATOM     42  H12 UNL     1       1.886  -1.226   4.443  1.00  0.00     0.210 HD
ENDBRANCH  30  41
TORSDOF 5
ENDMDL
