MODEL 11
REMARK VINA RESULT: -7.640373055      1.570      2.297
REMARK  5 active torsions:
REMARK  status: ('A' for Active; 'I' for Inactive)
REMARK    1  A    between atoms: O1_2  and  C2_3 
REMARK    2  A    between atoms: C2_3  and  C3_5 
REMARK    3  A    between atoms: C4_6  and  O3_7 
REMARK    4  A    between atoms: O3_7  and  C5_8 
REMARK    5  A    between atoms: C5_8  and  C6_10 
ROOT
HETATM    1  C3  UNL     1     -11.464  22.003  62.721  1.00  0.00     0.148 C 
HETATM    2  C4  UNL     1     -11.186  20.521  62.709  1.00  0.00     0.150 C 
HETATM    3  C12 UNL     1     -10.587  19.979  63.962  1.00  0.00     0.069 C 
HETATM    4  C13 UNL     1     -11.380  20.511  65.137  1.00  0.00     0.225 C 
HETATM    5  C14 UNL     1     -12.855  20.349  64.996  1.00  0.00     0.038 C 
HETATM    6  C15 UNL     1     -13.365  21.579  64.288  1.00  0.00     0.039 C 
HETATM    7  C16 UNL     1     -12.083  22.355  64.048  1.00  0.00     0.239 C 
HETATM    8  N1  UNL     1     -11.193  21.959  65.101  1.00  0.00     0.094 N 
HETATM    9  C17 UNL     1     -11.531  22.561  66.377  1.00  0.00     0.310 C 
ENDROOT
BRANCH   2  10
HETATM   10  O3  UNL     1     -10.405  20.118  61.628  1.00  0.00    -0.311 OA
BRANCH  10  11
HETATM   11  C5  UNL     1     -10.950  20.103  60.362  1.00  0.00     0.293 C 
HETATM   12  O4  UNL     1     -12.195  20.226  60.239  1.00  0.00    -0.259 OA
BRANCH  11  13
HETATM   13  C6  UNL     1     -10.110  19.945  59.165  1.00  0.00     0.039 A 
HETATM   14  C7  UNL     1     -10.295  20.705  58.032  1.00  0.00     0.017 A 
HETATM   15  C8  UNL     1      -9.476  20.521  56.925  1.00  0.00     0.001 A 
HETATM   16  C9  UNL     1      -8.454  19.581  56.909  1.00  0.00     0.000 A 
HETATM   17  C10 UNL     1      -8.281  18.828  58.048  1.00  0.00     0.001 A 
HETATM   18  C11 UNL     1      -9.092  19.010  59.147  1.00  0.00     0.017 A 
ENDBRANCH  11  13
ENDBRANCH  10  11
ENDBRANCH   2  10
BRANCH   1  19
HETATM   19  C2  UNL     1     -10.304  22.851  62.459  1.00  0.00     0.267 C 
HETATM   20  O2  UNL     1     -10.185  23.432  61.357  1.00  0.00    -0.265 OA
BRANCH  19  21
HETATM   21  O1  UNL     1      -9.289  23.061  63.388  1.00  0.00    -0.326 OA
HETATM   22  C1  UNL     1      -8.831  24.394  63.654  1.00  0.00     0.213 C 
ENDBRANCH  19  21
ENDBRANCH   1  19
TORSDOF 5
ENDMDL
