MODEL 6
REMARK VINA RESULT: -8.283918764      2.004      4.778
REMARK  5 active torsions:
REMARK  status: ('A' for Active; 'I' for Inactive)
REMARK    1  A    between atoms: O1_2  and  C2_3 
REMARK    2  A    between atoms: C2_3  and  C3_5 
REMARK    3  A    between atoms: C4_6  and  O3_7 
REMARK    4  A    between atoms: O3_7  and  C5_8 
REMARK    5  A    between atoms: C5_8  and  C6_10 
ROOT
HETATM    1  C3  UNL     1     -10.865  20.280  63.286  1.00  0.00     0.148 C 
HETATM    2  C4  UNL     1     -11.263  21.635  63.816  1.00  0.00     0.150 C 
HETATM    3  C12 UNL     1     -12.731  21.856  63.946  1.00  0.00     0.069 C 
HETATM    4  C13 UNL     1     -13.333  20.653  64.640  1.00  0.00     0.225 C 
HETATM    5  C14 UNL     1     -12.620  20.251  65.887  1.00  0.00     0.038 C 
HETATM    6  C15 UNL     1     -11.536  19.286  65.479  1.00  0.00     0.039 C 
HETATM    7  C16 UNL     1     -11.710  19.239  63.971  1.00  0.00     0.239 C 
HETATM    8  N1  UNL     1     -13.095  19.531  63.737  1.00  0.00     0.094 N 
HETATM    9  C17 UNL     1     -13.963  18.413  64.052  1.00  0.00     0.310 C 
ENDROOT
BRANCH   2  10
HETATM   10  O3  UNL     1     -10.713  22.691  63.091  1.00  0.00    -0.311 OA
BRANCH  10  11
HETATM   11  C5  UNL     1      -9.602  23.345  63.577  1.00  0.00     0.293 C 
HETATM   12  O4  UNL     1      -8.933  22.801  64.493  1.00  0.00    -0.259 OA
BRANCH  11  13
HETATM   13  C6  UNL     1      -9.188  24.654  63.049  1.00  0.00     0.039 A 
HETATM   14  C7  UNL     1      -8.482  25.562  63.807  1.00  0.00     0.017 A 
HETATM   15  C8  UNL     1      -8.114  26.787  63.266  1.00  0.00     0.001 A 
HETATM   16  C9  UNL     1      -8.434  27.147  61.963  1.00  0.00     0.000 A 
HETATM   17  C10 UNL     1      -9.140  26.231  61.218  1.00  0.00     0.001 A 
HETATM   18  C11 UNL     1      -9.506  25.014  61.754  1.00  0.00     0.017 A 
ENDBRANCH  11  13
ENDBRANCH  10  11
ENDBRANCH   2  10
BRANCH   1  19
HETATM   19  C2  UNL     1     -10.953  20.134  61.835  1.00  0.00     0.267 C 
HETATM   20  O2  UNL     1     -11.933  20.604  61.214  1.00  0.00    -0.265 OA
BRANCH  19  21
HETATM   21  O1  UNL     1      -9.987  19.483  61.076  1.00  0.00    -0.326 OA
HETATM   22  C1  UNL     1     -10.106  19.451  59.646  1.00  0.00     0.213 C 
ENDBRANCH  19  21
ENDBRANCH   1  19
TORSDOF 5
ENDMDL
