MODEL 1
REMARK VINA RESULT: -8.616684251      0.000      0.000
REMARK  5 active torsions:
REMARK  status: ('A' for Active; 'I' for Inactive)
REMARK    1  A    between atoms: O1_2  and  C2_3 
REMARK    2  A    between atoms: C2_3  and  C3_5 
REMARK    3  A    between atoms: C4_6  and  O3_7 
REMARK    4  A    between atoms: O3_7  and  C5_8 
REMARK    5  A    between atoms: C5_8  and  C6_10 
ROOT
HETATM    1  C3  UNL     1     -12.193  21.562  64.330  1.00  0.00     0.148 C 
HETATM    2  C4  UNL     1     -11.698  20.681  63.211  1.00  0.00     0.150 C 
HETATM    3  C12 UNL     1     -11.058  19.407  63.644  1.00  0.00     0.069 C 
HETATM    4  C13 UNL     1     -11.953  18.753  64.676  1.00  0.00     0.225 C 
HETATM    5  C14 UNL     1     -13.383  18.659  64.266  1.00  0.00     0.038 C 
HETATM    6  C15 UNL     1     -14.052  19.935  64.714  1.00  0.00     0.039 C 
HETATM    7  C16 UNL     1     -12.893  20.691  65.340  1.00  0.00     0.239 C 
HETATM    8  N1  UNL     1     -11.983  19.683  65.801  1.00  0.00     0.094 N 
HETATM    9  C17 UNL     1     -12.441  19.025  67.010  1.00  0.00     0.310 C 
ENDROOT
BRANCH   2  10
HETATM   10  O3  UNL     1     -10.837  21.340  62.335  1.00  0.00    -0.311 OA
BRANCH  10  11
HETATM   11  C5  UNL     1     -11.248  21.608  61.048  1.00  0.00     0.293 C 
HETATM   12  O4  UNL     1     -12.151  22.464  60.868  1.00  0.00    -0.259 OA
BRANCH  11  13
HETATM   13  C6  UNL     1     -10.656  20.917  59.891  1.00  0.00     0.039 A 
HETATM   14  C7  UNL     1     -10.051  19.685  60.003  1.00  0.00     0.017 A 
HETATM   15  C8  UNL     1      -9.505  19.071  58.883  1.00  0.00     0.001 A 
HETATM   16  C9  UNL     1      -9.543  19.657  57.625  1.00  0.00     0.000 A 
HETATM   17  C10 UNL     1     -10.152  20.888  57.528  1.00  0.00     0.001 A 
HETATM   18  C11 UNL     1     -10.694  21.499  58.639  1.00  0.00     0.017 A 
ENDBRANCH  11  13
ENDBRANCH  10  11
ENDBRANCH   2  10
BRANCH   1  19
HETATM   19  C2  UNL     1     -11.166  22.371  64.981  1.00  0.00     0.267 C 
HETATM   20  O2  UNL     1     -11.425  22.985  66.041  1.00  0.00    -0.265 OA
BRANCH  19  21
HETATM   21  O1  UNL     1      -9.875  22.507  64.482  1.00  0.00    -0.326 OA
HETATM   22  C1  UNL     1      -9.268  23.806  64.418  1.00  0.00     0.213 C 
ENDBRANCH  19  21
ENDBRANCH   1  19
TORSDOF 5
ENDMDL
