MODEL 2
REMARK VINA RESULT: -8.607602248      0.038      1.006
REMARK  5 active torsions:
REMARK  status: ('A' for Active; 'I' for Inactive)
REMARK    1  A    between atoms: O1_2  and  C2_3 
REMARK    2  A    between atoms: C2_3  and  C3_5 
REMARK    3  A    between atoms: C4_6  and  O3_7 
REMARK    4  A    between atoms: O3_7  and  C5_8 
REMARK    5  A    between atoms: C5_8  and  C6_10 
ROOT
HETATM    1  C3  UNL     1     -12.194  21.543  64.327  1.00  0.00     0.148 C 
HETATM    2  C4  UNL     1     -11.708  20.647  63.215  1.00  0.00     0.150 C 
HETATM    3  C12 UNL     1     -11.087  19.368  63.660  1.00  0.00     0.069 C 
HETATM    4  C13 UNL     1     -11.994  18.734  64.694  1.00  0.00     0.225 C 
HETATM    5  C14 UNL     1     -13.424  18.657  64.281  1.00  0.00     0.038 C 
HETATM    6  C15 UNL     1     -14.076  19.945  64.718  1.00  0.00     0.039 C 
HETATM    7  C16 UNL     1     -12.909  20.690  65.341  1.00  0.00     0.239 C 
HETATM    8  N1  UNL     1     -12.014  19.673  65.813  1.00  0.00     0.094 N 
HETATM    9  C17 UNL     1     -12.484  19.031  67.025  1.00  0.00     0.310 C 
ENDROOT
BRANCH   2  10
HETATM   10  O3  UNL     1     -10.836  21.287  62.337  1.00  0.00    -0.311 OA
BRANCH  10  11
HETATM   11  C5  UNL     1     -11.258  21.598  61.062  1.00  0.00     0.293 C 
HETATM   12  O4  UNL     1     -12.168  22.453  60.919  1.00  0.00    -0.259 OA
BRANCH  11  13
HETATM   13  C6  UNL     1     -10.669  20.951  59.879  1.00  0.00     0.039 A 
HETATM   14  C7  UNL     1     -10.699  21.535  58.632  1.00  0.00     0.017 A 
HETATM   15  C8  UNL     1     -10.130  20.887  57.543  1.00  0.00     0.001 A 
HETATM   16  C9  UNL     1      -9.518  19.646  57.658  1.00  0.00     0.000 A 
HETATM   17  C10 UNL     1      -9.495  19.074  58.910  1.00  0.00     0.001 A 
HETATM   18  C11 UNL     1     -10.059  19.717  59.992  1.00  0.00     0.017 A 
ENDBRANCH  11  13
ENDBRANCH  10  11
ENDBRANCH   2  10
BRANCH   1  19
HETATM   19  C2  UNL     1     -11.158  22.343  64.974  1.00  0.00     0.267 C 
HETATM   20  O2  UNL     1     -11.399  22.934  66.051  1.00  0.00    -0.265 OA
BRANCH  19  21
HETATM   21  O1  UNL     1      -9.877  22.495  64.453  1.00  0.00    -0.326 OA
HETATM   22  C1  UNL     1      -9.271  23.795  64.420  1.00  0.00     0.213 C 
ENDBRANCH  19  21
ENDBRANCH   1  19
TORSDOF 5
ENDMDL
