MODEL 7
REMARK VINA RESULT: -8.180400366      1.797      4.949
REMARK  5 active torsions:
REMARK  status: ('A' for Active; 'I' for Inactive)
REMARK    1  A    between atoms: O1_2  and  C2_3 
REMARK    2  A    between atoms: C2_3  and  C3_5 
REMARK    3  A    between atoms: C4_6  and  O3_7 
REMARK    4  A    between atoms: O3_7  and  C5_8 
REMARK    5  A    between atoms: C5_8  and  C6_10 
ROOT
HETATM    1  C3  UNL     1     -10.841  20.215  63.631  1.00  0.00     0.148 C 
HETATM    2  C4  UNL     1     -11.259  21.521  64.259  1.00  0.00     0.150 C 
HETATM    3  C12 UNL     1     -12.730  21.761  64.299  1.00  0.00     0.069 C 
HETATM    4  C13 UNL     1     -13.401  20.511  64.827  1.00  0.00     0.225 C 
HETATM    5  C14 UNL     1     -12.792  19.976  66.078  1.00  0.00     0.038 C 
HETATM    6  C15 UNL     1     -11.693  19.030  65.661  1.00  0.00     0.039 C 
HETATM    7  C16 UNL     1     -11.752  19.132  64.147  1.00  0.00     0.239 C 
HETATM    8  N1  UNL     1     -13.110  19.475  63.839  1.00  0.00     0.094 N 
HETATM    9  C17 UNL     1     -14.017  18.351  63.978  1.00  0.00     0.310 C 
ENDROOT
BRANCH   2  10
HETATM   10  O3  UNL     1     -10.640  22.629  63.683  1.00  0.00    -0.311 OA
BRANCH  10  11
HETATM   11  C5  UNL     1      -9.984  23.537  64.486  1.00  0.00     0.293 C 
HETATM   12  O4  UNL     1     -10.039  23.390  65.733  1.00  0.00    -0.259 OA
BRANCH  11  13
HETATM   13  C6  UNL     1      -9.230  24.664  63.915  1.00  0.00     0.039 A 
HETATM   14  C7  UNL     1      -8.868  24.708  62.588  1.00  0.00     0.017 A 
HETATM   15  C8  UNL     1      -8.155  25.793  62.094  1.00  0.00     0.001 A 
HETATM   16  C9  UNL     1      -7.782  26.862  62.898  1.00  0.00     0.000 A 
HETATM   17  C10 UNL     1      -8.151  26.804  64.223  1.00  0.00     0.001 A 
HETATM   18  C11 UNL     1      -8.858  25.728  64.715  1.00  0.00     0.017 A 
ENDBRANCH  11  13
ENDBRANCH  10  11
ENDBRANCH   2  10
BRANCH   1  19
HETATM   19  C2  UNL     1     -10.820  20.209  62.171  1.00  0.00     0.267 C 
HETATM   20  O2  UNL     1      -9.961  19.538  61.556  1.00  0.00    -0.265 OA
BRANCH  19  21
HETATM   21  O1  UNL     1     -11.724  20.927  61.394  1.00  0.00    -0.326 OA
HETATM   22  C1  UNL     1     -11.241  21.835  60.394  1.00  0.00     0.213 C 
ENDBRANCH  19  21
ENDBRANCH   1  19
TORSDOF 5
ENDMDL
