MODEL 1
REMARK VINA RESULT: -11.288657500      0.000      0.000
REMARK  5 active torsions:
REMARK  status: ('A' for Active; 'I' for Inactive)
REMARK    1  A    between atoms: C5_5  and  N1_6 
REMARK    2  A    between atoms: C7_8  and  C8_9 
REMARK    3  A    between atoms: C8_9  and  N2_10 
REMARK    4  A    between atoms: N2_10  and  C9_13 
REMARK    5  A    between atoms: C9_13  and  C10_14 
ROOT
HETATM    1  N1  UNL     1     -10.851  -8.119   7.864  1.00  0.00    -0.321 N 
HETATM    2  C6  UNL     1     -11.836  -8.908   7.408  1.00  0.00     0.107 A 
HETATM    3  C7  UNL     1     -13.045  -8.550   7.961  1.00  0.00    -0.004 A 
HETATM    4  C16 UNL     1     -12.766  -7.474   8.803  1.00  0.00     0.000 A 
HETATM    5  C17 UNL     1     -13.617  -6.691   9.571  1.00  0.00     0.014 A 
HETATM    6  C18 UNL     1     -13.115  -5.649  10.271  1.00  0.00     0.001 A 
HETATM    7  C19 UNL     1     -11.744  -5.376  10.211  1.00  0.00     0.002 A 
HETATM    8  C20 UNL     1     -10.883  -6.156   9.447  1.00  0.00     0.031 A 
HETATM    9  C21 UNL     1     -11.416  -7.222   8.730  1.00  0.00     0.050 A 
ENDROOT
BRANCH   3  10
HETATM   10  C8  UNL     1     -14.375  -9.160   7.873  1.00  0.00     0.273 C 
BRANCH  10  11
HETATM   11  N2  UNL     1     -14.940  -9.160   6.532  1.00  0.00    -0.071 N 
ATOM     12  H22 UNL     1     -14.231  -9.415   5.845  1.00  0.00     0.277 HD
ATOM     13  H21 UNL     1     -15.583  -9.944   6.415  1.00  0.00     0.277 HD
BRANCH  11  14
HETATM   14  C9  UNL     1     -15.568  -7.945   6.169  1.00  0.00     0.237 C 
BRANCH  14  15
HETATM   15  C10 UNL     1     -14.947  -7.120   5.087  1.00  0.00     0.011 C 
HETATM   16  C11 UNL     1     -15.936  -7.109   3.910  1.00  0.00     0.006 C 
HETATM   17  C12 UNL     1     -17.145  -6.293   4.266  1.00  0.00     0.000 C 
HETATM   18  C13 UNL     1     -16.759  -4.833   3.929  1.00  0.00     0.000 C 
HETATM   19  C14 UNL     1     -15.299  -4.737   4.357  1.00  0.00     0.000 C 
HETATM   20  C15 UNL     1     -14.971  -5.629   5.537  1.00  0.00     0.006 C 
ENDBRANCH  14  15
ENDBRANCH  11  14
ENDBRANCH  10  11
ENDBRANCH   3  10
BRANCH   1  21
HETATM   21  C5  UNL     1      -9.458  -8.066   7.612  1.00  0.00     0.039 A 
HETATM   22  C4  UNL     1      -8.607  -9.166   7.770  1.00  0.00     0.030 A 
HETATM   23  C3  UNL     1      -7.265  -9.100   7.441  1.00  0.00     0.009 A 
HETATM   24  C2  UNL     1      -6.701  -7.945   6.935  1.00  0.00    -0.062 A 
HETATM   25  C1  UNL     1      -5.250  -7.897   6.579  1.00  0.00     0.048 C 
HETATM   26  C23 UNL     1      -7.538  -6.856   6.779  1.00  0.00     0.009 A 
HETATM   27  C22 UNL     1      -8.877  -6.910   7.108  1.00  0.00     0.030 A 
ENDBRANCH   1  21
TORSDOF 5
ENDMDL
