MODEL 4
REMARK VINA RESULT: -9.592061479      1.585      7.454
REMARK  5 active torsions:
REMARK  status: ('A' for Active; 'I' for Inactive)
REMARK    1  A    between atoms: C5_5  and  N1_6 
REMARK    2  A    between atoms: C7_8  and  C8_9 
REMARK    3  A    between atoms: C8_9  and  N2_10 
REMARK    4  A    between atoms: N2_10  and  C9_13 
REMARK    5  A    between atoms: C9_13  and  C10_14 
ROOT
HETATM    1  N1  UNL     1     -13.509  -8.516   6.659  1.00  0.00    -0.321 N 
HETATM    2  C6  UNL     1     -12.506  -9.395   6.507  1.00  0.00     0.107 A 
HETATM    3  C7  UNL     1     -11.517  -9.174   7.439  1.00  0.00    -0.004 A 
HETATM    4  C16 UNL     1     -11.957  -8.090   8.199  1.00  0.00     0.000 A 
HETATM    5  C17 UNL     1     -11.382  -7.476   9.303  1.00  0.00     0.014 A 
HETATM    6  C18 UNL     1     -12.033  -6.465   9.920  1.00  0.00     0.001 A 
HETATM    7  C19 UNL     1     -13.280  -6.052   9.435  1.00  0.00     0.002 A 
HETATM    8  C20 UNL     1     -13.864  -6.660   8.329  1.00  0.00     0.031 A 
HETATM    9  C21 UNL     1     -13.181  -7.701   7.708  1.00  0.00     0.050 A 
ENDROOT
BRANCH   3  10
HETATM   10  C8  UNL     1     -10.193  -9.777   7.617  1.00  0.00     0.273 C 
BRANCH  10  11
HETATM   11  N2  UNL     1      -9.140  -9.133   6.845  1.00  0.00    -0.071 N 
ATOM     12  H22 UNL     1      -8.652  -9.817   6.266  1.00  0.00     0.277 HD
ATOM     13  H21 UNL     1      -9.541  -8.544   6.115  1.00  0.00     0.277 HD
BRANCH  11  14
HETATM   14  C9  UNL     1      -8.218  -8.397   7.626  1.00  0.00     0.237 C 
BRANCH  14  15
HETATM   15  C10 UNL     1      -6.757  -8.614   7.393  1.00  0.00     0.011 C 
HETATM   16  C11 UNL     1      -6.498  -8.349   5.901  1.00  0.00     0.006 C 
HETATM   17  C12 UNL     1      -6.643  -6.883   5.610  1.00  0.00     0.000 C 
HETATM   18  C13 UNL     1      -5.262  -6.268   5.937  1.00  0.00     0.000 C 
HETATM   19  C14 UNL     1      -4.817  -7.023   7.185  1.00  0.00     0.000 C 
HETATM   20  C15 UNL     1      -5.977  -7.444   8.064  1.00  0.00     0.006 C 
ENDBRANCH  14  15
ENDBRANCH  11  14
ENDBRANCH  10  11
ENDBRANCH   3  10
BRANCH   1  21
HETATM   21  C5  UNL     1     -14.735  -8.320   5.978  1.00  0.00     0.039 A 
HETATM   22  C4  UNL     1     -15.921  -7.949   6.625  1.00  0.00     0.030 A 
HETATM   23  C3  UNL     1     -17.082  -7.690   5.919  1.00  0.00     0.009 A 
HETATM   24  C2  UNL     1     -17.127  -7.780   4.541  1.00  0.00    -0.062 A 
HETATM   25  C1  UNL     1     -18.390  -7.489   3.798  1.00  0.00     0.048 C 
HETATM   26  C23 UNL     1     -15.959  -8.147   3.899  1.00  0.00     0.009 A 
HETATM   27  C22 UNL     1     -14.795  -8.411   4.594  1.00  0.00     0.030 A 
ENDBRANCH   1  21
TORSDOF 5
ENDMDL
