MODEL 2
REMARK VINA RESULT: -11.040824653      0.544      1.052
REMARK  5 active torsions:
REMARK  status: ('A' for Active; 'I' for Inactive)
REMARK    1  A    between atoms: C5_5  and  N1_6 
REMARK    2  A    between atoms: C7_8  and  C8_9 
REMARK    3  A    between atoms: C8_9  and  N2_10 
REMARK    4  A    between atoms: N2_10  and  C9_13 
REMARK    5  A    between atoms: C9_13  and  C10_14 
ROOT
HETATM    1  N1  UNL     1     -10.787  -8.053   7.733  1.00  0.00    -0.321 N 
HETATM    2  C6  UNL     1     -11.729  -8.787   7.120  1.00  0.00     0.107 A 
HETATM    3  C7  UNL     1     -12.983  -8.461   7.586  1.00  0.00    -0.004 A 
HETATM    4  C16 UNL     1     -12.779  -7.465   8.541  1.00  0.00     0.000 A 
HETATM    5  C17 UNL     1     -13.694  -6.739   9.290  1.00  0.00     0.014 A 
HETATM    6  C18 UNL     1     -13.255  -5.768  10.122  1.00  0.00     0.001 A 
HETATM    7  C19 UNL     1     -11.883  -5.510  10.215  1.00  0.00     0.002 A 
HETATM    8  C20 UNL     1     -10.958  -6.232   9.470  1.00  0.00     0.031 A 
HETATM    9  C21 UNL     1     -11.427  -7.226   8.617  1.00  0.00     0.050 A 
ENDROOT
BRANCH   3  10
HETATM   10  C8  UNL     1     -14.302  -9.044   7.322  1.00  0.00     0.273 C 
BRANCH  10  11
HETATM   11  N2  UNL     1     -14.556  -9.323   5.916  1.00  0.00    -0.071 N 
ATOM     12  H22 UNL     1     -13.768  -9.822   5.503  1.00  0.00     0.277 HD
ATOM     13  H21 UNL     1     -15.281 -10.033   5.818  1.00  0.00     0.277 HD
BRANCH  11  14
HETATM   14  C9  UNL     1     -14.876  -8.178   5.148  1.00  0.00     0.237 C 
BRANCH  14  15
HETATM   15  C10 UNL     1     -15.775  -7.146   5.751  1.00  0.00     0.011 C 
HETATM   16  C11 UNL     1     -14.980  -5.830   5.788  1.00  0.00     0.006 C 
HETATM   17  C12 UNL     1     -14.799  -5.304   4.392  1.00  0.00     0.000 C 
HETATM   18  C13 UNL     1     -16.084  -4.497   4.095  1.00  0.00     0.000 C 
HETATM   19  C14 UNL     1     -17.189  -5.327   4.738  1.00  0.00     0.000 C 
HETATM   20  C15 UNL     1     -16.895  -6.814   4.721  1.00  0.00     0.006 C 
ENDBRANCH  14  15
ENDBRANCH  11  14
ENDBRANCH  10  11
ENDBRANCH   3  10
BRANCH   1  21
HETATM   21  C5  UNL     1      -9.377  -7.997   7.618  1.00  0.00     0.039 A 
HETATM   22  C4  UNL     1      -8.545  -9.103   7.831  1.00  0.00     0.030 A 
HETATM   23  C3  UNL     1      -7.177  -9.032   7.634  1.00  0.00     0.009 A 
HETATM   24  C2  UNL     1      -6.567  -7.866   7.214  1.00  0.00    -0.062 A 
HETATM   25  C1  UNL     1      -5.088  -7.813   7.001  1.00  0.00     0.048 C 
HETATM   26  C23 UNL     1      -7.384  -6.771   7.004  1.00  0.00     0.009 A 
HETATM   27  C22 UNL     1      -8.749  -6.831   7.201  1.00  0.00     0.030 A 
ENDBRANCH   1  21
TORSDOF 5
ENDMDL
