MODEL 5
REMARK VINA RESULT: -9.547290890      1.266      7.286
REMARK  5 active torsions:
REMARK  status: ('A' for Active; 'I' for Inactive)
REMARK    1  A    between atoms: C5_5  and  N1_6 
REMARK    2  A    between atoms: C7_8  and  C8_9 
REMARK    3  A    between atoms: C8_9  and  N2_10 
REMARK    4  A    between atoms: N2_10  and  C9_13 
REMARK    5  A    between atoms: C9_13  and  C10_14 
ROOT
HETATM    1  N1  UNL     1     -13.915  -7.858   6.684  1.00  0.00    -0.321 N 
HETATM    2  C6  UNL     1     -13.244  -8.994   6.432  1.00  0.00     0.107 A 
HETATM    3  C7  UNL     1     -12.241  -9.185   7.356  1.00  0.00    -0.004 A 
HETATM    4  C16 UNL     1     -12.315  -8.092   8.219  1.00  0.00     0.000 A 
HETATM    5  C17 UNL     1     -11.579  -7.796   9.358  1.00  0.00     0.014 A 
HETATM    6  C18 UNL     1     -11.877  -6.690  10.077  1.00  0.00     0.001 A 
HETATM    7  C19 UNL     1     -12.924  -5.860   9.660  1.00  0.00     0.002 A 
HETATM    8  C20 UNL     1     -13.666  -6.146   8.520  1.00  0.00     0.031 A 
HETATM    9  C21 UNL     1     -13.348  -7.289   7.793  1.00  0.00     0.050 A 
ENDROOT
BRANCH   3  10
HETATM   10  C8  UNL     1     -11.181 -10.193   7.447  1.00  0.00     0.273 C 
BRANCH  10  11
HETATM   11  N2  UNL     1     -10.032  -9.923   6.595  1.00  0.00    -0.071 N 
ATOM     12  H22 UNL     1      -9.761 -10.763   6.084  1.00  0.00     0.277 HD
ATOM     13  H21 UNL     1     -10.299  -9.324   5.814  1.00  0.00     0.277 HD
BRANCH  11  14
HETATM   14  C9  UNL     1      -8.919  -9.379   7.279  1.00  0.00     0.237 C 
BRANCH  14  15
HETATM   15  C10 UNL     1      -8.293  -8.132   6.741  1.00  0.00     0.011 C 
HETATM   16  C11 UNL     1      -8.012  -7.218   7.945  1.00  0.00     0.006 C 
HETATM   17  C12 UNL     1      -6.896  -7.791   8.772  1.00  0.00     0.000 C 
HETATM   18  C13 UNL     1      -5.597  -7.280   8.106  1.00  0.00     0.000 C 
HETATM   19  C14 UNL     1      -5.904  -7.350   6.614  1.00  0.00     0.000 C 
HETATM   20  C15 UNL     1      -6.853  -8.477   6.260  1.00  0.00     0.006 C 
ENDBRANCH  14  15
ENDBRANCH  11  14
ENDBRANCH  10  11
ENDBRANCH   3  10
BRANCH   1  21
HETATM   21  C5  UNL     1     -15.010  -7.220   6.054  1.00  0.00     0.039 A 
HETATM   22  C4  UNL     1     -16.345  -7.559   6.307  1.00  0.00     0.030 A 
HETATM   23  C3  UNL     1     -17.393  -6.863   5.732  1.00  0.00     0.009 A 
HETATM   24  C2  UNL     1     -17.172  -5.795   4.883  1.00  0.00    -0.062 A 
HETATM   25  C1  UNL     1     -18.318  -5.052   4.277  1.00  0.00     0.048 C 
HETATM   26  C23 UNL     1     -15.855  -5.459   4.629  1.00  0.00     0.009 A 
HETATM   27  C22 UNL     1     -14.803  -6.150   5.195  1.00  0.00     0.030 A 
ENDBRANCH   1  21
TORSDOF 5
ENDMDL
