MODEL 3
REMARK VINA RESULT: -10.309697833      1.178      7.161
REMARK  5 active torsions:
REMARK  status: ('A' for Active; 'I' for Inactive)
REMARK    1  A    between atoms: C5_5  and  N1_6 
REMARK    2  A    between atoms: C7_8  and  C8_9 
REMARK    3  A    between atoms: C8_9  and  N2_10 
REMARK    4  A    between atoms: N2_10  and  C9_13 
REMARK    5  A    between atoms: C9_13  and  C10_14 
ROOT
HETATM    1  N1  UNL     1     -13.970  -7.655   6.750  1.00  0.00    -0.321 N 
HETATM    2  C6  UNL     1     -13.306  -8.775   6.424  1.00  0.00     0.107 A 
HETATM    3  C7  UNL     1     -12.292  -9.022   7.322  1.00  0.00    -0.004 A 
HETATM    4  C16 UNL     1     -12.352  -7.980   8.248  1.00  0.00     0.000 A 
HETATM    5  C17 UNL     1     -11.601  -7.752   9.393  1.00  0.00     0.014 A 
HETATM    6  C18 UNL     1     -11.887  -6.690  10.178  1.00  0.00     0.001 A 
HETATM    7  C19 UNL     1     -12.936  -5.834   9.823  1.00  0.00     0.002 A 
HETATM    8  C20 UNL     1     -13.693  -6.052   8.678  1.00  0.00     0.031 A 
HETATM    9  C21 UNL     1     -13.388  -7.152   7.883  1.00  0.00     0.050 A 
ENDROOT
BRANCH   3  10
HETATM   10  C8  UNL     1     -11.233 -10.035   7.342  1.00  0.00     0.273 C 
BRANCH  10  11
HETATM   11  N2  UNL     1      -9.987  -9.603   6.726  1.00  0.00    -0.071 N 
ATOM     12  H22 UNL     1      -9.869 -10.042   5.813  1.00  0.00     0.277 HD
ATOM     13  H21 UNL     1     -10.050  -8.626   6.440  1.00  0.00     0.277 HD
BRANCH  11  14
HETATM   14  C9  UNL     1      -8.841  -9.812   7.529  1.00  0.00     0.237 C 
BRANCH  14  15
HETATM   15  C10 UNL     1      -8.048  -8.620   7.961  1.00  0.00     0.011 C 
HETATM   16  C11 UNL     1      -6.653  -8.759   7.328  1.00  0.00     0.006 C 
HETATM   17  C12 UNL     1      -6.743  -8.550   5.843  1.00  0.00     0.000 C 
HETATM   18  C13 UNL     1      -6.657  -7.018   5.646  1.00  0.00     0.000 C 
HETATM   19  C14 UNL     1      -7.471  -6.458   6.808  1.00  0.00     0.000 C 
HETATM   20  C15 UNL     1      -8.609  -7.368   7.222  1.00  0.00     0.006 C 
ENDBRANCH  14  15
ENDBRANCH  11  14
ENDBRANCH  10  11
ENDBRANCH   3  10
BRANCH   1  21
HETATM   21  C5  UNL     1     -15.072  -6.979   6.171  1.00  0.00     0.039 A 
HETATM   22  C4  UNL     1     -14.934  -5.865   5.334  1.00  0.00     0.030 A 
HETATM   23  C3  UNL     1     -16.027  -5.277   4.723  1.00  0.00     0.009 A 
HETATM   24  C2  UNL     1     -17.307  -5.764   4.906  1.00  0.00    -0.062 A 
HETATM   25  C1  UNL     1     -18.473  -5.118   4.231  1.00  0.00     0.048 C 
HETATM   26  C23 UNL     1     -17.447  -6.863   5.733  1.00  0.00     0.009 A 
HETATM   27  C22 UNL     1     -16.363  -7.455   6.350  1.00  0.00     0.030 A 
ENDBRANCH   1  21
TORSDOF 5
ENDMDL
