MODEL 2
REMARK VINA RESULT: -10.448110303      0.031      1.033
REMARK  3 active torsions:
REMARK  status: ('A' for Active; 'I' for Inactive)
REMARK    1  A    between atoms: O1_1  and  C1_3 
REMARK    2  A    between atoms: C4_6  and  C5_7 
REMARK    3  A    between atoms: C10_13  and  O3_14 
ROOT
HETATM    1  C5  UNL     1      11.714  52.014  58.919  1.00  0.00     0.166 C 
HETATM    2  O2  UNL     1      12.114  50.969  58.052  1.00  0.00    -0.340 OA
HETATM    3  C6  UNL     1      13.441  50.706  57.775  1.00  0.00     0.079 A 
HETATM    4  C7  UNL     1      13.837  49.920  56.705  1.00  0.00     0.037 A 
HETATM    5  C8  UNL     1      15.164  49.663  56.440  1.00  0.00     0.005 A 
HETATM    6  C9  UNL     1      16.095  50.226  57.289  1.00  0.00     0.037 A 
HETATM    7  C10 UNL     1      15.709  51.014  58.362  1.00  0.00     0.075 A 
HETATM    8  C11 UNL     1      14.384  51.269  58.627  1.00  0.00     0.013 A 
HETATM    9  C12 UNL     1      14.044  52.107  59.774  1.00  0.00     0.031 C 
HETATM   10  C13 UNL     1      14.730  51.492  61.001  1.00  0.00     0.010 C 
HETATM   11  C14 UNL     1      13.642  51.426  62.055  1.00  0.00     0.001 C 
HETATM   12  C15 UNL     1      12.423  51.140  61.165  1.00  0.00     0.008 C 
HETATM   13  C16 UNL     1      12.600  52.176  60.108  1.00  0.00     0.028 C 
ENDROOT
BRANCH   1  14
HETATM   14  C4  UNL     1      10.297  51.865  59.278  1.00  0.00    -0.028 A 
HETATM   15  C3  UNL     1       9.553  52.896  59.820  1.00  0.00     0.012 A 
HETATM   16  C2  UNL     1       8.221  52.768  60.162  1.00  0.00     0.037 A 
HETATM   17  C1  UNL     1       7.592  51.573  59.964  1.00  0.00     0.065 A 
HETATM   18  C18 UNL     1       8.296  50.499  59.420  1.00  0.00     0.037 A 
HETATM   19  C17 UNL     1       9.625  50.669  59.091  1.00  0.00     0.012 A 
BRANCH  17  20
HETATM   20  O1  UNL     1       6.242  51.446  60.311  1.00  0.00    -0.361 OA
ATOM     21  H1  UNL     1       5.901  50.590  60.542  1.00  0.00     0.217 HD
ENDBRANCH  17  20
ENDBRANCH   1  14
BRANCH   7  22
HETATM   22  O3  UNL     1      16.704  51.540  59.165  1.00  0.00    -0.360 OA
ATOM     23  H3  UNL     1      17.105  50.966  59.807  1.00  0.00     0.217 HD
ENDBRANCH   7  22
TORSDOF 3
ENDMDL
