MODEL 1
REMARK VINA RESULT: -10.460096317      0.000      0.000
REMARK  3 active torsions:
REMARK  status: ('A' for Active; 'I' for Inactive)
REMARK    1  A    between atoms: O1_1  and  C1_3 
REMARK    2  A    between atoms: C4_6  and  C5_7 
REMARK    3  A    between atoms: C10_13  and  O3_14 
ROOT
HETATM    1  C5  UNL     1      11.726  52.019  58.915  1.00  0.00     0.166 C 
HETATM    2  O2  UNL     1      12.120  50.974  58.045  1.00  0.00    -0.340 OA
HETATM    3  C6  UNL     1      13.445  50.707  57.764  1.00  0.00     0.079 A 
HETATM    4  C7  UNL     1      13.836  49.921  56.692  1.00  0.00     0.037 A 
HETATM    5  C8  UNL     1      15.162  49.661  56.422  1.00  0.00     0.005 A 
HETATM    6  C9  UNL     1      16.096  50.219  57.270  1.00  0.00     0.037 A 
HETATM    7  C10 UNL     1      15.716  51.007  58.345  1.00  0.00     0.075 A 
HETATM    8  C11 UNL     1      14.393  51.265  58.614  1.00  0.00     0.013 A 
HETATM    9  C12 UNL     1      14.058  52.102  59.764  1.00  0.00     0.031 C 
HETATM   10  C13 UNL     1      14.746  51.483  60.989  1.00  0.00     0.010 C 
HETATM   11  C14 UNL     1      13.660  51.419  62.045  1.00  0.00     0.001 C 
HETATM   12  C15 UNL     1      12.438  51.138  61.157  1.00  0.00     0.008 C 
HETATM   13  C16 UNL     1      12.616  52.176  60.103  1.00  0.00     0.028 C 
ENDROOT
BRANCH   1  14
HETATM   14  C4  UNL     1      10.309  51.874  59.278  1.00  0.00    -0.028 A 
HETATM   15  C3  UNL     1       9.603  50.704  59.077  1.00  0.00     0.012 A 
HETATM   16  C2  UNL     1       8.272  50.556  59.413  1.00  0.00     0.037 A 
HETATM   17  C1  UNL     1       7.604  51.606  59.973  1.00  0.00     0.065 A 
HETATM   18  C18 UNL     1       8.268  52.811  60.199  1.00  0.00     0.037 A 
HETATM   19  C17 UNL     1       9.599  52.917  59.849  1.00  0.00     0.012 A 
BRANCH  17  20
HETATM   20  O1  UNL     1       6.255  51.454  60.314  1.00  0.00    -0.361 OA
ATOM     21  H1  UNL     1       6.012  50.802  60.962  1.00  0.00     0.217 HD
ENDBRANCH  17  20
ENDBRANCH   1  14
BRANCH   7  22
HETATM   22  O3  UNL     1      16.714  51.528  59.147  1.00  0.00    -0.360 OA
ATOM     23  H3  UNL     1      16.506  51.702  60.058  1.00  0.00     0.217 HD
ENDBRANCH   7  22
TORSDOF 3
ENDMDL
