MODEL 8
REMARK VINA RESULT: -7.069434802      3.428      5.822
REMARK  3 active torsions:
REMARK  status: ('A' for Active; 'I' for Inactive)
REMARK    1  A    between atoms: O1_1  and  C1_3 
REMARK    2  A    between atoms: C4_6  and  C5_7 
REMARK    3  A    between atoms: C10_13  and  O3_14 
ROOT
HETATM    1  C5  UNL     1      13.181  52.789  62.485  1.00  0.00     0.166 C 
HETATM    2  O2  UNL     1      11.857  52.310  62.351  1.00  0.00    -0.340 OA
HETATM    3  C6  UNL     1      11.467  51.500  61.302  1.00  0.00     0.079 A 
HETATM    4  C7  UNL     1      10.137  51.290  60.977  1.00  0.00     0.037 A 
HETATM    5  C8  UNL     1       9.761  50.478  59.929  1.00  0.00     0.005 A 
HETATM    6  C9  UNL     1      10.771  49.876  59.207  1.00  0.00     0.037 A 
HETATM    7  C10 UNL     1      12.104  50.080  59.523  1.00  0.00     0.075 A 
HETATM    8  C11 UNL     1      12.479  50.889  60.570  1.00  0.00     0.013 A 
HETATM    9  C12 UNL     1      13.902  51.063  60.852  1.00  0.00     0.031 C 
HETATM   10  C13 UNL     1      14.504  49.660  61.014  1.00  0.00     0.010 C 
HETATM   11  C14 UNL     1      15.311  49.735  62.295  1.00  0.00     0.001 C 
HETATM   12  C15 UNL     1      14.438  50.704  63.107  1.00  0.00     0.008 C 
HETATM   13  C16 UNL     1      14.221  51.788  62.107  1.00  0.00     0.028 C 
ENDROOT
BRANCH   1  14
HETATM   14  C4  UNL     1      13.388  53.346  63.830  1.00  0.00    -0.028 A 
HETATM   15  C3  UNL     1      12.471  53.190  64.852  1.00  0.00     0.012 A 
HETATM   16  C2  UNL     1      12.655  53.709  66.118  1.00  0.00     0.037 A 
HETATM   17  C1  UNL     1      13.791  54.415  66.393  1.00  0.00     0.065 A 
HETATM   18  C18 UNL     1      14.749  54.602  65.398  1.00  0.00     0.037 A 
HETATM   19  C17 UNL     1      14.528  54.067  64.146  1.00  0.00     0.012 A 
BRANCH  17  20
HETATM   20  O1  UNL     1      13.974  54.939  67.677  1.00  0.00    -0.361 OA
ATOM     21  H1  UNL     1      14.126  54.345  68.403  1.00  0.00     0.217 HD
ENDBRANCH  17  20
ENDBRANCH   1  14
BRANCH   7  22
HETATM   22  O3  UNL     1      13.056  49.440  58.751  1.00  0.00    -0.360 OA
ATOM     23  H3  UNL     1      13.792  49.038  59.197  1.00  0.00     0.217 HD
ENDBRANCH   7  22
TORSDOF 3
ENDMDL
