MODEL 9
REMARK VINA RESULT: -6.902269885      1.664      6.367
REMARK  3 active torsions:
REMARK  status: ('A' for Active; 'I' for Inactive)
REMARK    1  A    between atoms: O1_1  and  C1_3 
REMARK    2  A    between atoms: C4_6  and  C5_7 
REMARK    3  A    between atoms: C10_13  and  O3_14 
ROOT
HETATM    1  C5  UNL     1      12.248  51.149  58.882  1.00  0.00     0.166 C 
HETATM    2  O2  UNL     1      11.760  52.394  59.344  1.00  0.00    -0.340 OA
HETATM    3  C6  UNL     1      10.426  52.744  59.255  1.00  0.00     0.079 A 
HETATM    4  C7  UNL     1       9.988  54.051  59.397  1.00  0.00     0.037 A 
HETATM    5  C8  UNL     1       8.655  54.387  59.307  1.00  0.00     0.005 A 
HETATM    6  C9  UNL     1       7.764  53.362  59.066  1.00  0.00     0.037 A 
HETATM    7  C10 UNL     1       8.192  52.052  58.922  1.00  0.00     0.075 A 
HETATM    8  C11 UNL     1       9.522  51.717  59.013  1.00  0.00     0.013 A 
HETATM    9  C12 UNL     1       9.909  50.317  58.852  1.00  0.00     0.031 C 
HETATM   10  C13 UNL     1       9.078  49.502  59.853  1.00  0.00     0.010 C 
HETATM   11  C14 UNL     1      10.087  48.612  60.552  1.00  0.00     0.001 C 
HETATM   12  C15 UNL     1      11.303  49.550  60.573  1.00  0.00     0.008 C 
HETATM   13  C16 UNL     1      11.327  50.007  59.155  1.00  0.00     0.028 C 
ENDROOT
BRANCH   1  14
HETATM   14  C4  UNL     1      13.610  50.917  59.384  1.00  0.00    -0.028 A 
HETATM   15  C3  UNL     1      14.371  49.829  59.002  1.00  0.00     0.012 A 
HETATM   16  C2  UNL     1      15.650  49.600  59.466  1.00  0.00     0.037 A 
HETATM   17  C1  UNL     1      16.209  50.480  60.348  1.00  0.00     0.065 A 
HETATM   18  C18 UNL     1      15.485  51.596  60.767  1.00  0.00     0.037 A 
HETATM   19  C17 UNL     1      14.210  51.788  60.278  1.00  0.00     0.012 A 
BRANCH  17  20
HETATM   20  O1  UNL     1      17.506  50.246  60.817  1.00  0.00    -0.361 OA
ATOM     21  H1  UNL     1      18.129  50.964  60.836  1.00  0.00     0.217 HD
ENDBRANCH  17  20
ENDBRANCH   1  14
BRANCH   7  22
HETATM   22  O3  UNL     1       7.235  51.083  58.683  1.00  0.00    -0.360 OA
ATOM     23  H3  UNL     1       6.794  51.094  57.841  1.00  0.00     0.217 HD
ENDBRANCH   7  22
TORSDOF 3
ENDMDL
