MODEL 7
REMARK VINA RESULT: -7.087883955      3.424      5.861
REMARK  3 active torsions:
REMARK  status: ('A' for Active; 'I' for Inactive)
REMARK    1  A    between atoms: O1_1  and  C1_3 
REMARK    2  A    between atoms: C4_6  and  C5_7 
REMARK    3  A    between atoms: C10_13  and  O3_14 
ROOT
HETATM    1  C5  UNL     1      13.212  52.806  62.476  1.00  0.00     0.166 C 
HETATM    2  O2  UNL     1      11.881  52.342  62.347  1.00  0.00    -0.340 OA
HETATM    3  C6  UNL     1      11.478  51.531  61.304  1.00  0.00     0.079 A 
HETATM    4  C7  UNL     1      10.145  51.335  60.984  1.00  0.00     0.037 A 
HETATM    5  C8  UNL     1       9.755  50.522  59.942  1.00  0.00     0.005 A 
HETATM    6  C9  UNL     1      10.756  49.904  59.221  1.00  0.00     0.037 A 
HETATM    7  C10 UNL     1      12.093  50.094  59.531  1.00  0.00     0.075 A 
HETATM    8  C11 UNL     1      12.480  50.904  60.573  1.00  0.00     0.013 A 
HETATM    9  C12 UNL     1      13.906  51.062  60.850  1.00  0.00     0.031 C 
HETATM   10  C13 UNL     1      14.492  49.653  61.017  1.00  0.00     0.010 C 
HETATM   11  C14 UNL     1      15.304  49.725  62.295  1.00  0.00     0.001 C 
HETATM   12  C15 UNL     1      14.445  50.709  63.104  1.00  0.00     0.008 C 
HETATM   13  C16 UNL     1      14.238  51.790  62.099  1.00  0.00     0.028 C 
ENDROOT
BRANCH   1  14
HETATM   14  C4  UNL     1      13.430  53.367  63.816  1.00  0.00    -0.028 A 
HETATM   15  C3  UNL     1      14.562  54.086  64.149  1.00  0.00     0.012 A 
HETATM   16  C2  UNL     1      14.778  54.619  65.404  1.00  0.00     0.037 A 
HETATM   17  C1  UNL     1      13.839  54.436  66.378  1.00  0.00     0.065 A 
HETATM   18  C18 UNL     1      12.677  53.718  66.097  1.00  0.00     0.037 A 
HETATM   19  C17 UNL     1      12.499  53.203  64.829  1.00  0.00     0.012 A 
BRANCH  17  20
HETATM   20  O1  UNL     1      14.060  54.977  67.649  1.00  0.00    -0.361 OA
ATOM     21  H1  UNL     1      14.142  54.392  68.394  1.00  0.00     0.217 HD
ENDBRANCH  17  20
ENDBRANCH   1  14
BRANCH   7  22
HETATM   22  O3  UNL     1      13.034  49.438  58.760  1.00  0.00    -0.360 OA
ATOM     23  H3  UNL     1      13.936  49.447  59.058  1.00  0.00     0.217 HD
ENDBRANCH   7  22
TORSDOF 3
ENDMDL
