MODEL 1
REMARK VINA RESULT: -7.705397544      0.000      0.000
REMARK  4 active torsions:
REMARK  status: ('A' for Active; 'I' for Inactive)
REMARK    1  A    between atoms: N1_1  and  S1_4 
REMARK    2  A    between atoms: S1_4  and  C1_7 
REMARK    3  A    between atoms: C5_13  and  S2_14 
REMARK    4  A    between atoms: S2_14  and  N2_15 
ROOT
HETATM    1  C1  UNL     1      -4.611   2.451  13.406  1.00  0.00     0.082 A 
HETATM    2  C2  UNL     1      -4.779   3.805  13.585  1.00  0.00     0.050 A 
HETATM    3  C3  UNL     1      -5.318   4.226  14.783  1.00  0.00     0.058 A 
HETATM    4 CL1  UNL     1      -5.566   5.946  15.090  1.00  0.00    -0.082 Cl
HETATM    5  C4  UNL     1      -5.684   3.338  15.790  1.00  0.00     0.079 A 
HETATM    6 CL2  UNL     1      -6.356   3.918  17.286  1.00  0.00    -0.081 Cl
HETATM    7  C5  UNL     1      -5.516   1.986  15.615  1.00  0.00     0.104 A 
HETATM    8  C6  UNL     1      -4.976   1.581  14.409  1.00  0.00     0.052 A 
ENDROOT
BRANCH   1   9
HETATM    9  S1  UNL     1      -3.929   1.868  11.898  1.00  0.00     0.256 S 
HETATM   10  O1  UNL     1      -4.537   2.737  10.808  1.00  0.00    -0.201 OA
HETATM   11  O2  UNL     1      -2.428   1.976  11.892  1.00  0.00    -0.201 OA
BRANCH   9  12
HETATM   12  N1  UNL     1      -4.469   0.264  11.612  1.00  0.00    -0.324 N 
ATOM     13  H12 UNL     1      -5.220  -0.211  12.112  1.00  0.00     0.169 HD
ATOM     14  H11 UNL     1      -3.897  -0.108  10.854  1.00  0.00     0.169 HD
ENDBRANCH   9  12
ENDBRANCH   1   9
BRANCH   7  15
HETATM   15  S2  UNL     1      -5.941   0.791  16.800  1.00  0.00     0.258 S 
HETATM   16  O3  UNL     1      -5.306   1.096  18.131  1.00  0.00    -0.201 OA
HETATM   17  O4  UNL     1      -5.506  -0.567  16.340  1.00  0.00    -0.201 OA
BRANCH  15  18
HETATM   18  N2  UNL     1      -7.649   0.858  17.043  1.00  0.00    -0.324 N 
ATOM     19  H22 UNL     1      -8.115   0.806  17.949  1.00  0.00     0.169 HD
ATOM     20  H21 UNL     1      -8.096   0.957  16.132  1.00  0.00     0.169 HD
ENDBRANCH  15  18
ENDBRANCH   7  15
TORSDOF 4
ENDMDL
