MODEL 7
REMARK VINA RESULT: -7.050603463      1.514      1.862
REMARK  4 active torsions:
REMARK  status: ('A' for Active; 'I' for Inactive)
REMARK    1  A    between atoms: N1_1  and  S1_4 
REMARK    2  A    between atoms: S1_4  and  C1_7 
REMARK    3  A    between atoms: C5_13  and  S2_14 
REMARK    4  A    between atoms: S2_14  and  N2_15 
ROOT
HETATM    1  C1  UNL     1      -4.295   2.995  13.485  1.00  0.00     0.082 A 
HETATM    2  C2  UNL     1      -4.727   4.274  13.750  1.00  0.00     0.050 A 
HETATM    3  C3  UNL     1      -5.442   4.475  14.912  1.00  0.00     0.058 A 
HETATM    4 CL1  UNL     1      -6.032   6.087  15.323  1.00  0.00    -0.082 Cl
HETATM    5  C4  UNL     1      -5.728   3.444  15.802  1.00  0.00     0.079 A 
HETATM    6 CL2  UNL     1      -6.630   3.750  17.257  1.00  0.00    -0.081 Cl
HETATM    7  C5  UNL     1      -5.297   2.167  15.541  1.00  0.00     0.104 A 
HETATM    8  C6  UNL     1      -4.583   1.981  14.372  1.00  0.00     0.052 A 
ENDROOT
BRANCH   1   9
HETATM    9  S1  UNL     1      -3.382   2.688  12.018  1.00  0.00     0.256 S 
HETATM   10  O1  UNL     1      -3.079   1.197  12.025  1.00  0.00    -0.201 OA
HETATM   11  O2  UNL     1      -4.165   3.069  10.790  1.00  0.00    -0.201 OA
BRANCH   9  12
HETATM   12  N1  UNL     1      -1.872   3.500  12.107  1.00  0.00    -0.324 N 
ATOM     13  H12 UNL     1      -1.283   3.754  11.315  1.00  0.00     0.169 HD
ATOM     14  H11 UNL     1      -1.689   3.674  13.095  1.00  0.00     0.169 HD
ENDBRANCH   9  12
ENDBRANCH   1   9
BRANCH   7  15
HETATM   15  S2  UNL     1      -5.600   0.807  16.577  1.00  0.00     0.258 S 
HETATM   16  O3  UNL     1      -7.041   0.377  16.501  1.00  0.00    -0.201 OA
HETATM   17  O4  UNL     1      -5.259   1.155  17.995  1.00  0.00    -0.201 OA
BRANCH  15  18
HETATM   18  N2  UNL     1      -4.658  -0.523  16.009  1.00  0.00    -0.324 N 
ATOM     19  H22 UNL     1      -3.644  -0.518  15.895  1.00  0.00     0.169 HD
ATOM     20  H21 UNL     1      -5.289  -1.299  15.812  1.00  0.00     0.169 HD
ENDBRANCH  15  18
ENDBRANCH   7  15
TORSDOF 4
ENDMDL
