MODEL 5
REMARK VINA RESULT: -7.273407617      0.844      4.809
REMARK  4 active torsions:
REMARK  status: ('A' for Active; 'I' for Inactive)
REMARK    1  A    between atoms: N1_1  and  S1_4 
REMARK    2  A    between atoms: S1_4  and  C1_7 
REMARK    3  A    between atoms: C5_13  and  S2_14 
REMARK    4  A    between atoms: S2_14  and  N2_15 
ROOT
HETATM    1  C1  UNL     1      -5.457   2.097  15.686  1.00  0.00     0.082 A 
HETATM    2  C2  UNL     1      -5.515   3.448  15.942  1.00  0.00     0.050 A 
HETATM    3  C3  UNL     1      -5.082   4.302  14.949  1.00  0.00     0.058 A 
HETATM    4 CL1  UNL     1      -5.124   6.048  15.200  1.00  0.00    -0.082 Cl
HETATM    5  C4  UNL     1      -4.601   3.843  13.727  1.00  0.00     0.079 A 
HETATM    6 CL2  UNL     1      -4.070   4.961  12.505  1.00  0.00    -0.081 Cl
HETATM    7  C5  UNL     1      -4.543   2.496  13.468  1.00  0.00     0.104 A 
HETATM    8  C6  UNL     1      -4.980   1.653  14.473  1.00  0.00     0.052 A 
ENDROOT
BRANCH   1   9
HETATM    9  S1  UNL     1      -5.997   0.971  16.919  1.00  0.00     0.256 S 
HETATM   10  O1  UNL     1      -5.560  -0.405  16.439  1.00  0.00    -0.201 OA
HETATM   11  O2  UNL     1      -5.391   1.287  18.260  1.00  0.00    -0.201 OA
BRANCH   9  12
HETATM   12  N1  UNL     1      -7.713   0.957  16.965  1.00  0.00    -0.324 N 
ATOM     13  H12 UNL     1      -8.317   1.778  16.949  1.00  0.00     0.169 HD
ATOM     14  H11 UNL     1      -7.998  -0.021  17.011  1.00  0.00     0.169 HD
ENDBRANCH   9  12
ENDBRANCH   1   9
BRANCH   7  15
HETATM   15  S2  UNL     1      -3.958   1.814  11.982  1.00  0.00     0.258 S 
HETATM   16  O3  UNL     1      -2.472   2.012  11.842  1.00  0.00    -0.201 OA
HETATM   17  O4  UNL     1      -4.656   2.448  10.816  1.00  0.00    -0.201 OA
BRANCH  15  18
HETATM   18  N2  UNL     1      -4.227   0.110  12.029  1.00  0.00    -0.324 N 
ATOM     19  H22 UNL     1      -3.499  -0.601  11.959  1.00  0.00     0.169 HD
ATOM     20  H21 UNL     1      -5.228  -0.051  12.137  1.00  0.00     0.169 HD
ENDBRANCH  15  18
ENDBRANCH   7  15
TORSDOF 4
ENDMDL
