MODEL 2
REMARK VINA RESULT: -7.645434671      1.007      1.266
REMARK  4 active torsions:
REMARK  status: ('A' for Active; 'I' for Inactive)
REMARK    1  A    between atoms: N1_1  and  S1_4 
REMARK    2  A    between atoms: S1_4  and  C1_7 
REMARK    3  A    between atoms: C5_13  and  S2_14 
REMARK    4  A    between atoms: S2_14  and  N2_15 
ROOT
HETATM    1  C1  UNL     1      -4.486   2.724  13.511  1.00  0.00     0.082 A 
HETATM    2  C2  UNL     1      -4.709   4.054  13.785  1.00  0.00     0.050 A 
HETATM    3  C3  UNL     1      -5.303   4.364  14.990  1.00  0.00     0.058 A 
HETATM    4 CL1  UNL     1      -5.623   6.046  15.416  1.00  0.00    -0.082 Cl
HETATM    5  C4  UNL     1      -5.673   3.390  15.913  1.00  0.00     0.079 A 
HETATM    6 CL2  UNL     1      -6.416   3.831  17.421  1.00  0.00    -0.081 Cl
HETATM    7  C5  UNL     1      -5.451   2.062  15.643  1.00  0.00     0.104 A 
HETATM    8  C6  UNL     1      -4.855   1.768  14.431  1.00  0.00     0.052 A 
ENDROOT
BRANCH   1   9
HETATM    9  S1  UNL     1      -3.732   2.280  11.990  1.00  0.00     0.256 S 
HETATM   10  O1  UNL     1      -3.635   0.762  12.006  1.00  0.00    -0.201 OA
HETATM   11  O2  UNL     1      -4.543   2.752  10.813  1.00  0.00    -0.201 OA
BRANCH   9  12
HETATM   12  N1  UNL     1      -2.123   2.878  11.956  1.00  0.00    -0.324 N 
ATOM     13  H12 UNL     1      -1.280   2.334  12.139  1.00  0.00     0.169 HD
ATOM     14  H11 UNL     1      -2.182   3.868  11.720  1.00  0.00     0.169 HD
ENDBRANCH   9  12
ENDBRANCH   1   9
BRANCH   7  15
HETATM   15  S2  UNL     1      -5.874   0.766  16.718  1.00  0.00     0.258 S 
HETATM   16  O3  UNL     1      -5.249   0.960  18.074  1.00  0.00    -0.201 OA
HETATM   17  O4  UNL     1      -5.426  -0.545  16.146  1.00  0.00    -0.201 OA
BRANCH  15  18
HETATM   18  N2  UNL     1      -7.584   0.800  16.954  1.00  0.00    -0.324 N 
ATOM     19  H22 UNL     1      -8.134   1.638  17.143  1.00  0.00     0.169 HD
ATOM     20  H21 UNL     1      -7.935  -0.154  16.872  1.00  0.00     0.169 HD
ENDBRANCH  15  18
ENDBRANCH   7  15
TORSDOF 4
ENDMDL
