MODEL 4
REMARK VINA RESULT: -7.356243115      1.215      4.826
REMARK  4 active torsions:
REMARK  status: ('A' for Active; 'I' for Inactive)
REMARK    1  A    between atoms: N1_1  and  S1_4 
REMARK    2  A    between atoms: S1_4  and  C1_7 
REMARK    3  A    between atoms: C5_13  and  S2_14 
REMARK    4  A    between atoms: S2_14  and  N2_15 
ROOT
HETATM    1  C1  UNL     1      -5.615   2.047  15.757  1.00  0.00     0.082 A 
HETATM    2  C2  UNL     1      -5.667   3.400  16.003  1.00  0.00     0.050 A 
HETATM    3  C3  UNL     1      -5.211   4.245  15.014  1.00  0.00     0.058 A 
HETATM    4 CL1  UNL     1      -5.243   5.993  15.253  1.00  0.00    -0.082 Cl
HETATM    5  C4  UNL     1      -4.714   3.776  13.801  1.00  0.00     0.079 A 
HETATM    6 CL2  UNL     1      -4.155   4.882  12.582  1.00  0.00    -0.081 Cl
HETATM    7  C5  UNL     1      -4.663   2.426  13.551  1.00  0.00     0.104 A 
HETATM    8  C6  UNL     1      -5.122   1.593  14.554  1.00  0.00     0.052 A 
ENDROOT
BRANCH   1   9
HETATM    9  S1  UNL     1      -6.184   0.932  16.986  1.00  0.00     0.256 S 
HETATM   10  O1  UNL     1      -7.690   0.840  16.794  1.00  0.00    -0.201 OA
HETATM   11  O2  UNL     1      -5.543  -0.422  16.842  1.00  0.00    -0.201 OA
BRANCH   9  12
HETATM   12  N1  UNL     1      -5.924   1.616  18.539  1.00  0.00    -0.324 N 
ATOM     13  H12 UNL     1      -5.505   2.526  18.728  1.00  0.00     0.169 HD
ATOM     14  H11 UNL     1      -6.266   0.938  19.220  1.00  0.00     0.169 HD
ENDBRANCH   9  12
ENDBRANCH   1   9
BRANCH   7  15
HETATM   15  S2  UNL     1      -4.060   1.732  12.078  1.00  0.00     0.258 S 
HETATM   16  O3  UNL     1      -2.576   1.948  11.944  1.00  0.00    -0.201 OA
HETATM   17  O4  UNL     1      -4.760   2.339  10.900  1.00  0.00    -0.201 OA
BRANCH  15  18
HETATM   18  N2  UNL     1      -4.305   0.025  12.148  1.00  0.00    -0.324 N 
ATOM     19  H22 UNL     1      -4.541  -0.500  12.990  1.00  0.00     0.169 HD
ATOM     20  H21 UNL     1      -4.174  -0.354  11.210  1.00  0.00     0.169 HD
ENDBRANCH  15  18
ENDBRANCH   7  15
TORSDOF 4
ENDMDL
