MODEL 3
REMARK VINA RESULT: -7.580257203      1.659      4.837
REMARK  4 active torsions:
REMARK  status: ('A' for Active; 'I' for Inactive)
REMARK    1  A    between atoms: N1_1  and  S1_4 
REMARK    2  A    between atoms: S1_4  and  C1_7 
REMARK    3  A    between atoms: C5_13  and  S2_14 
REMARK    4  A    between atoms: S2_14  and  N2_15 
ROOT
HETATM    1  C1  UNL     1      -5.536   2.097  15.833  1.00  0.00     0.082 A 
HETATM    2  C2  UNL     1      -5.525   3.473  15.801  1.00  0.00     0.050 A 
HETATM    3  C3  UNL     1      -5.072   4.079  14.649  1.00  0.00     0.058 A 
HETATM    4 CL1  UNL     1      -5.026   5.839  14.530  1.00  0.00    -0.082 Cl
HETATM    5  C4  UNL     1      -4.637   3.353  13.544  1.00  0.00     0.079 A 
HETATM    6 CL2  UNL     1      -4.078   4.164  12.111  1.00  0.00    -0.081 Cl
HETATM    7  C5  UNL     1      -4.648   1.980  13.572  1.00  0.00     0.104 A 
HETATM    8  C6  UNL     1      -5.104   1.388  14.734  1.00  0.00     0.052 A 
ENDROOT
BRANCH   1   9
HETATM    9  S1  UNL     1      -6.104   1.280  17.277  1.00  0.00     0.256 S 
HETATM   10  O1  UNL     1      -7.511   0.801  16.953  1.00  0.00    -0.201 OA
HETATM   11  O2  UNL     1      -5.216   0.120  17.641  1.00  0.00    -0.201 OA
BRANCH   9  12
HETATM   12  N1  UNL     1      -6.250   2.417  18.555  1.00  0.00    -0.324 N 
ATOM     13  H12 UNL     1      -5.652   3.230  18.701  1.00  0.00     0.169 HD
ATOM     14  H11 UNL     1      -7.040   2.118  19.126  1.00  0.00     0.169 HD
ENDBRANCH   9  12
ENDBRANCH   1   9
BRANCH   7  15
HETATM   15  S2  UNL     1      -4.125   0.977  12.254  1.00  0.00     0.258 S 
HETATM   16  O3  UNL     1      -4.312  -0.482  12.576  1.00  0.00    -0.201 OA
HETATM   17  O4  UNL     1      -2.681   1.238  11.950  1.00  0.00    -0.201 OA
BRANCH  15  18
HETATM   18  N2  UNL     1      -5.129   1.312  10.891  1.00  0.00    -0.324 N 
ATOM     19  H22 UNL     1      -6.132   1.135  10.843  1.00  0.00     0.169 HD
ATOM     20  H21 UNL     1      -4.545   1.714  10.157  1.00  0.00     0.169 HD
ENDBRANCH  15  18
ENDBRANCH   7  15
TORSDOF 4
ENDMDL
