MODEL 8
REMARK VINA RESULT: -7.009936998      1.587      1.826
REMARK  4 active torsions:
REMARK  status: ('A' for Active; 'I' for Inactive)
REMARK    1  A    between atoms: N1_1  and  S1_4 
REMARK    2  A    between atoms: S1_4  and  C1_7 
REMARK    3  A    between atoms: C5_13  and  S2_14 
REMARK    4  A    between atoms: S2_14  and  N2_15 
ROOT
HETATM    1  C1  UNL     1      -4.115   3.005  12.583  1.00  0.00     0.082 A 
HETATM    2  C2  UNL     1      -4.727   4.212  12.834  1.00  0.00     0.050 A 
HETATM    3  C3  UNL     1      -5.417   4.340  14.021  1.00  0.00     0.058 A 
HETATM    4 CL1  UNL     1      -6.230   5.856  14.417  1.00  0.00    -0.082 Cl
HETATM    5  C4  UNL     1      -5.506   3.307  14.949  1.00  0.00     0.079 A 
HETATM    6 CL2  UNL     1      -6.385   3.519  16.435  1.00  0.00    -0.081 Cl
HETATM    7  C5  UNL     1      -4.895   2.102  14.702  1.00  0.00     0.104 A 
HETATM    8  C6  UNL     1      -4.209   1.989  13.508  1.00  0.00     0.052 A 
ENDROOT
BRANCH   1   9
HETATM    9  S1  UNL     1      -3.226   2.794  11.086  1.00  0.00     0.256 S 
HETATM   10  O1  UNL     1      -1.866   2.243  11.489  1.00  0.00    -0.201 OA
HETATM   11  O2  UNL     1      -3.931   1.846  10.153  1.00  0.00    -0.201 OA
BRANCH   9  12
HETATM   12  N1  UNL     1      -2.946   4.328  10.368  1.00  0.00    -0.324 N 
ATOM     13  H12 UNL     1      -2.036   4.707  10.104  1.00  0.00     0.169 HD
ATOM     14  H11 UNL     1      -3.857   4.774  10.263  1.00  0.00     0.169 HD
ENDBRANCH   9  12
ENDBRANCH   1   9
BRANCH   7  15
HETATM   15  S2  UNL     1      -4.945   0.746  15.786  1.00  0.00     0.258 S 
HETATM   16  O3  UNL     1      -3.833   0.819  16.798  1.00  0.00    -0.201 OA
HETATM   17  O4  UNL     1      -4.830  -0.534  15.013  1.00  0.00    -0.201 OA
BRANCH  15  18
HETATM   18  N2  UNL     1      -6.424   0.819  16.671  1.00  0.00    -0.324 N 
ATOM     19  H22 UNL     1      -6.838   1.669  17.054  1.00  0.00     0.169 HD
ATOM     20  H21 UNL     1      -6.801  -0.127  16.740  1.00  0.00     0.169 HD
ENDBRANCH  15  18
ENDBRANCH   7  15
TORSDOF 4
ENDMDL
