MODEL 10
REMARK VINA RESULT: -6.509237028      1.103      1.118
REMARK  4 active torsions:
REMARK  status: ('A' for Active; 'I' for Inactive)
REMARK    1  A    between atoms: C4_6  and  S1_7 
REMARK    2  A    between atoms: S1_7  and  N2_8 
REMARK    3  A    between atoms: C6_14  and  S2_15 
REMARK    4  A    between atoms: S2_15  and  N3_16 
ROOT
HETATM    1  N1  UNL     1      -5.110   6.113  12.767  1.00  0.00    -0.101 NA
HETATM    2  C1  UNL     1      -5.091   4.886  13.496  1.00  0.00     0.071 A 
HETATM    3  C2  UNL     1      -5.680   4.796  14.740  1.00  0.00     0.053 A 
HETATM    4  C3  UNL     1      -5.674   3.621  15.464  1.00  0.00     0.059 A 
HETATM    5 CL1  UNL     1      -6.426   3.513  17.050  1.00  0.00    -0.083 Cl
HETATM    6  C4  UNL     1      -5.077   2.475  14.978  1.00  0.00     0.102 A 
HETATM    7  C5  UNL     1      -4.491   2.575  13.732  1.00  0.00     0.054 A 
HETATM    8  C6  UNL     1      -4.492   3.745  13.001  1.00  0.00     0.105 A 
ENDROOT
BRANCH   6   9
HETATM    9  S1  UNL     1      -5.063   0.978  15.887  1.00  0.00     0.258 S 
HETATM   10  O1  UNL     1      -3.845   0.892  16.783  1.00  0.00    -0.201 OA
HETATM   11  O2  UNL     1      -4.956  -0.150  14.905  1.00  0.00    -0.201 OA
BRANCH   9  12
HETATM   12  N2  UNL     1      -6.520   0.761  16.780  1.00  0.00    -0.324 N 
ATOM     13  H22 UNL     1      -7.321   1.388  16.707  1.00  0.00     0.169 HD
ATOM     14  H21 UNL     1      -6.477  -0.063  17.380  1.00  0.00     0.169 HD
ENDBRANCH   9  12
ENDBRANCH   6   9
BRANCH   8  15
HETATM   15  S2  UNL     1      -3.748   3.871  11.421  1.00  0.00     0.258 S 
HETATM   16  O3  UNL     1      -3.109   2.559  11.050  1.00  0.00    -0.201 OA
HETATM   17  O4  UNL     1      -4.879   4.089  10.431  1.00  0.00    -0.201 OA
BRANCH  15  18
HETATM   18  N3  UNL     1      -2.682   5.187  11.290  1.00  0.00    -0.324 N 
ATOM     19  H32 UNL     1      -3.006   6.150  11.200  1.00  0.00     0.169 HD
ATOM     20  H31 UNL     1      -1.701   4.910  11.310  1.00  0.00     0.169 HD
ENDBRANCH  15  18
ENDBRANCH   8  15
TORSDOF 4
ENDMDL
