MODEL 3
REMARK VINA RESULT: -7.326365753      1.104      1.257
REMARK  4 active torsions:
REMARK  status: ('A' for Active; 'I' for Inactive)
REMARK    1  A    between atoms: C4_6  and  S1_7 
REMARK    2  A    between atoms: S1_7  and  N2_8 
REMARK    3  A    between atoms: C6_14  and  S2_15 
REMARK    4  A    between atoms: S2_15  and  N3_16 
ROOT
HETATM    1  N1  UNL     1      -4.495   4.571  12.195  1.00  0.00    -0.101 NA
HETATM    2  C1  UNL     1      -4.838   3.773  13.327  1.00  0.00     0.071 A 
HETATM    3  C2  UNL     1      -5.467   4.332  14.420  1.00  0.00     0.053 A 
HETATM    4  C3  UNL     1      -5.808   3.580  15.525  1.00  0.00     0.059 A 
HETATM    5 CL1  UNL     1      -6.610   4.299  16.915  1.00  0.00    -0.083 Cl
HETATM    6  C4  UNL     1      -5.536   2.228  15.593  1.00  0.00     0.102 A 
HETATM    7  C5  UNL     1      -4.906   1.678  14.495  1.00  0.00     0.054 A 
HETATM    8  C6  UNL     1      -4.562   2.421  13.384  1.00  0.00     0.105 A 
ENDROOT
BRANCH   6   9
HETATM    9  S1  UNL     1      -5.964   1.264  16.991  1.00  0.00     0.258 S 
HETATM   10  O1  UNL     1      -5.404   1.865  18.264  1.00  0.00    -0.201 OA
HETATM   11  O2  UNL     1      -5.319  -0.081  16.831  1.00  0.00    -0.201 OA
BRANCH   9  12
HETATM   12  N2  UNL     1      -7.666   1.021  17.102  1.00  0.00    -0.324 N 
ATOM     13  H22 UNL     1      -8.249   0.773  16.304  1.00  0.00     0.169 HD
ATOM     14  H21 UNL     1      -8.005   1.156  18.054  1.00  0.00     0.169 HD
ENDBRANCH   9  12
ENDBRANCH   6   9
BRANCH   8  15
HETATM   15  S2  UNL     1      -3.763   1.722  11.992  1.00  0.00     0.258 S 
HETATM   16  O3  UNL     1      -2.290   2.036  12.035  1.00  0.00    -0.201 OA
HETATM   17  O4  UNL     1      -3.882   0.216  12.141  1.00  0.00    -0.201 OA
BRANCH  15  18
HETATM   18  N3  UNL     1      -4.490   2.157  10.520  1.00  0.00    -0.324 N 
ATOM     19  H32 UNL     1      -4.480   1.549   9.701  1.00  0.00     0.169 HD
ATOM     20  H31 UNL     1      -4.928   3.078  10.547  1.00  0.00     0.169 HD
ENDBRANCH  15  18
ENDBRANCH   8  15
TORSDOF 4
ENDMDL
