MODEL 8
REMARK VINA RESULT: -6.744845503      1.223      1.460
REMARK  4 active torsions:
REMARK  status: ('A' for Active; 'I' for Inactive)
REMARK    1  A    between atoms: C4_6  and  S1_7 
REMARK    2  A    between atoms: S1_7  and  N2_8 
REMARK    3  A    between atoms: C6_14  and  S2_15 
REMARK    4  A    between atoms: S2_15  and  N3_16 
ROOT
HETATM    1  N1  UNL     1      -4.644   4.685  12.359  1.00  0.00    -0.101 NA
HETATM    2  C1  UNL     1      -4.988   3.829  13.448  1.00  0.00     0.071 A 
HETATM    3  C2  UNL     1      -5.509   4.348  14.615  1.00  0.00     0.053 A 
HETATM    4  C3  UNL     1      -5.849   3.540  15.681  1.00  0.00     0.059 A 
HETATM    5 CL1  UNL     1      -6.513   4.208  17.166  1.00  0.00    -0.083 Cl
HETATM    6  C4  UNL     1      -5.685   2.170  15.632  1.00  0.00     0.102 A 
HETATM    7  C5  UNL     1      -5.164   1.660  14.460  1.00  0.00     0.054 A 
HETATM    8  C6  UNL     1      -4.820   2.459  13.389  1.00  0.00     0.105 A 
ENDROOT
BRANCH   6   9
HETATM    9  S1  UNL     1      -6.113   1.136  16.979  1.00  0.00     0.258 S 
HETATM   10  O1  UNL     1      -5.438   1.591  18.257  1.00  0.00    -0.201 OA
HETATM   11  O2  UNL     1      -5.589  -0.238  16.682  1.00  0.00    -0.201 OA
BRANCH   9  12
HETATM   12  N2  UNL     1      -7.821   1.016  17.175  1.00  0.00    -0.324 N 
ATOM     13  H22 UNL     1      -8.333   1.486  17.921  1.00  0.00     0.169 HD
ATOM     14  H21 UNL     1      -8.243   0.425  16.459  1.00  0.00     0.169 HD
ENDBRANCH   9  12
ENDBRANCH   6   9
BRANCH   8  15
HETATM   15  S2  UNL     1      -4.159   1.812  11.903  1.00  0.00     0.258 S 
HETATM   16  O3  UNL     1      -4.708   2.571  10.724  1.00  0.00    -0.201 OA
HETATM   17  O4  UNL     1      -2.668   2.099  11.937  1.00  0.00    -0.201 OA
BRANCH  15  18
HETATM   18  N3  UNL     1      -4.361   0.131  11.761  1.00  0.00    -0.324 N 
ATOM     19  H32 UNL     1      -4.684  -0.313  10.901  1.00  0.00     0.169 HD
ATOM     20  H31 UNL     1      -4.128  -0.373  12.616  1.00  0.00     0.169 HD
ENDBRANCH  15  18
ENDBRANCH   8  15
TORSDOF 4
ENDMDL
