MODEL 7
REMARK VINA RESULT: -6.824377253      1.039      1.262
REMARK  4 active torsions:
REMARK  status: ('A' for Active; 'I' for Inactive)
REMARK    1  A    between atoms: C4_6  and  S1_7 
REMARK    2  A    between atoms: S1_7  and  N2_8 
REMARK    3  A    between atoms: C6_14  and  S2_15 
REMARK    4  A    between atoms: S2_15  and  N3_16 
ROOT
HETATM    1  N1  UNL     1      -4.850   5.867  12.899  1.00  0.00    -0.101 NA
HETATM    2  C1  UNL     1      -5.042   4.737  13.750  1.00  0.00     0.071 A 
HETATM    3  C2  UNL     1      -5.764   4.850  14.920  1.00  0.00     0.053 A 
HETATM    4  C3  UNL     1      -5.962   3.771  15.757  1.00  0.00     0.059 A 
HETATM    5 CL1  UNL     1      -6.883   3.921  17.248  1.00  0.00    -0.083 Cl
HETATM    6  C4  UNL     1      -5.448   2.523  15.465  1.00  0.00     0.102 A 
HETATM    7  C5  UNL     1      -4.728   2.421  14.292  1.00  0.00     0.054 A 
HETATM    8  C6  UNL     1      -4.524   3.493  13.448  1.00  0.00     0.105 A 
ENDROOT
BRANCH   6   9
HETATM    9  S1  UNL     1      -5.694   1.148  16.521  1.00  0.00     0.258 S 
HETATM   10  O1  UNL     1      -7.144   0.709  16.523  1.00  0.00    -0.201 OA
HETATM   11  O2  UNL     1      -5.375   1.586  17.920  1.00  0.00    -0.201 OA
BRANCH   9  12
HETATM   12  N2  UNL     1      -4.640  -0.157  16.126  1.00  0.00    -0.324 N 
ATOM     13  H22 UNL     1      -4.014  -0.146  15.321  1.00  0.00     0.169 HD
ATOM     14  H21 UNL     1      -4.725  -0.925  16.790  1.00  0.00     0.169 HD
ENDBRANCH   9  12
ENDBRANCH   6   9
BRANCH   8  15
HETATM   15  S2  UNL     1      -3.610   3.362  11.961  1.00  0.00     0.258 S 
HETATM   16  O3  UNL     1      -2.967   2.003  11.872  1.00  0.00    -0.201 OA
HETATM   17  O4  UNL     1      -4.621   3.430  10.829  1.00  0.00    -0.201 OA
BRANCH  15  18
HETATM   18  N3  UNL     1      -2.504   4.633  11.745  1.00  0.00    -0.324 N 
ATOM     19  H32 UNL     1      -1.628   4.695  12.264  1.00  0.00     0.169 HD
ATOM     20  H31 UNL     1      -2.809   5.315  11.050  1.00  0.00     0.169 HD
ENDBRANCH  15  18
ENDBRANCH   8  15
TORSDOF 4
ENDMDL
