MODEL 2
REMARK VINA RESULT: -7.349785143      1.797      5.099
REMARK  4 active torsions:
REMARK  status: ('A' for Active; 'I' for Inactive)
REMARK    1  A    between atoms: C4_6  and  S1_7 
REMARK    2  A    between atoms: S1_7  and  N2_8 
REMARK    3  A    between atoms: C6_14  and  S2_15 
REMARK    4  A    between atoms: S2_15  and  N3_16 
ROOT
HETATM    1  N1  UNL     1      -6.782   4.110  17.066  1.00  0.00    -0.101 NA
HETATM    2  C1  UNL     1      -6.080   3.731  15.883  1.00  0.00     0.071 A 
HETATM    3  C2  UNL     1      -5.829   4.651  14.887  1.00  0.00     0.053 A 
HETATM    4  C3  UNL     1      -5.152   4.308  13.735  1.00  0.00     0.059 A 
HETATM    5 CL1  UNL     1      -4.835   5.486  12.468  1.00  0.00    -0.083 Cl
HETATM    6  C4  UNL     1      -4.690   3.024  13.521  1.00  0.00     0.102 A 
HETATM    7  C5  UNL     1      -4.946   2.110  14.524  1.00  0.00     0.054 A 
HETATM    8  C6  UNL     1      -5.623   2.443  15.680  1.00  0.00     0.105 A 
ENDROOT
BRANCH   6   9
HETATM    9  S1  UNL     1      -3.830   2.577  12.062  1.00  0.00     0.258 S 
HETATM   10  O1  UNL     1      -4.639   2.909  10.825  1.00  0.00    -0.201 OA
HETATM   11  O2  UNL     1      -3.656   1.087  12.076  1.00  0.00    -0.201 OA
BRANCH   9  12
HETATM   12  N2  UNL     1      -2.263   3.289  12.002  1.00  0.00    -0.324 N 
ATOM     13  H22 UNL     1      -2.049   4.125  11.459  1.00  0.00     0.169 HD
ATOM     14  H21 UNL     1      -1.592   2.774  12.571  1.00  0.00     0.169 HD
ENDBRANCH   9  12
ENDBRANCH   6   9
BRANCH   8  15
HETATM   15  S2  UNL     1      -5.947   1.284  16.950  1.00  0.00     0.258 S 
HETATM   16  O3  UNL     1      -7.228   0.549  16.659  1.00  0.00    -0.201 OA
HETATM   17  O4  UNL     1      -4.837   0.250  16.881  1.00  0.00    -0.201 OA
BRANCH  15  18
HETATM   18  N3  UNL     1      -5.917   1.973  18.503  1.00  0.00    -0.324 N 
ATOM     19  H32 UNL     1      -5.053   2.113  19.027  1.00  0.00     0.169 HD
ATOM     20  H31 UNL     1      -6.844   2.225  18.846  1.00  0.00     0.169 HD
ENDBRANCH  15  18
ENDBRANCH   8  15
TORSDOF 4
ENDMDL
