MODEL 1
REMARK VINA RESULT: -7.358766971      0.000      0.000
REMARK  4 active torsions:
REMARK  status: ('A' for Active; 'I' for Inactive)
REMARK    1  A    between atoms: C4_6  and  S1_7 
REMARK    2  A    between atoms: S1_7  and  N2_8 
REMARK    3  A    between atoms: C6_14  and  S2_15 
REMARK    4  A    between atoms: S2_15  and  N3_16 
ROOT
HETATM    1  N1  UNL     1      -4.527   5.520  12.808  1.00  0.00    -0.101 NA
HETATM    2  C1  UNL     1      -4.857   4.484  13.732  1.00  0.00     0.071 A 
HETATM    3  C2  UNL     1      -5.541   4.769  14.896  1.00  0.00     0.053 A 
HETATM    4  C3  UNL     1      -5.872   3.784  15.804  1.00  0.00     0.059 A 
HETATM    5 CL1  UNL     1      -6.744   4.153  17.286  1.00  0.00    -0.083 Cl
HETATM    6  C4  UNL     1      -5.534   2.461  15.593  1.00  0.00     0.102 A 
HETATM    7  C5  UNL     1      -4.849   2.187  14.426  1.00  0.00     0.054 A 
HETATM    8  C6  UNL     1      -4.515   3.165  13.511  1.00  0.00     0.105 A 
ENDROOT
BRANCH   6   9
HETATM    9  S1  UNL     1      -5.947   1.203  16.739  1.00  0.00     0.258 S 
HETATM   10  O1  UNL     1      -5.294   1.449  18.083  1.00  0.00    -0.201 OA
HETATM   11  O2  UNL     1      -5.388  -0.088  16.218  1.00  0.00    -0.201 OA
BRANCH   9  12
HETATM   12  N2  UNL     1      -7.653   1.014  16.890  1.00  0.00    -0.324 N 
ATOM     13  H22 UNL     1      -8.321   1.741  16.639  1.00  0.00     0.169 HD
ATOM     14  H21 UNL     1      -7.900   0.095  17.258  1.00  0.00     0.169 HD
ENDBRANCH   9  12
ENDBRANCH   6   9
BRANCH   8  15
HETATM   15  S2  UNL     1      -3.647   2.815  12.032  1.00  0.00     0.258 S 
HETATM   16  O3  UNL     1      -3.196   1.378  12.029  1.00  0.00    -0.201 OA
HETATM   17  O4  UNL     1      -4.654   2.948  10.903  1.00  0.00    -0.201 OA
BRANCH  15  18
HETATM   18  N3  UNL     1      -2.381   3.907  11.728  1.00  0.00    -0.324 N 
ATOM     19  H32 UNL     1      -2.449   4.647  11.029  1.00  0.00     0.169 HD
ATOM     20  H31 UNL     1      -1.562   3.741  12.313  1.00  0.00     0.169 HD
ENDBRANCH  15  18
ENDBRANCH   8  15
TORSDOF 4
ENDMDL
