MODEL 5
REMARK VINA RESULT: -7.028575200      2.256      5.065
REMARK  4 active torsions:
REMARK  status: ('A' for Active; 'I' for Inactive)
REMARK    1  A    between atoms: C4_6  and  S1_7 
REMARK    2  A    between atoms: S1_7  and  N2_8 
REMARK    3  A    between atoms: C6_14  and  S2_15 
REMARK    4  A    between atoms: S2_15  and  N3_16 
ROOT
HETATM    1  N1  UNL     1      -6.512   4.152  16.855  1.00  0.00    -0.101 NA
HETATM    2  C1  UNL     1      -5.884   3.526  15.737  1.00  0.00     0.071 A 
HETATM    3  C2  UNL     1      -5.478   4.271  14.649  1.00  0.00     0.053 A 
HETATM    4  C3  UNL     1      -4.869   3.688  13.556  1.00  0.00     0.059 A 
HETATM    5 CL1  UNL     1      -4.354   4.643  12.172  1.00  0.00    -0.083 Cl
HETATM    6  C4  UNL     1      -4.634   2.329  13.498  1.00  0.00     0.102 A 
HETATM    7  C5  UNL     1      -5.043   1.592  14.591  1.00  0.00     0.054 A 
HETATM    8  C6  UNL     1      -5.653   2.166  15.689  1.00  0.00     0.105 A 
ENDROOT
BRANCH   6   9
HETATM    9  S1  UNL     1      -3.862   1.579  12.116  1.00  0.00     0.258 S 
HETATM   10  O1  UNL     1      -3.807   0.072  12.269  1.00  0.00    -0.201 OA
HETATM   11  O2  UNL     1      -2.441   2.059  12.073  1.00  0.00    -0.201 OA
BRANCH   9  12
HETATM   12  N2  UNL     1      -4.617   2.036  10.637  1.00  0.00    -0.324 N 
ATOM     13  H22 UNL     1      -4.432   2.921  10.165  1.00  0.00     0.169 HD
ATOM     14  H21 UNL     1      -5.259   1.319  10.303  1.00  0.00     0.169 HD
ENDBRANCH   9  12
ENDBRANCH   6   9
BRANCH   8  15
HETATM   15  S2  UNL     1      -6.172   1.231  17.074  1.00  0.00     0.258 S 
HETATM   16  O3  UNL     1      -7.616   0.832  16.913  1.00  0.00    -0.201 OA
HETATM   17  O4  UNL     1      -5.369  -0.057  17.048  1.00  0.00    -0.201 OA
BRANCH  15  18
HETATM   18  N3  UNL     1      -5.861   2.005  18.554  1.00  0.00    -0.324 N 
ATOM     19  H32 UNL     1      -5.601   2.990  18.616  1.00  0.00     0.169 HD
ATOM     20  H31 UNL     1      -5.960   1.386  19.358  1.00  0.00     0.169 HD
ENDBRANCH  15  18
ENDBRANCH   8  15
TORSDOF 4
ENDMDL
