MODEL 4
REMARK VINA RESULT: -7.128461431      2.328      5.042
REMARK  4 active torsions:
REMARK  status: ('A' for Active; 'I' for Inactive)
REMARK    1  A    between atoms: C4_6  and  S1_7 
REMARK    2  A    between atoms: S1_7  and  N2_8 
REMARK    3  A    between atoms: C6_14  and  S2_15 
REMARK    4  A    between atoms: S2_15  and  N3_16 
ROOT
HETATM    1  N1  UNL     1      -6.499   4.362  16.982  1.00  0.00    -0.101 NA
HETATM    2  C1  UNL     1      -5.929   3.741  15.831  1.00  0.00     0.071 A 
HETATM    3  C2  UNL     1      -5.563   4.492  14.733  1.00  0.00     0.053 A 
HETATM    4  C3  UNL     1      -5.009   3.914  13.609  1.00  0.00     0.059 A 
HETATM    5 CL1  UNL     1      -4.545   4.878  12.213  1.00  0.00    -0.083 Cl
HETATM    6  C4  UNL     1      -4.793   2.553  13.527  1.00  0.00     0.102 A 
HETATM    7  C5  UNL     1      -5.162   1.810  14.630  1.00  0.00     0.054 A 
HETATM    8  C6  UNL     1      -5.716   2.379  15.759  1.00  0.00     0.105 A 
ENDROOT
BRANCH   6   9
HETATM    9  S1  UNL     1      -4.092   1.809  12.105  1.00  0.00     0.258 S 
HETATM   10  O1  UNL     1      -2.632   2.185  11.953  1.00  0.00    -0.201 OA
HETATM   11  O2  UNL     1      -4.805   2.358  10.906  1.00  0.00    -0.201 OA
BRANCH   9  12
HETATM   12  N2  UNL     1      -4.307   0.100  12.108  1.00  0.00    -0.324 N 
ATOM     13  H22 UNL     1      -3.577  -0.556  12.386  1.00  0.00     0.169 HD
ATOM     14  H21 UNL     1      -5.243  -0.164  11.800  1.00  0.00     0.169 HD
ENDBRANCH   9  12
ENDBRANCH   6   9
BRANCH   8  15
HETATM   15  S2  UNL     1      -6.184   1.436  17.157  1.00  0.00     0.258 S 
HETATM   16  O3  UNL     1      -7.557   0.853  16.947  1.00  0.00    -0.201 OA
HETATM   17  O4  UNL     1      -5.227   0.259  17.220  1.00  0.00    -0.201 OA
BRANCH  15  18
HETATM   18  N3  UNL     1      -6.046   2.295  18.617  1.00  0.00    -0.324 N 
ATOM     19  H32 UNL     1      -5.896   3.303  18.649  1.00  0.00     0.169 HD
ATOM     20  H31 UNL     1      -6.129   1.699  19.440  1.00  0.00     0.169 HD
ENDBRANCH  15  18
ENDBRANCH   8  15
TORSDOF 4
ENDMDL
