MODEL 15
REMARK VINA RESULT: -5.695542087      2.550      5.190
REMARK  5 active torsions:
REMARK  status: ('A' for Active; 'I' for Inactive)
REMARK    1  A    between atoms: C3_4  and  C4_5 
REMARK    2  A    between atoms: C5_9  and  S1_10 
REMARK    3  A    between atoms: S1_10  and  N2_11 
REMARK    4  A    between atoms: C7_17  and  S2_18 
REMARK    5  A    between atoms: S2_18  and  N3_19 
ROOT
HETATM    1  N1  UNL     1      -6.189   4.364  16.985  1.00  0.00    -0.101 NA
HETATM    2  C1  UNL     1      -5.665   3.672  15.867  1.00  0.00     0.070 A 
HETATM    3  C2  UNL     1      -5.133   4.310  14.794  1.00  0.00     0.046 A 
HETATM    4  C3  UNL     1      -4.625   3.582  13.708  1.00  0.00     0.073 A 
HETATM    5  C5  UNL     1      -4.647   2.218  13.691  1.00  0.00     0.096 A 
HETATM    6  C6  UNL     1      -5.202   1.581  14.809  1.00  0.00     0.053 A 
HETATM    7  C7  UNL     1      -5.702   2.283  15.879  1.00  0.00     0.104 A 
ENDROOT
BRANCH   5   8
HETATM    8  S1  UNL     1      -4.038   1.276  12.396  1.00  0.00     0.257 S 
HETATM    9  O1  UNL     1      -4.141  -0.206  12.636  1.00  0.00    -0.201 OA
HETATM   10  O2  UNL     1      -2.556   1.583  12.223  1.00  0.00    -0.201 OA
BRANCH   8  11
HETATM   11  N2  UNL     1      -4.802   1.738  10.930  1.00  0.00    -0.324 N 
ATOM     12  H22 UNL     1      -5.747   2.115  10.869  1.00  0.00     0.169 HD
ATOM     13  H21 UNL     1      -4.170   1.577  10.146  1.00  0.00     0.169 HD
ENDBRANCH   8  11
ENDBRANCH   5   8
BRANCH   4  14
HETATM   14  C4  UNL     1      -4.056   4.307  12.550  1.00  0.00     0.419 C 
HETATM   15  F1  UNL     1      -2.733   4.105  12.338  1.00  0.00    -0.166 F 
HETATM   16  F2  UNL     1      -4.811   4.045  11.394  1.00  0.00    -0.166 F 
HETATM   17  F3  UNL     1      -4.238   5.687  12.742  1.00  0.00    -0.166 F 
ENDBRANCH   4  14
BRANCH   7  18
HETATM   18  S2  UNL     1      -6.391   1.465  17.266  1.00  0.00     0.258 S 
HETATM   19  O3  UNL     1      -6.199   2.255  18.515  1.00  0.00    -0.201 OA
HETATM   20  O4  UNL     1      -7.869   1.277  17.057  1.00  0.00    -0.201 OA
BRANCH  18  21
HETATM   21  N3  UNL     1      -5.638  -0.101  17.410  1.00  0.00    -0.324 N 
ATOM     22  H32 UNL     1      -5.619  -0.666  18.258  1.00  0.00     0.169 HD
ATOM     23  H31 UNL     1      -5.228  -0.343  16.508  1.00  0.00     0.169 HD
ENDBRANCH  18  21
ENDBRANCH   7  18
TORSDOF 5
ENDMDL
