MODEL 3
REMARK VINA RESULT: -7.208018387      1.649      1.986
REMARK  5 active torsions:
REMARK  status: ('A' for Active; 'I' for Inactive)
REMARK    1  A    between atoms: C3_4  and  C4_5 
REMARK    2  A    between atoms: C5_9  and  S1_10 
REMARK    3  A    between atoms: S1_10  and  N2_11 
REMARK    4  A    between atoms: C7_17  and  S2_18 
REMARK    5  A    between atoms: S2_18  and  N3_19 
ROOT
HETATM    1  N1  UNL     1      -4.177   6.070  14.097  1.00  0.00    -0.101 NA
HETATM    2  C1  UNL     1      -4.521   4.834  14.698  1.00  0.00     0.070 A 
HETATM    3  C2  UNL     1      -5.397   4.739  15.729  1.00  0.00     0.046 A 
HETATM    4  C3  UNL     1      -5.706   3.492  16.293  1.00  0.00     0.073 A 
HETATM    5  C5  UNL     1      -5.142   2.340  15.829  1.00  0.00     0.096 A 
HETATM    6  C6  UNL     1      -4.239   2.462  14.763  1.00  0.00     0.053 A 
HETATM    7  C7  UNL     1      -3.928   3.678  14.203  1.00  0.00     0.104 A 
ENDROOT
BRANCH   5   8
HETATM    8  S1  UNL     1      -5.485   0.790  16.473  1.00  0.00     0.257 S 
HETATM    9  O1  UNL     1      -6.944   0.426  16.409  1.00  0.00    -0.201 OA
HETATM   10  O2  UNL     1      -5.101   0.777  17.946  1.00  0.00    -0.201 OA
BRANCH   8  11
HETATM   11  N2  UNL     1      -4.501  -0.389  15.706  1.00  0.00    -0.324 N 
ATOM     12  H22 UNL     1      -3.536  -0.589  15.966  1.00  0.00     0.169 HD
ATOM     13  H21 UNL     1      -5.028  -0.848  14.963  1.00  0.00     0.169 HD
ENDBRANCH   8  11
ENDBRANCH   5   8
BRANCH   4  14
HETATM   14  C4  UNL     1      -6.663   3.422  17.420  1.00  0.00     0.419 C 
HETATM   15  F1  UNL     1      -7.743   2.632  17.210  1.00  0.00    -0.166 F 
HETATM   16  F2  UNL     1      -5.991   3.076  18.605  1.00  0.00    -0.166 F 
HETATM   17  F3  UNL     1      -7.142   4.714  17.692  1.00  0.00    -0.166 F 
ENDBRANCH   4  14
BRANCH   7  18
HETATM   18  S2  UNL     1      -2.797   3.807  12.872  1.00  0.00     0.258 S 
HETATM   19  O3  UNL     1      -1.515   4.430  13.306  1.00  0.00    -0.201 OA
HETATM   20  O4  UNL     1      -2.489   2.435  12.338  1.00  0.00    -0.201 OA
BRANCH  18  21
HETATM   21  N3  UNL     1      -3.541   4.751  11.610  1.00  0.00    -0.324 N 
ATOM     22  H32 UNL     1      -4.493   4.624  11.267  1.00  0.00     0.169 HD
ATOM     23  H31 UNL     1      -2.864   5.441  11.283  1.00  0.00     0.169 HD
ENDBRANCH  18  21
ENDBRANCH   7  18
TORSDOF 5
ENDMDL
