MODEL 6
REMARK VINA RESULT: -6.739889297      2.886      5.363
REMARK  5 active torsions:
REMARK  status: ('A' for Active; 'I' for Inactive)
REMARK    1  A    between atoms: C3_4  and  C4_5 
REMARK    2  A    between atoms: C5_9  and  S1_10 
REMARK    3  A    between atoms: S1_10  and  N2_11 
REMARK    4  A    between atoms: C7_17  and  S2_18 
REMARK    5  A    between atoms: S2_18  and  N3_19 
ROOT
HETATM    1  N1  UNL     1      -5.158   3.572  16.737  1.00  0.00    -0.101 NA
HETATM    2  C1  UNL     1      -4.796   3.575  15.368  1.00  0.00     0.070 A 
HETATM    3  C2  UNL     1      -4.645   4.718  14.653  1.00  0.00     0.046 A 
HETATM    4  C3  UNL     1      -4.286   4.672  13.297  1.00  0.00     0.073 A 
HETATM    5  C5  UNL     1      -4.077   3.486  12.655  1.00  0.00     0.096 A 
HETATM    6  C6  UNL     1      -4.239   2.319  13.413  1.00  0.00     0.053 A 
HETATM    7  C7  UNL     1      -4.591   2.351  14.741  1.00  0.00     0.104 A 
ENDROOT
BRANCH   5   8
HETATM    8  S1  UNL     1      -3.632   3.367  11.005  1.00  0.00     0.257 S 
HETATM    9  O1  UNL     1      -4.427   4.274  10.105  1.00  0.00    -0.201 OA
HETATM   10  O2  UNL     1      -3.897   1.946  10.528  1.00  0.00    -0.201 OA
BRANCH   8  11
HETATM   11  N2  UNL     1      -1.943   3.627  10.837  1.00  0.00    -0.324 N 
ATOM     12  H22 UNL     1      -1.488   3.902   9.968  1.00  0.00     0.169 HD
ATOM     13  H21 UNL     1      -1.479   3.466  11.731  1.00  0.00     0.169 HD
ENDBRANCH   8  11
ENDBRANCH   5   8
BRANCH   4  14
HETATM   14  C4  UNL     1      -4.133   5.936  12.543  1.00  0.00     0.419 C 
HETATM   15  F1  UNL     1      -2.999   6.034  11.808  1.00  0.00    -0.166 F 
HETATM   16  F2  UNL     1      -5.278   6.177  11.764  1.00  0.00    -0.166 F 
HETATM   17  F3  UNL     1      -4.133   7.010  13.448  1.00  0.00    -0.166 F 
ENDBRANCH   4  14
BRANCH   7  18
HETATM   18  S2  UNL     1      -4.788   0.879  15.670  1.00  0.00     0.258 S 
HETATM   19  O3  UNL     1      -4.809  -0.322  14.789  1.00  0.00    -0.201 OA
HETATM   20  O4  UNL     1      -3.639   0.731  16.630  1.00  0.00    -0.201 OA
BRANCH  18  21
HETATM   21  N3  UNL     1      -6.271   0.999  16.578  1.00  0.00    -0.324 N 
ATOM     22  H32 UNL     1      -6.533   1.787  17.170  1.00  0.00     0.169 HD
ATOM     23  H31 UNL     1      -6.818   0.154  16.413  1.00  0.00     0.169 HD
ENDBRANCH  18  21
ENDBRANCH   7  18
TORSDOF 5
ENDMDL
