MODEL 2
REMARK VINA RESULT: -7.295397551      1.665      1.907
REMARK  5 active torsions:
REMARK  status: ('A' for Active; 'I' for Inactive)
REMARK    1  A    between atoms: C3_4  and  C4_5 
REMARK    2  A    between atoms: C5_9  and  S1_10 
REMARK    3  A    between atoms: S1_10  and  N2_11 
REMARK    4  A    between atoms: C7_17  and  S2_18 
REMARK    5  A    between atoms: S2_18  and  N3_19 
ROOT
HETATM    1  N1  UNL     1      -5.407   5.906  12.863  1.00  0.00    -0.101 NA
HETATM    2  C1  UNL     1      -5.310   4.720  13.632  1.00  0.00     0.070 A 
HETATM    3  C2  UNL     1      -5.897   4.585  14.847  1.00  0.00     0.046 A 
HETATM    4  C3  UNL     1      -5.773   3.391  15.573  1.00  0.00     0.073 A 
HETATM    5  C5  UNL     1      -5.065   2.331  15.086  1.00  0.00     0.096 A 
HETATM    6  C6  UNL     1      -4.467   2.494  13.828  1.00  0.00     0.053 A 
HETATM    7  C7  UNL     1      -4.581   3.659  13.109  1.00  0.00     0.104 A 
ENDROOT
BRANCH   5   8
HETATM    8  S1  UNL     1      -4.883   0.847  15.922  1.00  0.00     0.257 S 
HETATM    9  O1  UNL     1      -3.634   0.782  16.759  1.00  0.00    -0.201 OA
HETATM   10  O2  UNL     1      -4.779  -0.279  14.903  1.00  0.00    -0.201 OA
BRANCH   8  11
HETATM   11  N2  UNL     1      -6.290   0.528  16.853  1.00  0.00    -0.324 N 
ATOM     12  H22 UNL     1      -6.822   1.241  17.353  1.00  0.00     0.169 HD
ATOM     13  H21 UNL     1      -6.503  -0.469  16.826  1.00  0.00     0.169 HD
ENDBRANCH   8  11
ENDBRANCH   5   8
BRANCH   4  14
HETATM   14  C4  UNL     1      -6.421   3.275  16.898  1.00  0.00     0.419 C 
HETATM   15  F1  UNL     1      -7.509   2.469  16.939  1.00  0.00    -0.166 F 
HETATM   16  F2  UNL     1      -5.473   2.916  17.872  1.00  0.00    -0.166 F 
HETATM   17  F3  UNL     1      -6.836   4.551  17.315  1.00  0.00    -0.166 F 
ENDBRANCH   4  14
BRANCH   7  18
HETATM   18  S2  UNL     1      -3.825   3.840  11.539  1.00  0.00     0.258 S 
HETATM   19  O3  UNL     1      -3.004   2.647  11.189  1.00  0.00    -0.201 OA
HETATM   20  O4  UNL     1      -4.886   4.000  10.485  1.00  0.00    -0.201 OA
BRANCH  18  21
HETATM   21  N3  UNL     1      -2.838   5.277  11.569  1.00  0.00    -0.324 N 
ATOM     22  H32 UNL     1      -2.225   5.551  12.336  1.00  0.00     0.169 HD
ATOM     23  H31 UNL     1      -2.982   5.783  10.695  1.00  0.00     0.169 HD
ENDBRANCH  18  21
ENDBRANCH   7  18
TORSDOF 5
ENDMDL
