MODEL 1
REMARK VINA RESULT: -7.501173844      0.000      0.000
REMARK  5 active torsions:
REMARK  status: ('A' for Active; 'I' for Inactive)
REMARK    1  A    between atoms: C3_4  and  C4_5 
REMARK    2  A    between atoms: C5_9  and  S1_10 
REMARK    3  A    between atoms: S1_10  and  N2_11 
REMARK    4  A    between atoms: C7_17  and  S2_18 
REMARK    5  A    between atoms: S2_18  and  N3_19 
ROOT
HETATM    1  N1  UNL     1      -4.254   4.337  12.509  1.00  0.00    -0.101 NA
HETATM    2  C1  UNL     1      -4.679   3.540  13.600  1.00  0.00     0.070 A 
HETATM    3  C2  UNL     1      -5.300   4.059  14.688  1.00  0.00     0.046 A 
HETATM    4  C3  UNL     1      -5.702   3.229  15.746  1.00  0.00     0.073 A 
HETATM    5  C5  UNL     1      -5.486   1.882  15.718  1.00  0.00     0.096 A 
HETATM    6  C6  UNL     1      -4.842   1.369  14.584  1.00  0.00     0.053 A 
HETATM    7  C7  UNL     1      -4.443   2.171  13.542  1.00  0.00     0.104 A 
ENDROOT
BRANCH   5   8
HETATM    8  S1  UNL     1      -5.959   0.819  16.976  1.00  0.00     0.257 S 
HETATM    9  O1  UNL     1      -5.255   1.085  18.279  1.00  0.00    -0.201 OA
HETATM   10  O2  UNL     1      -5.600  -0.605  16.573  1.00  0.00    -0.201 OA
BRANCH   8  11
HETATM   11  N2  UNL     1      -7.666   0.855  17.156  1.00  0.00    -0.324 N 
ATOM     12  H22 UNL     1      -8.319   1.064  16.401  1.00  0.00     0.169 HD
ATOM     13  H21 UNL     1      -7.915   0.638  18.121  1.00  0.00     0.169 HD
ENDBRANCH   8  11
ENDBRANCH   5   8
BRANCH   4  14
HETATM   14  C4  UNL     1      -6.374   3.826  16.922  1.00  0.00     0.419 C 
HETATM   15  F1  UNL     1      -7.666   3.458  17.096  1.00  0.00    -0.166 F 
HETATM   16  F2  UNL     1      -5.611   3.601  18.082  1.00  0.00    -0.166 F 
HETATM   17  F3  UNL     1      -6.355   5.225  16.796  1.00  0.00    -0.166 F 
ENDBRANCH   4  14
BRANCH   7  18
HETATM   18  S2  UNL     1      -3.640   1.507  12.134  1.00  0.00     0.258 S 
HETATM   19  O3  UNL     1      -2.203   1.900  12.091  1.00  0.00    -0.201 OA
HETATM   20  O4  UNL     1      -3.710   0.005  12.176  1.00  0.00    -0.201 OA
BRANCH  18  21
HETATM   21  N3  UNL     1      -4.473   2.072  10.711  1.00  0.00    -0.324 N 
ATOM     22  H32 UNL     1      -5.481   2.023  10.564  1.00  0.00     0.169 HD
ATOM     23  H31 UNL     1      -3.782   2.453  10.064  1.00  0.00     0.169 HD
ENDBRANCH  18  21
ENDBRANCH   7  18
TORSDOF 5
ENDMDL
