MODEL 4
REMARK VINA RESULT: -7.070717429      2.332      5.161
REMARK  5 active torsions:
REMARK  status: ('A' for Active; 'I' for Inactive)
REMARK    1  A    between atoms: C3_4  and  C4_5 
REMARK    2  A    between atoms: C5_9  and  S1_10 
REMARK    3  A    between atoms: S1_10  and  N2_11 
REMARK    4  A    between atoms: C7_17  and  S2_18 
REMARK    5  A    between atoms: S2_18  and  N3_19 
ROOT
HETATM    1  N1  UNL     1      -6.527   3.766  17.102  1.00  0.00    -0.101 NA
HETATM    2  C1  UNL     1      -5.753   3.527  15.940  1.00  0.00     0.070 A 
HETATM    3  C2  UNL     1      -5.380   4.518  15.093  1.00  0.00     0.046 A 
HETATM    4  C3  UNL     1      -4.614   4.234  13.952  1.00  0.00     0.073 A 
HETATM    5  C5  UNL     1      -4.219   2.961  13.658  1.00  0.00     0.096 A 
HETATM    6  C6  UNL     1      -4.617   1.954  14.548  1.00  0.00     0.053 A 
HETATM    7  C7  UNL     1      -5.367   2.220  15.667  1.00  0.00     0.104 A 
ENDROOT
BRANCH   5   8
HETATM    8  S1  UNL     1      -3.279   2.553  12.285  1.00  0.00     0.257 S 
HETATM    9  O1  UNL     1      -3.955   2.878  10.980  1.00  0.00    -0.201 OA
HETATM   10  O2  UNL     1      -3.041   1.049  12.284  1.00  0.00    -0.201 OA
BRANCH   8  11
HETATM   11  N2  UNL     1      -1.732   3.289  12.400  1.00  0.00    -0.324 N 
ATOM     12  H22 UNL     1      -0.972   3.134  11.738  1.00  0.00     0.169 HD
ATOM     13  H21 UNL     1      -1.698   3.893  13.221  1.00  0.00     0.169 HD
ENDBRANCH   8  11
ENDBRANCH   5   8
BRANCH   4  14
HETATM   14  C4  UNL     1      -4.226   5.336  13.044  1.00  0.00     0.419 C 
HETATM   15  F1  UNL     1      -2.894   5.563  12.951  1.00  0.00    -0.166 F 
HETATM   16  F2  UNL     1      -4.810   5.149  11.779  1.00  0.00    -0.166 F 
HETATM   17  F3  UNL     1      -4.819   6.527  13.494  1.00  0.00    -0.166 F 
ENDBRANCH   4  14
BRANCH   7  18
HETATM   18  S2  UNL     1      -5.853   0.945  16.766  1.00  0.00     0.258 S 
HETATM   19  O3  UNL     1      -5.446  -0.396  16.258  1.00  0.00    -0.201 OA
HETATM   20  O4  UNL     1      -5.196   1.155  18.103  1.00  0.00    -0.201 OA
BRANCH  18  21
HETATM   21  N3  UNL     1      -7.583   1.025  16.968  1.00  0.00    -0.324 N 
ATOM     22  H32 UNL     1      -8.129   1.885  17.007  1.00  0.00     0.169 HD
ATOM     23  H31 UNL     1      -7.942   0.073  17.039  1.00  0.00     0.169 HD
ENDBRANCH  18  21
ENDBRANCH   7  18
TORSDOF 5
ENDMDL
