MODEL 8
REMARK VINA RESULT: -6.338618004      2.667      5.262
REMARK  5 active torsions:
REMARK  status: ('A' for Active; 'I' for Inactive)
REMARK    1  A    between atoms: C3_4  and  C4_5 
REMARK    2  A    between atoms: C5_9  and  S1_10 
REMARK    3  A    between atoms: S1_10  and  N2_11 
REMARK    4  A    between atoms: C7_17  and  S2_18 
REMARK    5  A    between atoms: S2_18  and  N3_19 
ROOT
HETATM    1  N1  UNL     1      -6.353   3.313  16.639  1.00  0.00    -0.101 NA
HETATM    2  C1  UNL     1      -5.699   3.491  15.396  1.00  0.00     0.070 A 
HETATM    3  C2  UNL     1      -5.768   4.647  14.690  1.00  0.00     0.046 A 
HETATM    4  C3  UNL     1      -5.103   4.777  13.461  1.00  0.00     0.073 A 
HETATM    5  C5  UNL     1      -4.369   3.753  12.937  1.00  0.00     0.096 A 
HETATM    6  C6  UNL     1      -4.312   2.568  13.683  1.00  0.00     0.053 A 
HETATM    7  C7  UNL     1      -4.959   2.429  14.887  1.00  0.00     0.104 A 
ENDROOT
BRANCH   5   8
HETATM    8  S1  UNL     1      -3.532   3.855  11.445  1.00  0.00     0.257 S 
HETATM    9  O1  UNL     1      -4.443   4.010  10.258  1.00  0.00    -0.201 OA
HETATM   10  O2  UNL     1      -2.760   2.560  11.229  1.00  0.00    -0.201 OA
BRANCH   8  11
HETATM   11  N2  UNL     1      -2.362   5.109  11.519  1.00  0.00    -0.324 N 
ATOM     12  H22 UNL     1      -2.210   5.705  12.331  1.00  0.00     0.169 HD
ATOM     13  H21 UNL     1      -1.855   5.160  10.635  1.00  0.00     0.169 HD
ENDBRANCH   8  11
ENDBRANCH   5   8
BRANCH   4  14
HETATM   14  C4  UNL     1      -5.202   6.049  12.713  1.00  0.00     0.419 C 
HETATM   15  F1  UNL     1      -4.186   6.920  12.922  1.00  0.00    -0.166 F 
HETATM   16  F2  UNL     1      -5.391   5.793  11.343  1.00  0.00    -0.166 F 
HETATM   17  F3  UNL     1      -6.390   6.703  13.080  1.00  0.00    -0.166 F 
ENDBRANCH   4  14
BRANCH   7  18
HETATM   18  S2  UNL     1      -4.874   0.938  15.803  1.00  0.00     0.258 S 
HETATM   19  O3  UNL     1      -4.798  -0.249  14.905  1.00  0.00    -0.201 OA
HETATM   20  O4  UNL     1      -3.642   0.948  16.667  1.00  0.00    -0.201 OA
BRANCH  18  21
HETATM   21  N3  UNL     1      -6.282   0.843  16.827  1.00  0.00    -0.324 N 
ATOM     22  H32 UNL     1      -6.546   1.538  17.526  1.00  0.00     0.169 HD
ATOM     23  H31 UNL     1      -6.783  -0.017  16.604  1.00  0.00     0.169 HD
ENDBRANCH  18  21
ENDBRANCH   7  18
TORSDOF 5
ENDMDL
