MODEL 1
REMARK VINA RESULT: -11.358671485      0.000      0.000
REMARK  10 active torsions:
REMARK  status: ('A' for Active; 'I' for Inactive)
REMARK    1  A    between atoms: C1_2  and  C2_4 
REMARK    2  A    between atoms: C4_6  and  O3_7 
REMARK    3  A    between atoms: O3_7  and  P1_8 
REMARK    4  A    between atoms: C5_12  and  O7_13 
REMARK    5  A    between atoms: C6_15  and  O8_16 
REMARK    6  A    between atoms: O8_16  and  C7_17 
REMARK    7  A    between atoms: C7_17  and  O9_18 
REMARK    8  A    between atoms: C7_17  and  C8_23 
REMARK    9  A    between atoms: C7_17  and  C9_26 
REMARK   10  A    between atoms: O9_18  and  P2_19 
ROOT
HETATM    1  C2  UNL     1      56.501  11.614  28.322  1.00  0.00     0.020 C 
HETATM    2  C3  UNL     1      55.485  10.770  28.467  1.00  0.00     0.022 C 
HETATM    3  C4  UNL     1      55.777   9.605  29.342  1.00  0.00     0.190 C 
HETATM    4  C5  UNL     1      57.071   9.003  28.882  1.00  0.00     0.180 C 
HETATM    5  C6  UNL     1      58.256   9.947  28.891  1.00  0.00     0.162 C 
HETATM    6  C10 UNL     1      57.800  11.398  28.980  1.00  0.00     0.080 C 
ENDROOT
BRANCH   5   7
HETATM    7  O8  UNL     1      59.131   9.722  29.865  1.00  0.00    -0.334 OA
BRANCH   7   8
HETATM    8  C7  UNL     1      60.275   8.975  29.671  1.00  0.00     0.326 C 
BRANCH   8   9
HETATM    9  O9  UNL     1      60.767   9.553  28.558  1.00  0.00    -0.228 OA
BRANCH   9  10
HETATM   10  P2  UNL     1      61.186   8.958  27.280  1.00  0.00     0.425 P 
HETATM   11  O10 UNL     1      61.920  10.491  26.933  1.00  0.00    -0.617 OA
HETATM   12  O11 UNL     1      59.695   8.730  26.730  1.00  0.00    -0.617 OA
HETATM   13  O12 UNL     1      62.135   7.774  27.850  1.00  0.00    -0.617 OA
ENDBRANCH   9  10
ENDBRANCH   8   9
BRANCH   8  14
HETATM   14  C8  UNL     1      61.233   9.120  30.802  1.00  0.00     0.245 C 
HETATM   15  O13 UNL     1      62.016  10.122  30.879  1.00  0.00    -0.644 OA
HETATM   16  O14 UNL     1      61.362   8.213  31.842  1.00  0.00    -0.644 OA
ENDBRANCH   8  14
BRANCH   8  17
HETATM   17  C9  UNL     1      59.987   7.497  29.528  1.00  0.00     0.427 C 
HETATM   18  F1  UNL     1      61.076   6.680  29.731  1.00  0.00    -0.208 F 
HETATM   19  F2  UNL     1      58.967   7.057  30.339  1.00  0.00    -0.208 F 
ENDBRANCH   8  17
ENDBRANCH   7   8
ENDBRANCH   5   7
BRANCH   4  20
HETATM   20  O7  UNL     1      56.863   8.471  27.620  1.00  0.00    -0.390 OA
ATOM     21  H7  UNL     1      57.714   8.319  27.226  1.00  0.00     0.210 HD
ENDBRANCH   4  20
BRANCH   3  22
HETATM   22  O3  UNL     1      54.786   8.677  29.172  1.00  0.00    -0.271 OA
BRANCH  22  23
HETATM   23  P1  UNL     1      54.423   8.141  27.706  1.00  0.00     0.422 P 
HETATM   24  O4  UNL     1      53.780   9.141  26.527  1.00  0.00    -0.617 OA
HETATM   25  O5  UNL     1      54.835   6.583  27.223  1.00  0.00    -0.617 OA
HETATM   26  O6  UNL     1      53.020   7.656  28.071  1.00  0.00    -0.617 OA
ENDBRANCH  22  23
ENDBRANCH   3  22
BRANCH   1  27
HETATM   27  C1  UNL     1      56.306  12.778  27.486  1.00  0.00     0.205 C 
HETATM   28  O1  UNL     1      55.381  12.802  26.663  1.00  0.00    -0.644 OA
HETATM   29  O2  UNL     1      57.131  13.898  27.567  1.00  0.00    -0.644 OA
ENDBRANCH   1  27
TORSDOF 10
ENDMDL
