MODEL 17
REMARK VINA RESULT: -6.775762206      2.777      6.460
REMARK  10 active torsions:
REMARK  status: ('A' for Active; 'I' for Inactive)
REMARK    1  A    between atoms: C1_2  and  C2_4 
REMARK    2  A    between atoms: C4_6  and  O3_7 
REMARK    3  A    between atoms: O3_7  and  P1_8 
REMARK    4  A    between atoms: C5_12  and  O7_13 
REMARK    5  A    between atoms: C6_15  and  O8_16 
REMARK    6  A    between atoms: O8_16  and  C7_17 
REMARK    7  A    between atoms: C7_17  and  O9_18 
REMARK    8  A    between atoms: C7_17  and  C8_23 
REMARK    9  A    between atoms: C7_17  and  C9_26 
REMARK   10  A    between atoms: O9_18  and  P2_19 
ROOT
HETATM    1  C2  UNL     1      59.884   8.956  30.289  1.00  0.00     0.020 C 
HETATM    2  C3  UNL     1      59.828  10.262  30.527  1.00  0.00     0.022 C 
HETATM    3  C4  UNL     1      58.474  10.855  30.372  1.00  0.00     0.190 C 
HETATM    4  C5  UNL     1      57.929  10.403  29.050  1.00  0.00     0.180 C 
HETATM    5  C6  UNL     1      57.842   8.901  28.871  1.00  0.00     0.162 C 
HETATM    6  C10 UNL     1      58.696   8.177  29.904  1.00  0.00     0.080 C 
ENDROOT
BRANCH   5   7
HETATM    7  O8  UNL     1      56.609   8.411  28.928  1.00  0.00    -0.334 OA
BRANCH   7   8
HETATM    8  C7  UNL     1      55.818   8.274  27.805  1.00  0.00     0.326 C 
BRANCH   8   9
HETATM    9  O9  UNL     1      55.746   9.552  27.389  1.00  0.00    -0.228 OA
BRANCH   9  10
HETATM   10  P2  UNL     1      54.696  10.562  27.591  1.00  0.00     0.425 P 
HETATM   11  O10 UNL     1      53.809   9.727  26.355  1.00  0.00    -0.617 OA
HETATM   12  O11 UNL     1      55.595  11.805  27.118  1.00  0.00    -0.617 OA
HETATM   13  O12 UNL     1      54.328  10.242  29.137  1.00  0.00    -0.617 OA
ENDBRANCH   9  10
ENDBRANCH   8   9
BRANCH   8  14
HETATM   14  C8  UNL     1      56.466   7.422  26.768  1.00  0.00     0.245 C 
HETATM   15  O13 UNL     1      56.292   7.649  25.526  1.00  0.00    -0.644 OA
HETATM   16  O14 UNL     1      57.291   6.342  27.043  1.00  0.00    -0.644 OA
ENDBRANCH   8  14
BRANCH   8  17
HETATM   17  C9  UNL     1      54.478   7.643  28.113  1.00  0.00     0.427 C 
HETATM   18  F1  UNL     1      54.306   6.381  27.589  1.00  0.00    -0.208 F 
HETATM   19  F2  UNL     1      54.194   7.588  29.458  1.00  0.00    -0.208 F 
ENDBRANCH   8  17
ENDBRANCH   7   8
ENDBRANCH   5   7
BRANCH   4  20
HETATM   20  O7  UNL     1      58.700  10.983  28.055  1.00  0.00    -0.390 OA
ATOM     21  H7  UNL     1      58.957  11.847  28.354  1.00  0.00     0.210 HD
ENDBRANCH   4  20
BRANCH   3  22
HETATM   22  O3  UNL     1      58.599  12.217  30.343  1.00  0.00    -0.271 OA
BRANCH  22  23
HETATM   23  P1  UNL     1      59.299  12.990  31.560  1.00  0.00     0.422 P 
HETATM   24  O4  UNL     1      59.145  12.478  33.147  1.00  0.00    -0.617 OA
HETATM   25  O5  UNL     1      60.370  14.258  31.283  1.00  0.00    -0.617 OA
HETATM   26  O6  UNL     1      58.165  13.995  31.765  1.00  0.00    -0.617 OA
ENDBRANCH  22  23
ENDBRANCH   3  22
BRANCH   1  27
HETATM   27  C1  UNL     1      61.164   8.294  30.417  1.00  0.00     0.205 C 
HETATM   28  O1  UNL     1      61.799   8.373  31.477  1.00  0.00    -0.644 OA
HETATM   29  O2  UNL     1      61.727   7.556  29.377  1.00  0.00    -0.644 OA
ENDBRANCH   1  27
TORSDOF 10
ENDMDL
