MODEL 2
REMARK VINA RESULT: -9.459847660      2.849      6.753
REMARK  10 active torsions:
REMARK  status: ('A' for Active; 'I' for Inactive)
REMARK    1  A    between atoms: C1_2  and  C2_4 
REMARK    2  A    between atoms: C4_6  and  O3_7 
REMARK    3  A    between atoms: O3_7  and  P1_8 
REMARK    4  A    between atoms: C5_12  and  O7_13 
REMARK    5  A    between atoms: C6_15  and  O8_16 
REMARK    6  A    between atoms: O8_16  and  C7_17 
REMARK    7  A    between atoms: C7_17  and  O9_18 
REMARK    8  A    between atoms: C7_17  and  C8_23 
REMARK    9  A    between atoms: C7_17  and  C9_26 
REMARK   10  A    between atoms: O9_18  and  P2_19 
ROOT
HETATM    1  C2  UNL     1    -132.584  29.852 126.689  1.00  0.00     0.020 C 
HETATM    2  C3  UNL     1    -133.045  30.422 127.797  1.00  0.00     0.022 C 
HETATM    3  C4  UNL     1    -132.441  31.745 128.102  1.00  0.00     0.190 C 
HETATM    4  C5  UNL     1    -130.952  31.599 128.008  1.00  0.00     0.180 C 
HETATM    5  C6  UNL     1    -130.438  31.109 126.669  1.00  0.00     0.162 C 
HETATM    6  C10 UNL     1    -131.561  30.492 125.845  1.00  0.00     0.080 C 
ENDROOT
BRANCH   5   7
HETATM    7  O8  UNL     1    -129.843  32.041 125.934  1.00  0.00    -0.334 OA
BRANCH   7   8
HETATM    8  C7  UNL     1    -128.470  32.155 125.859  1.00  0.00     0.326 C 
BRANCH   8   9
HETATM    9  O9  UNL     1    -128.188  31.205 124.947  1.00  0.00    -0.228 OA
BRANCH   9  10
HETATM   10  P2  UNL     1    -127.610  31.318 123.599  1.00  0.00     0.425 P 
HETATM   11  O10 UNL     1    -128.152  29.689 123.350  1.00  0.00    -0.617 OA
HETATM   12  O11 UNL     1    -126.098  31.506 124.104  1.00  0.00    -0.617 OA
HETATM   13  O12 UNL     1    -128.534  32.521 123.027  1.00  0.00    -0.617 OA
ENDBRANCH   9  10
ENDBRANCH   8   9
BRANCH   8  14
HETATM   14  C8  UNL     1    -128.048  33.496 125.363  1.00  0.00     0.245 C 
HETATM   15  O13 UNL     1    -128.888  34.299 124.840  1.00  0.00    -0.644 OA
HETATM   16  O14 UNL     1    -126.751  33.981 125.421  1.00  0.00    -0.644 OA
ENDBRANCH   8  14
BRANCH   8  17
HETATM   17  C9  UNL     1    -127.796  31.953 127.198  1.00  0.00     0.427 C 
HETATM   18  F1  UNL     1    -126.431  31.787 127.131  1.00  0.00    -0.208 F 
HETATM   19  F2  UNL     1    -128.061  32.955 128.102  1.00  0.00    -0.208 F 
ENDBRANCH   8  17
ENDBRANCH   7   8
ENDBRANCH   5   7
BRANCH   4  20
HETATM   20  O7  UNL     1    -130.545  30.764 129.036  1.00  0.00    -0.390 OA
ATOM     21  H7  UNL     1    -129.863  30.196 128.696  1.00  0.00     0.210 HD
ENDBRANCH   4  20
BRANCH   3  22
HETATM   22  O3  UNL     1    -132.760  32.081 129.389  1.00  0.00    -0.271 OA
BRANCH  22  23
HETATM   23  P1  UNL     1    -132.013  33.298 130.116  1.00  0.00     0.422 P 
HETATM   24  O4  UNL     1    -130.813  33.052 131.258  1.00  0.00    -0.617 OA
HETATM   25  O5  UNL     1    -132.277  34.889 129.638  1.00  0.00    -0.617 OA
HETATM   26  O6  UNL     1    -133.049  33.462 131.228  1.00  0.00    -0.617 OA
ENDBRANCH  22  23
ENDBRANCH   3  22
BRANCH   1  27
HETATM   27  C1  UNL     1    -133.117  28.561 126.314  1.00  0.00     0.205 C 
HETATM   28  O1  UNL     1    -132.763  27.544 126.926  1.00  0.00    -0.644 OA
HETATM   29  O2  UNL     1    -134.030  28.407 125.273  1.00  0.00    -0.644 OA
ENDBRANCH   1  27
TORSDOF 10
ENDMDL
