MODEL 3
REMARK VINA RESULT: -9.114913899      2.987      6.789
REMARK  10 active torsions:
REMARK  status: ('A' for Active; 'I' for Inactive)
REMARK    1  A    between atoms: C1_2  and  C2_4 
REMARK    2  A    between atoms: C4_6  and  O3_7 
REMARK    3  A    between atoms: O3_7  and  P1_8 
REMARK    4  A    between atoms: C5_12  and  O7_13 
REMARK    5  A    between atoms: C6_15  and  O8_16 
REMARK    6  A    between atoms: O8_16  and  C7_17 
REMARK    7  A    between atoms: C7_17  and  O9_18 
REMARK    8  A    between atoms: C7_17  and  C8_23 
REMARK    9  A    between atoms: C7_17  and  C9_26 
REMARK   10  A    between atoms: O9_18  and  P2_19 
ROOT
HETATM    1  C2  UNL     1    -131.036  30.162 127.318  1.00  0.00     0.020 C 
HETATM    2  C3  UNL     1    -131.284  30.781 128.468  1.00  0.00     0.022 C 
HETATM    3  C4  UNL     1    -130.927  32.223 128.476  1.00  0.00     0.190 C 
HETATM    4  C5  UNL     1    -129.528  32.349 127.951  1.00  0.00     0.180 C 
HETATM    5  C6  UNL     1    -129.312  31.787 126.560  1.00  0.00     0.162 C 
HETATM    6  C10 UNL     1    -130.455  30.862 126.160  1.00  0.00     0.080 C 
ENDROOT
BRANCH   5   7
HETATM    7  O8  UNL     1    -129.166  32.706 125.613  1.00  0.00    -0.334 OA
BRANCH   7   8
HETATM    8  C7  UNL     1    -128.020  32.801 124.849  1.00  0.00     0.326 C 
BRANCH   8   9
HETATM    9  O9  UNL     1    -128.297  31.921 123.869  1.00  0.00    -0.228 OA
BRANCH   9  10
HETATM   10  P2  UNL     1    -127.417  30.987 123.150  1.00  0.00     0.425 P 
HETATM   11  O10 UNL     1    -127.985  31.744 121.696  1.00  0.00    -0.617 OA
HETATM   12  O11 UNL     1    -128.191  29.663 123.624  1.00  0.00    -0.617 OA
HETATM   13  O12 UNL     1    -125.990  31.469 123.749  1.00  0.00    -0.617 OA
ENDBRANCH   9  10
ENDBRANCH   8   9
BRANCH   8  14
HETATM   14  C8  UNL     1    -127.837  34.169 124.287  1.00  0.00     0.245 C 
HETATM   15  O13 UNL     1    -128.654  35.108 124.560  1.00  0.00    -0.644 OA
HETATM   16  O14 UNL     1    -126.801  34.539 123.445  1.00  0.00    -0.644 OA
ENDBRANCH   8  14
BRANCH   8  17
HETATM   17  C9  UNL     1    -126.769  32.482 125.637  1.00  0.00     0.427 C 
HETATM   18  F1  UNL     1    -126.297  33.522 126.406  1.00  0.00    -0.208 F 
HETATM   19  F2  UNL     1    -126.897  31.377 126.445  1.00  0.00    -0.208 F 
ENDBRANCH   8  17
ENDBRANCH   7   8
ENDBRANCH   5   7
BRANCH   4  20
HETATM   20  O7  UNL     1    -128.677  31.755 128.869  1.00  0.00    -0.390 OA
ATOM     21  H7  UNL     1    -128.695  32.278 129.661  1.00  0.00     0.210 HD
ENDBRANCH   4  20
BRANCH   3  22
HETATM   22  O3  UNL     1    -130.941  32.665 129.771  1.00  0.00    -0.271 OA
BRANCH  22  23
HETATM   23  P1  UNL     1    -132.040  33.728 130.251  1.00  0.00     0.422 P 
HETATM   24  O4  UNL     1    -132.370  35.121 129.382  1.00  0.00    -0.617 OA
HETATM   25  O5  UNL     1    -133.043  33.410 131.563  1.00  0.00    -0.617 OA
HETATM   26  O6  UNL     1    -131.097  34.512 131.164  1.00  0.00    -0.617 OA
ENDBRANCH  22  23
ENDBRANCH   3  22
BRANCH   1  27
HETATM   27  C1  UNL     1    -131.354  28.755 127.219  1.00  0.00     0.205 C 
HETATM   28  O1  UNL     1    -132.365  28.390 126.606  1.00  0.00    -0.644 OA
HETATM   29  O2  UNL     1    -130.555  27.770 127.797  1.00  0.00    -0.644 OA
ENDBRANCH   1  27
TORSDOF 10
ENDMDL
