MODEL 6
REMARK VINA RESULT: -8.981995407      2.697      6.864
REMARK  10 active torsions:
REMARK  status: ('A' for Active; 'I' for Inactive)
REMARK    1  A    between atoms: C1_2  and  C2_4 
REMARK    2  A    between atoms: C4_6  and  O3_7 
REMARK    3  A    between atoms: O3_7  and  P1_8 
REMARK    4  A    between atoms: C5_12  and  O7_13 
REMARK    5  A    between atoms: C6_15  and  O8_16 
REMARK    6  A    between atoms: O8_16  and  C7_17 
REMARK    7  A    between atoms: C7_17  and  O9_18 
REMARK    8  A    between atoms: C7_17  and  C8_23 
REMARK    9  A    between atoms: C7_17  and  C9_26 
REMARK   10  A    between atoms: O9_18  and  P2_19 
ROOT
HETATM    1  C2  UNL     1    -132.579  29.973 126.662  1.00  0.00     0.020 C 
HETATM    2  C3  UNL     1    -133.022  30.493 127.802  1.00  0.00     0.022 C 
HETATM    3  C4  UNL     1    -132.477  31.840 128.112  1.00  0.00     0.190 C 
HETATM    4  C5  UNL     1    -130.988  31.777 127.955  1.00  0.00     0.180 C 
HETATM    5  C6  UNL     1    -130.505  31.344 126.585  1.00  0.00     0.162 C 
HETATM    6  C10 UNL     1    -131.627  30.685 125.793  1.00  0.00     0.080 C 
ENDROOT
BRANCH   5   7
HETATM    7  O8  UNL     1    -129.992  32.323 125.849  1.00  0.00    -0.334 OA
BRANCH   7   8
HETATM    8  C7  UNL     1    -128.643  32.405 125.569  1.00  0.00     0.326 C 
BRANCH   8   9
HETATM    9  O9  UNL     1    -128.557  33.669 125.113  1.00  0.00    -0.228 OA
BRANCH   9  10
HETATM   10  P2  UNL     1    -128.067  34.187 123.826  1.00  0.00     0.425 P 
HETATM   11  O10 UNL     1    -128.606  35.743 124.372  1.00  0.00    -0.617 OA
HETATM   12  O11 UNL     1    -129.094  33.341 122.928  1.00  0.00    -0.617 OA
HETATM   13  O12 UNL     1    -126.494  33.828 123.990  1.00  0.00    -0.617 OA
ENDBRANCH   9  10
ENDBRANCH   8   9
BRANCH   8  14
HETATM   14  C8  UNL     1    -127.809  32.233 126.792  1.00  0.00     0.245 C 
HETATM   15  O13 UNL     1    -126.997  33.140 127.169  1.00  0.00    -0.644 OA
HETATM   16  O14 UNL     1    -127.834  31.112 127.607  1.00  0.00    -0.644 OA
ENDBRANCH   8  14
BRANCH   8  17
HETATM   17  C9  UNL     1    -128.190  31.354 124.580  1.00  0.00     0.427 C 
HETATM   18  F1  UNL     1    -126.846  31.059 124.634  1.00  0.00    -0.208 F 
HETATM   19  F2  UNL     1    -128.890  30.174 124.675  1.00  0.00    -0.208 F 
ENDBRANCH   8  17
ENDBRANCH   7   8
ENDBRANCH   5   7
BRANCH   4  20
HETATM   20  O7  UNL     1    -130.494  30.944 128.946  1.00  0.00    -0.390 OA
ATOM     21  H7  UNL     1    -130.733  31.319 129.785  1.00  0.00     0.210 HD
ENDBRANCH   4  20
BRANCH   3  22
HETATM   22  O3  UNL     1    -132.760  32.131 129.420  1.00  0.00    -0.271 OA
BRANCH  22  23
HETATM   23  P1  UNL     1    -132.026  33.353 130.152  1.00  0.00     0.422 P 
HETATM   24  O4  UNL     1    -130.835  33.115 131.305  1.00  0.00    -0.617 OA
HETATM   25  O5  UNL     1    -132.296  34.942 129.672  1.00  0.00    -0.617 OA
HETATM   26  O6  UNL     1    -133.073  33.510 131.256  1.00  0.00    -0.617 OA
ENDBRANCH  22  23
ENDBRANCH   3  22
BRANCH   1  27
HETATM   27  C1  UNL     1    -133.057  28.662 126.280  1.00  0.00     0.205 C 
HETATM   28  O1  UNL     1    -132.623  27.654 126.851  1.00  0.00    -0.644 OA
HETATM   29  O2  UNL     1    -134.005  28.482 125.274  1.00  0.00    -0.644 OA
ENDBRANCH   1  27
TORSDOF 10
ENDMDL
