MODEL 16
REMARK VINA RESULT: -7.030995580      2.060      6.186
REMARK  8 active torsions:
REMARK  status: ('A' for Active; 'I' for Inactive)
REMARK    1  A    between atoms: C2_2  and  O1_3 
REMARK    2  A    between atoms: C2_2  and  C10_20 
REMARK    3  A    between atoms: C2_2  and  P2_23 
REMARK    4  A    between atoms: O1_3  and  C3_4 
REMARK    5  A    between atoms: C5_6  and  C6_7 
REMARK    6  A    between atoms: C8_11  and  O4_12 
REMARK    7  A    between atoms: O4_12  and  P1_13 
REMARK    8  A    between atoms: C9_17  and  O8_18 
ROOT
HETATM    1  C3  UNL     1    -128.585  32.633 125.288  1.00  0.00     0.160 C 
HETATM    2  C4  UNL     1    -127.207  32.058 125.660  1.00  0.00     0.080 C 
HETATM    3  C5  UNL     1    -127.139  32.237 127.149  1.00  0.00     0.020 C 
HETATM    4  C7  UNL     1    -128.217  32.114 127.871  1.00  0.00     0.022 C 
HETATM    5  C8  UNL     1    -129.583  31.797 127.341  1.00  0.00     0.190 C 
HETATM    6  C9  UNL     1    -129.529  31.545 125.853  1.00  0.00     0.180 C 
ENDROOT
BRANCH   1   7
HETATM    7  O1  UNL     1    -128.766  32.778 123.971  1.00  0.00    -0.349 OA
BRANCH   7   8
HETATM    8  C2  UNL     1    -127.710  33.180 123.168  1.00  0.00     0.259 C 
HETATM    9  C1  UNL     1    -126.547  32.246 123.555  1.00  0.00     0.074 C 
BRANCH   8  10
HETATM   10  C10 UNL     1    -127.952  32.868 121.722  1.00  0.00     0.223 C 
HETATM   11  O9  UNL     1    -128.548  33.632 120.927  1.00  0.00    -0.645 OA
HETATM   12  O10 UNL     1    -127.510  31.665 121.168  1.00  0.00    -0.645 OA
ENDBRANCH   8  10
BRANCH   8  13
HETATM   13  P2  UNL     1    -127.282  34.865 123.230  1.00  0.00     0.306 P 
HETATM   14  O11 UNL     1    -126.507  34.859 124.547  1.00  0.00    -0.637 OA
HETATM   15  O12 UNL     1    -125.898  35.410 122.458  1.00  0.00    -0.637 OA
HETATM   16  O13 UNL     1    -128.333  35.978 123.885  1.00  0.00    -0.637 OA
ENDBRANCH   8  13
ENDBRANCH   7   8
ENDBRANCH   1   7
BRANCH   6  17
HETATM   17  O8  UNL     1    -130.776  31.574 125.299  1.00  0.00    -0.390 OA
ATOM     18  H8  UNL     1    -131.377  30.958 125.699  1.00  0.00     0.210 HD
ENDBRANCH   6  17
BRANCH   3  19
HETATM   19  C6  UNL     1    -125.847  32.544 127.736  1.00  0.00     0.205 C 
HETATM   20  O2  UNL     1    -124.785  32.297 127.137  1.00  0.00    -0.644 OA
HETATM   21  O3  UNL     1    -125.733  33.130 128.994  1.00  0.00    -0.644 OA
ENDBRANCH   3  19
BRANCH   5  22
HETATM   22  O4  UNL     1    -130.417  32.861 127.558  1.00  0.00    -0.271 OA
BRANCH  22  23
HETATM   23  P1  UNL     1    -131.328  32.555 128.930  1.00  0.00     0.422 P 
HETATM   24  O5  UNL     1    -131.791  33.998 128.896  1.00  0.00    -0.617 OA
HETATM   25  O6  UNL     1    -132.778  31.831 128.821  1.00  0.00    -0.617 OA
HETATM   26  O7  UNL     1    -130.566  32.735 130.395  1.00  0.00    -0.617 OA
ENDBRANCH  22  23
ENDBRANCH   5  22
TORSDOF 8
ENDMDL
