MODEL 6
REMARK VINA RESULT: -9.573213206      1.285      2.261
REMARK  8 active torsions:
REMARK  status: ('A' for Active; 'I' for Inactive)
REMARK    1  A    between atoms: C2_2  and  O1_3 
REMARK    2  A    between atoms: C2_2  and  C10_20 
REMARK    3  A    between atoms: C2_2  and  P2_23 
REMARK    4  A    between atoms: O1_3  and  C3_4 
REMARK    5  A    between atoms: C5_6  and  C6_7 
REMARK    6  A    between atoms: C8_11  and  O4_12 
REMARK    7  A    between atoms: O4_12  and  P1_13 
REMARK    8  A    between atoms: C9_17  and  O8_18 
ROOT
HETATM    1  C3  UNL     1    -129.818  31.367 126.676  1.00  0.00     0.160 C 
HETATM    2  C4  UNL     1    -129.057  32.154 127.757  1.00  0.00     0.080 C 
HETATM    3  C5  UNL     1    -127.620  32.030 127.341  1.00  0.00     0.020 C 
HETATM    4  C7  UNL     1    -127.307  32.008 126.076  1.00  0.00     0.022 C 
HETATM    5  C8  UNL     1    -128.281  32.099 124.941  1.00  0.00     0.190 C 
HETATM    6  C9  UNL     1    -129.683  32.315 125.460  1.00  0.00     0.180 C 
ENDROOT
BRANCH   1   7
HETATM    7  O1  UNL     1    -131.105  31.159 126.973  1.00  0.00    -0.349 OA
BRANCH   7   8
HETATM    8  C2  UNL     1    -131.691  29.934 126.693  1.00  0.00     0.259 C 
HETATM    9  C1  UNL     1    -133.199  30.238 126.585  1.00  0.00     0.074 C 
BRANCH   8  10
HETATM   10  C10 UNL     1    -131.329  29.436 125.326  1.00  0.00     0.223 C 
HETATM   11  O9  UNL     1    -130.221  28.930 125.032  1.00  0.00    -0.645 OA
HETATM   12  O10 UNL     1    -132.243  29.515 124.273  1.00  0.00    -0.645 OA
ENDBRANCH   8  10
BRANCH   8  13
HETATM   13  P2  UNL     1    -131.334  28.632 127.788  1.00  0.00     0.306 P 
HETATM   14  O11 UNL     1    -131.907  27.476 126.969  1.00  0.00    -0.637 OA
HETATM   15  O12 UNL     1    -129.838  27.879 127.740  1.00  0.00    -0.637 OA
HETATM   16  O13 UNL     1    -132.392  28.249 129.017  1.00  0.00    -0.637 OA
ENDBRANCH   8  13
ENDBRANCH   7   8
ENDBRANCH   1   7
BRANCH   6  17
HETATM   17  O8  UNL     1    -130.614  32.081 124.491  1.00  0.00    -0.390 OA
ATOM     18  H8  UNL     1    -130.470  32.592 123.704  1.00  0.00     0.210 HD
ENDBRANCH   6  17
BRANCH   3  19
HETATM   19  C6  UNL     1    -126.617  31.938 128.387  1.00  0.00     0.205 C 
HETATM   20  O2  UNL     1    -125.403  31.879 128.120  1.00  0.00    -0.644 OA
HETATM   21  O3  UNL     1    -126.963  31.914 129.735  1.00  0.00    -0.644 OA
ENDBRANCH   3  19
BRANCH   5  22
HETATM   22  O4  UNL     1    -128.271  30.928 124.232  1.00  0.00    -0.271 OA
BRANCH  22  23
HETATM   23  P1  UNL     1    -127.212  31.091 122.944  1.00  0.00     0.422 P 
HETATM   24  O5  UNL     1    -127.901  32.393 122.593  1.00  0.00    -0.617 OA
HETATM   25  O6  UNL     1    -125.709  31.664 123.171  1.00  0.00    -0.617 OA
HETATM   26  O7  UNL     1    -127.647  30.365 121.515  1.00  0.00    -0.617 OA
ENDBRANCH  22  23
ENDBRANCH   5  22
TORSDOF 8
ENDMDL
