MODEL 14
REMARK VINA RESULT: -7.422149585      2.118      5.851
REMARK  8 active torsions:
REMARK  status: ('A' for Active; 'I' for Inactive)
REMARK    1  A    between atoms: C2_2  and  O1_3 
REMARK    2  A    between atoms: C2_2  and  C10_20 
REMARK    3  A    between atoms: C2_2  and  P2_23 
REMARK    4  A    between atoms: O1_3  and  C3_4 
REMARK    5  A    between atoms: C5_6  and  C6_7 
REMARK    6  A    between atoms: C8_11  and  O4_12 
REMARK    7  A    between atoms: O4_12  and  P1_13 
REMARK    8  A    between atoms: C9_17  and  O8_18 
ROOT
HETATM    1  C3  UNL     1    -129.214  31.720 124.912  1.00  0.00     0.160 C 
HETATM    2  C4  UNL     1    -130.650  31.261 125.219  1.00  0.00     0.080 C 
HETATM    3  C5  UNL     1    -130.523  30.552 126.535  1.00  0.00     0.020 C 
HETATM    4  C7  UNL     1    -129.670  30.976 127.424  1.00  0.00     0.022 C 
HETATM    5  C8  UNL     1    -128.761  32.156 127.259  1.00  0.00     0.190 C 
HETATM    6  C9  UNL     1    -129.031  32.854 125.948  1.00  0.00     0.180 C 
ENDROOT
BRANCH   1   7
HETATM    7  O1  UNL     1    -129.056  32.185 123.668  1.00  0.00    -0.349 OA
BRANCH   7   8
HETATM    8  C2  UNL     1    -127.942  31.820 122.928  1.00  0.00     0.259 C 
HETATM    9  C1  UNL     1    -128.162  32.464 121.545  1.00  0.00     0.074 C 
BRANCH   8  10
HETATM   10  C10 UNL     1    -126.692  32.476 123.432  1.00  0.00     0.223 C 
HETATM   11  O9  UNL     1    -125.919  31.964 124.276  1.00  0.00    -0.645 OA
HETATM   12  O10 UNL     1    -126.311  33.737 122.969  1.00  0.00    -0.645 OA
ENDBRANCH   8  10
BRANCH   8  13
HETATM   13  P2  UNL     1    -127.589  30.119 122.841  1.00  0.00     0.306 P 
HETATM   14  O11 UNL     1    -128.063  29.857 121.412  1.00  0.00    -0.637 OA
HETATM   15  O12 UNL     1    -126.061  29.599 122.392  1.00  0.00    -0.637 OA
HETATM   16  O13 UNL     1    -128.697  29.000 123.384  1.00  0.00    -0.637 OA
ENDBRANCH   8  13
ENDBRANCH   7   8
ENDBRANCH   1   7
BRANCH   6  17
HETATM   17  O8  UNL     1    -128.023  33.717 125.627  1.00  0.00    -0.390 OA
ATOM     18  H8  UNL     1    -127.224  33.277 125.364  1.00  0.00     0.210 HD
ENDBRANCH   6  17
BRANCH   3  19
HETATM   19  C6  UNL     1    -131.373  29.398 126.768  1.00  0.00     0.205 C 
HETATM   20  O2  UNL     1    -131.336  28.402 126.024  1.00  0.00    -0.644 OA
HETATM   21  O3  UNL     1    -132.268  29.349 127.834  1.00  0.00    -0.644 OA
ENDBRANCH   3  19
BRANCH   5  22
HETATM   22  O4  UNL     1    -127.459  31.735 127.252  1.00  0.00    -0.271 OA
BRANCH  22  23
HETATM   23  P1  UNL     1    -126.726  32.235 128.673  1.00  0.00     0.422 P 
HETATM   24  O5  UNL     1    -125.768  31.068 128.544  1.00  0.00    -0.617 OA
HETATM   25  O6  UNL     1    -125.640  33.444 128.668  1.00  0.00    -0.617 OA
HETATM   26  O7  UNL     1    -127.373  31.669 130.094  1.00  0.00    -0.617 OA
ENDBRANCH  22  23
ENDBRANCH   5  22
TORSDOF 8
ENDMDL
