MODEL 2
REMARK VINA RESULT: -9.993007380      0.570      1.076
REMARK  8 active torsions:
REMARK  status: ('A' for Active; 'I' for Inactive)
REMARK    1  A    between atoms: C2_2  and  O1_3 
REMARK    2  A    between atoms: C2_2  and  C10_20 
REMARK    3  A    between atoms: C2_2  and  P2_23 
REMARK    4  A    between atoms: O1_3  and  C3_4 
REMARK    5  A    between atoms: C5_6  and  C6_7 
REMARK    6  A    between atoms: C8_11  and  O4_12 
REMARK    7  A    between atoms: O4_12  and  P1_13 
REMARK    8  A    between atoms: C9_17  and  O8_18 
ROOT
HETATM    1  C3  UNL     1    -129.757  31.596 126.538  1.00  0.00     0.160 C 
HETATM    2  C4  UNL     1    -128.943  32.345 127.609  1.00  0.00     0.080 C 
HETATM    3  C5  UNL     1    -127.518  32.080 127.220  1.00  0.00     0.020 C 
HETATM    4  C7  UNL     1    -127.191  31.992 125.961  1.00  0.00     0.022 C 
HETATM    5  C8  UNL     1    -128.137  32.135 124.808  1.00  0.00     0.190 C 
HETATM    6  C9  UNL     1    -129.520  32.490 125.298  1.00  0.00     0.180 C 
ENDROOT
BRANCH   1   7
HETATM    7  O1  UNL     1    -131.062  31.513 126.820  1.00  0.00    -0.349 OA
BRANCH   7   8
HETATM    8  C2  UNL     1    -131.692  30.278 126.822  1.00  0.00     0.259 C 
HETATM    9  C1  UNL     1    -131.665  29.823 125.350  1.00  0.00     0.074 C 
BRANCH   8  10
HETATM   10  C10 UNL     1    -130.884  29.235 127.533  1.00  0.00     0.223 C 
HETATM   11  O9  UNL     1    -130.594  29.279 128.752  1.00  0.00    -0.645 OA
HETATM   12  O10 UNL     1    -130.395  28.121 126.847  1.00  0.00    -0.645 OA
ENDBRANCH   8  10
BRANCH   8  13
HETATM   13  P2  UNL     1    -133.280  30.217 127.527  1.00  0.00     0.306 P 
HETATM   14  O11 UNL     1    -133.232  31.522 128.321  1.00  0.00    -0.637 OA
HETATM   15  O12 UNL     1    -134.598  30.818 126.685  1.00  0.00    -0.637 OA
HETATM   16  O13 UNL     1    -133.539  29.393 128.951  1.00  0.00    -0.637 OA
ENDBRANCH   8  13
ENDBRANCH   7   8
ENDBRANCH   1   7
BRANCH   6  17
HETATM   17  O8  UNL     1    -130.456  32.312 124.321  1.00  0.00    -0.390 OA
ATOM     18  H8  UNL     1    -130.516  33.047 123.723  1.00  0.00     0.210 HD
ENDBRANCH   6  17
BRANCH   3  19
HETATM   19  C6  UNL     1    -126.542  31.931 128.284  1.00  0.00     0.205 C 
HETATM   20  O2  UNL     1    -125.330  31.790 128.040  1.00  0.00    -0.644 OA
HETATM   21  O3  UNL     1    -126.912  31.940 129.627  1.00  0.00    -0.644 OA
ENDBRANCH   3  19
BRANCH   5  22
HETATM   22  O4  UNL     1    -128.222  30.947 124.134  1.00  0.00    -0.271 OA
BRANCH  22  23
HETATM   23  P1  UNL     1    -127.152  30.985 122.845  1.00  0.00     0.422 P 
HETATM   24  O5  UNL     1    -127.807  32.273 122.390  1.00  0.00    -0.617 OA
HETATM   25  O6  UNL     1    -125.637  31.537 123.038  1.00  0.00    -0.617 OA
HETATM   26  O7  UNL     1    -127.597  30.162 121.473  1.00  0.00    -0.617 OA
ENDBRANCH  22  23
ENDBRANCH   5  22
TORSDOF 8
ENDMDL
