MODEL 3
REMARK VINA RESULT: -9.870386904      1.139      1.882
REMARK  8 active torsions:
REMARK  status: ('A' for Active; 'I' for Inactive)
REMARK    1  A    between atoms: C2_2  and  O1_3 
REMARK    2  A    between atoms: C2_2  and  C10_20 
REMARK    3  A    between atoms: C2_2  and  P2_23 
REMARK    4  A    between atoms: O1_3  and  C3_4 
REMARK    5  A    between atoms: C5_6  and  C6_7 
REMARK    6  A    between atoms: C8_11  and  O4_12 
REMARK    7  A    between atoms: O4_12  and  P1_13 
REMARK    8  A    between atoms: C9_17  and  O8_18 
ROOT
HETATM    1  C3  UNL     1    -129.659  31.412 126.462  1.00  0.00     0.160 C 
HETATM    2  C4  UNL     1    -129.068  31.998 127.757  1.00  0.00     0.080 C 
HETATM    3  C5  UNL     1    -127.594  32.057 127.478  1.00  0.00     0.020 C 
HETATM    4  C7  UNL     1    -127.168  32.326 126.276  1.00  0.00     0.022 C 
HETATM    5  C8  UNL     1    -128.040  32.594 125.088  1.00  0.00     0.190 C 
HETATM    6  C9  UNL     1    -129.496  32.604 125.489  1.00  0.00     0.180 C 
ENDROOT
BRANCH   1   7
HETATM    7  O1  UNL     1    -130.946  31.064 126.572  1.00  0.00    -0.349 OA
BRANCH   7   8
HETATM    8  C2  UNL     1    -131.340  29.769 126.272  1.00  0.00     0.259 C 
HETATM    9  C1  UNL     1    -132.726  29.926 125.615  1.00  0.00     0.074 C 
BRANCH   8  10
HETATM   10  C10 UNL     1    -130.500  29.161 125.191  1.00  0.00     0.223 C 
HETATM   11  O9  UNL     1    -130.427  29.605 124.021  1.00  0.00    -0.645 OA
HETATM   12  O10 UNL     1    -129.725  28.026 125.442  1.00  0.00    -0.645 OA
ENDBRANCH   8  10
BRANCH   8  13
HETATM   13  P2  UNL     1    -131.332  28.629 127.585  1.00  0.00     0.306 P 
HETATM   14  O11 UNL     1    -132.626  29.061 128.275  1.00  0.00    -0.637 OA
HETATM   15  O12 UNL     1    -131.993  27.104 127.378  1.00  0.00    -0.637 OA
HETATM   16  O13 UNL     1    -130.503  28.967 128.990  1.00  0.00    -0.637 OA
ENDBRANCH   8  13
ENDBRANCH   7   8
ENDBRANCH   1   7
BRANCH   6  17
HETATM   17  O8  UNL     1    -130.313  32.524 124.399  1.00  0.00    -0.390 OA
ATOM     18  H8  UNL     1    -130.031  33.074 123.679  1.00  0.00     0.210 HD
ENDBRANCH   6  17
BRANCH   3  19
HETATM   19  C6  UNL     1    -126.685  31.809 128.583  1.00  0.00     0.205 C 
HETATM   20  O2  UNL     1    -127.051  31.931 129.766  1.00  0.00    -0.644 OA
HETATM   21  O3  UNL     1    -125.364  31.422 128.374  1.00  0.00    -0.644 OA
ENDBRANCH   3  19
BRANCH   5  22
HETATM   22  O4  UNL     1    -127.867  31.604 124.158  1.00  0.00    -0.271 OA
BRANCH  22  23
HETATM   23  P1  UNL     1    -127.143  32.266 122.799  1.00  0.00     0.422 P 
HETATM   24  O5  UNL     1    -125.898  31.465 123.120  1.00  0.00    -0.617 OA
HETATM   25  O6  UNL     1    -127.446  31.666 121.320  1.00  0.00    -0.617 OA
HETATM   26  O7  UNL     1    -126.370  33.723 122.992  1.00  0.00    -0.617 OA
ENDBRANCH  22  23
ENDBRANCH   5  22
TORSDOF 8
ENDMDL
