MODEL 1
REMARK VINA RESULT: -10.229530570      0.000      0.000
REMARK  8 active torsions:
REMARK  status: ('A' for Active; 'I' for Inactive)
REMARK    1  A    between atoms: C2_2  and  O1_3 
REMARK    2  A    between atoms: C2_2  and  C10_20 
REMARK    3  A    between atoms: C2_2  and  P2_23 
REMARK    4  A    between atoms: O1_3  and  C3_4 
REMARK    5  A    between atoms: C5_6  and  C6_7 
REMARK    6  A    between atoms: C8_11  and  O4_12 
REMARK    7  A    between atoms: O4_12  and  P1_13 
REMARK    8  A    between atoms: C9_17  and  O8_18 
ROOT
HETATM    1  C3  UNL     1    -129.604  31.787 126.483  1.00  0.00     0.160 C 
HETATM    2  C4  UNL     1    -128.897  32.360 127.724  1.00  0.00     0.080 C 
HETATM    3  C5  UNL     1    -127.440  32.150 127.431  1.00  0.00     0.020 C 
HETATM    4  C7  UNL     1    -127.000  32.252 126.209  1.00  0.00     0.022 C 
HETATM    5  C8  UNL     1    -127.839  32.573 125.009  1.00  0.00     0.190 C 
HETATM    6  C9  UNL     1    -129.264  32.857 125.419  1.00  0.00     0.180 C 
ENDROOT
BRANCH   1   7
HETATM    7  O1  UNL     1    -130.928  31.668 126.629  1.00  0.00    -0.349 OA
BRANCH   7   8
HETATM    8  C2  UNL     1    -131.504  30.411 126.729  1.00  0.00     0.259 C 
HETATM    9  C1  UNL     1    -131.411  29.824 125.307  1.00  0.00     0.074 C 
BRANCH   8  10
HETATM   10  C10 UNL     1    -130.674  29.477 127.556  1.00  0.00     0.223 C 
HETATM   11  O9  UNL     1    -130.356  29.686 128.750  1.00  0.00    -0.645 OA
HETATM   12  O10 UNL     1    -130.196  28.280 127.017  1.00  0.00    -0.645 OA
ENDBRANCH   8  10
BRANCH   8  13
HETATM   13  P2  UNL     1    -133.110  30.342 127.393  1.00  0.00     0.306 P 
HETATM   14  O11 UNL     1    -133.042  31.575 128.292  1.00  0.00    -0.637 OA
HETATM   15  O12 UNL     1    -134.389  31.051 126.575  1.00  0.00    -0.637 OA
HETATM   16  O13 UNL     1    -133.427  29.412 128.738  1.00  0.00    -0.637 OA
ENDBRANCH   8  13
ENDBRANCH   7   8
ENDBRANCH   1   7
BRANCH   6  17
HETATM   17  O8  UNL     1    -130.105  32.834 124.345  1.00  0.00    -0.390 OA
ATOM     18  H8  UNL     1    -130.018  32.047 123.821  1.00  0.00     0.210 HD
ENDBRANCH   6  17
BRANCH   3  19
HETATM   19  C6  UNL     1    -126.563  31.837 128.545  1.00  0.00     0.205 C 
HETATM   20  O2  UNL     1    -125.382  31.492 128.365  1.00  0.00    -0.644 OA
HETATM   21  O3  UNL     1    -127.000  31.907 129.865  1.00  0.00    -0.644 OA
ENDBRANCH   3  19
BRANCH   5  22
HETATM   22  O4  UNL     1    -127.852  31.501 124.158  1.00  0.00    -0.271 OA
BRANCH  22  23
HETATM   23  P1  UNL     1    -127.186  31.972 122.694  1.00  0.00     0.422 P 
HETATM   24  O5  UNL     1    -125.879  31.339 123.130  1.00  0.00    -0.617 OA
HETATM   25  O6  UNL     1    -127.440  31.101 121.347  1.00  0.00    -0.617 OA
HETATM   26  O7  UNL     1    -126.532  33.497 122.620  1.00  0.00    -0.617 OA
ENDBRANCH  22  23
ENDBRANCH   5  22
TORSDOF 8
ENDMDL
