MODEL 15
REMARK VINA RESULT: -7.038948464      2.484      6.305
REMARK  8 active torsions:
REMARK  status: ('A' for Active; 'I' for Inactive)
REMARK    1  A    between atoms: C2_2  and  O1_3 
REMARK    2  A    between atoms: C2_2  and  C10_20 
REMARK    3  A    between atoms: C2_2  and  P2_23 
REMARK    4  A    between atoms: O1_3  and  C3_4 
REMARK    5  A    between atoms: C5_6  and  C6_7 
REMARK    6  A    between atoms: C8_11  and  O4_12 
REMARK    7  A    between atoms: O4_12  and  P1_13 
REMARK    8  A    between atoms: C9_17  and  O8_18 
ROOT
HETATM    1  C3  UNL     1    -129.329  31.984 124.652  1.00  0.00     0.160 C 
HETATM    2  C4  UNL     1    -130.692  31.273 124.722  1.00  0.00     0.080 C 
HETATM    3  C5  UNL     1    -130.515  30.276 125.830  1.00  0.00     0.020 C 
HETATM    4  C7  UNL     1    -129.774  30.571 126.861  1.00  0.00     0.022 C 
HETATM    5  C8  UNL     1    -129.047  31.865 127.063  1.00  0.00     0.190 C 
HETATM    6  C9  UNL     1    -129.362  32.831 125.946  1.00  0.00     0.180 C 
ENDROOT
BRANCH   1   7
HETATM    7  O1  UNL     1    -129.189  32.767 123.577  1.00  0.00    -0.349 OA
BRANCH   7   8
HETATM    8  C2  UNL     1    -127.942  32.927 122.994  1.00  0.00     0.259 C 
HETATM    9  C1  UNL     1    -127.077  31.809 123.610  1.00  0.00     0.074 C 
BRANCH   8  10
HETATM   10  C10 UNL     1    -127.958  32.600 121.531  1.00  0.00     0.223 C 
HETATM   11  O9  UNL     1    -128.517  33.304 120.658  1.00  0.00    -0.645 OA
HETATM   12  O10 UNL     1    -127.327  31.450 121.050  1.00  0.00    -0.645 OA
ENDBRANCH   8  10
BRANCH   8  13
HETATM   13  P2  UNL     1    -127.217  34.502 123.125  1.00  0.00     0.306 P 
HETATM   14  O11 UNL     1    -126.333  34.249 124.345  1.00  0.00    -0.637 OA
HETATM   15  O12 UNL     1    -125.840  34.870 122.245  1.00  0.00    -0.637 OA
HETATM   16  O13 UNL     1    -127.986  35.715 123.969  1.00  0.00    -0.637 OA
ENDBRANCH   8  13
ENDBRANCH   7   8
ENDBRANCH   1   7
BRANCH   6  17
HETATM   17  O8  UNL     1    -128.483  33.875 125.927  1.00  0.00    -0.390 OA
ATOM     18  H8  UNL     1    -128.852  34.679 126.271  1.00  0.00     0.210 HD
ENDBRANCH   6  17
BRANCH   3  19
HETATM   19  C6  UNL     1    -131.192  28.997 125.705  1.00  0.00     0.205 C 
HETATM   20  O2  UNL     1    -132.226  28.873 125.025  1.00  0.00    -0.644 OA
HETATM   21  O3  UNL     1    -130.718  27.851 126.338  1.00  0.00    -0.644 OA
ENDBRANCH   3  19
BRANCH   5  22
HETATM   22  O4  UNL     1    -127.697  31.639 127.055  1.00  0.00    -0.271 OA
BRANCH  22  23
HETATM   23  P1  UNL     1    -127.134  31.703 128.632  1.00  0.00     0.422 P 
HETATM   24  O5  UNL     1    -126.962  33.200 128.469  1.00  0.00    -0.617 OA
HETATM   25  O6  UNL     1    -128.169  31.712 129.884  1.00  0.00    -0.617 OA
HETATM   26  O7  UNL     1    -125.510  31.446 128.863  1.00  0.00    -0.617 OA
ENDBRANCH  22  23
ENDBRANCH   5  22
TORSDOF 8
ENDMDL
