MODEL 8
REMARK VINA RESULT: -9.078517666      0.736      1.261
REMARK  8 active torsions:
REMARK  status: ('A' for Active; 'I' for Inactive)
REMARK    1  A    between atoms: C2_2  and  O1_3 
REMARK    2  A    between atoms: C2_2  and  C10_20 
REMARK    3  A    between atoms: C2_2  and  P2_23 
REMARK    4  A    between atoms: O1_3  and  C3_4 
REMARK    5  A    between atoms: C5_6  and  C6_7 
REMARK    6  A    between atoms: C8_11  and  O4_12 
REMARK    7  A    between atoms: O4_12  and  P1_13 
REMARK    8  A    between atoms: C9_17  and  O8_18 
ROOT
HETATM    1  C3  UNL     1    -129.901  31.686 126.111  1.00  0.00     0.160 C 
HETATM    2  C4  UNL     1    -129.550  32.348 127.456  1.00  0.00     0.080 C 
HETATM    3  C5  UNL     1    -128.053  32.259 127.515  1.00  0.00     0.020 C 
HETATM    4  C7  UNL     1    -127.350  32.370 126.424  1.00  0.00     0.022 C 
HETATM    5  C8  UNL     1    -127.909  32.588 125.051  1.00  0.00     0.190 C 
HETATM    6  C9  UNL     1    -129.408  32.756 125.109  1.00  0.00     0.180 C 
ENDROOT
BRANCH   1   7
HETATM    7  O1  UNL     1    -131.209  31.456 125.954  1.00  0.00    -0.349 OA
BRANCH   7   8
HETATM    8  C2  UNL     1    -131.779  30.309 126.484  1.00  0.00     0.259 C 
HETATM    9  C1  UNL     1    -132.645  29.740 125.342  1.00  0.00     0.074 C 
BRANCH   8  10
HETATM   10  C10 UNL     1    -130.762  29.236 126.729  1.00  0.00     0.223 C 
HETATM   11  O9  UNL     1    -130.238  29.003 127.844  1.00  0.00    -0.645 OA
HETATM   12  O10 UNL     1    -130.330  28.411 125.688  1.00  0.00    -0.645 OA
ENDBRANCH   8  10
BRANCH   8  13
HETATM   13  P2  UNL     1    -132.652  30.492 127.977  1.00  0.00     0.306 P 
HETATM   14  O11 UNL     1    -134.039  30.773 127.401  1.00  0.00    -0.637 OA
HETATM   15  O12 UNL     1    -133.283  29.147 128.752  1.00  0.00    -0.637 OA
HETATM   16  O13 UNL     1    -132.703  31.968 128.747  1.00  0.00    -0.637 OA
ENDBRANCH   8  13
ENDBRANCH   7   8
ENDBRANCH   1   7
BRANCH   6  17
HETATM   17  O8  UNL     1    -129.971  32.634 123.872  1.00  0.00    -0.390 OA
ATOM     18  H8  UNL     1    -129.913  31.753 123.521  1.00  0.00     0.210 HD
ENDBRANCH   6  17
BRANCH   3  19
HETATM   19  C6  UNL     1    -127.438  32.050 128.814  1.00  0.00     0.205 C 
HETATM   20  O2  UNL     1    -128.107  31.692 129.800  1.00  0.00    -0.644 OA
HETATM   21  O3  UNL     1    -126.074  32.237 129.019  1.00  0.00    -0.644 OA
ENDBRANCH   3  19
BRANCH   5  22
HETATM   22  O4  UNL     1    -127.638  31.499 124.267  1.00  0.00    -0.271 OA
BRANCH  22  23
HETATM   23  P1  UNL     1    -127.067  32.034 122.785  1.00  0.00     0.422 P 
HETATM   24  O5  UNL     1    -125.730  31.403 123.116  1.00  0.00    -0.617 OA
HETATM   25  O6  UNL     1    -127.394  31.213 121.422  1.00  0.00    -0.617 OA
HETATM   26  O7  UNL     1    -126.436  33.570 122.732  1.00  0.00    -0.617 OA
ENDBRANCH  22  23
ENDBRANCH   5  22
TORSDOF 8
ENDMDL
