MODEL 5
REMARK VINA RESULT: -4.669111074      1.679      4.659
REMARK  3 active torsions:
REMARK  status: ('A' for Active; 'I' for Inactive)
REMARK    1  A    between atoms: N1_1  and  C1_5 
REMARK    2  A    between atoms: C1_5  and  C2_6 
REMARK    3  A    between atoms: C2_6  and  C3_7 
ROOT
HETATM    1  C3  UNL     1      12.024 -18.233   4.213  1.00  0.00    -0.029 A 
HETATM    2  C4  UNL     1      13.357 -18.244   3.868  1.00  0.00     0.096 A 
HETATM    3  N2  UNL     1      13.901 -19.372   4.383  1.00  0.00    -0.365 N 
ATOM      4  H2  UNL     1      14.878 -19.649   4.286  1.00  0.00     0.165 HD
HETATM    5  C5  UNL     1      12.958 -20.077   5.043  1.00  0.00     0.042 A 
HETATM    6  C6  UNL     1      13.027 -21.276   5.725  1.00  0.00     0.030 A 
HETATM    7  C7  UNL     1      11.882 -21.782   6.321  1.00  0.00     0.002 A 
HETATM    8  C8  UNL     1      10.692 -21.092   6.233  1.00  0.00     0.001 A 
HETATM    9  C9  UNL     1      10.649 -19.900   5.549  1.00  0.00     0.014 A 
HETATM   10  C10 UNL     1      11.783 -19.373   4.942  1.00  0.00    -0.002 A 
ENDROOT
BRANCH   1  11
HETATM   11  C2  UNL     1      11.007 -17.220   3.892  1.00  0.00     0.068 C 
BRANCH  11  12
HETATM   12  C1  UNL     1       9.612 -17.775   3.894  1.00  0.00     0.234 C 
BRANCH  12  13
HETATM   13  N1  UNL     1       8.898 -17.198   5.015  1.00  0.00    -0.079 N 
ATOM     14  H13 UNL     1       9.336 -17.411   5.911  1.00  0.00     0.274 HD
ATOM     15  H12 UNL     1       8.986 -16.183   5.057  1.00  0.00     0.274 HD
ATOM     16  H11 UNL     1       7.928 -17.508   4.967  1.00  0.00     0.274 HD
ENDBRANCH  12  13
ENDBRANCH  11  12
ENDBRANCH   1  11
TORSDOF 3
ENDMDL
