MODEL 6
REMARK VINA RESULT: -4.502055539      7.690     10.016
REMARK  3 active torsions:
REMARK  status: ('A' for Active; 'I' for Inactive)
REMARK    1  A    between atoms: N1_1  and  C1_5 
REMARK    2  A    between atoms: C1_5  and  C2_6 
REMARK    3  A    between atoms: C2_6  and  C3_7 
ROOT
HETATM    1  C3  UNL     1      11.077 -26.199  10.271  1.00  0.00    -0.029 A 
HETATM    2  C4  UNL     1      10.124 -27.029   9.725  1.00  0.00     0.096 A 
HETATM    3  N2  UNL     1      10.544 -28.304   9.905  1.00  0.00    -0.365 N 
ATOM      4  H2  UNL     1      10.037 -29.136   9.602  1.00  0.00     0.165 HD
HETATM    5  C5  UNL     1      11.731 -28.309  10.546  1.00  0.00     0.042 A 
HETATM    6  C6  UNL     1      12.545 -29.351  10.948  1.00  0.00     0.030 A 
HETATM    7  C7  UNL     1      13.735 -29.067  11.602  1.00  0.00     0.002 A 
HETATM    8  C8  UNL     1      14.096 -27.759  11.844  1.00  0.00     0.001 A 
HETATM    9  C9  UNL     1      13.269 -26.740  11.435  1.00  0.00     0.014 A 
HETATM   10  C10 UNL     1      12.071 -27.000  10.779  1.00  0.00    -0.002 A 
ENDROOT
BRANCH   1  11
HETATM   11  C2  UNL     1      11.082 -24.728  10.326  1.00  0.00     0.068 C 
BRANCH  11  12
HETATM   12  C1  UNL     1      11.022 -24.199  11.730  1.00  0.00     0.234 C 
BRANCH  12  13
HETATM   13  N1  UNL     1      12.129 -23.283  11.915  1.00  0.00    -0.079 N 
ATOM     14  H13 UNL     1      12.106 -22.501  11.259  1.00  0.00     0.274 HD
ATOM     15  H12 UNL     1      12.052 -22.742  12.776  1.00  0.00     0.274 HD
ATOM     16  H11 UNL     1      12.996 -23.817  11.860  1.00  0.00     0.274 HD
ENDBRANCH  12  13
ENDBRANCH  11  12
ENDBRANCH   1  11
TORSDOF 3
ENDMDL
