MODEL 1
REMARK VINA RESULT: -7.754599175      0.000      0.000
REMARK  3 active torsions:
REMARK  status: ('A' for Active; 'I' for Inactive)
REMARK    1  A    between atoms: N1_1  and  C1_5 
REMARK    2  A    between atoms: C1_5  and  C2_6 
REMARK    3  A    between atoms: C2_6  and  C3_7 
ROOT
HETATM    1  C3  UNL     1      11.742 -20.480   5.849  1.00  0.00    -0.029 A 
HETATM    2  C4  UNL     1      10.424 -20.767   6.127  1.00  0.00     0.096 A 
HETATM    3  N2  UNL     1       9.666 -19.811   5.539  1.00  0.00    -0.365 N 
ATOM      4  H2  UNL     1       8.648 -19.766   5.575  1.00  0.00     0.165 HD
HETATM    5  C5  UNL     1      10.459 -18.927   4.897  1.00  0.00     0.042 A 
HETATM    6  C6  UNL     1      10.156 -17.797   4.163  1.00  0.00     0.030 A 
HETATM    7  C7  UNL     1      11.188 -17.059   3.602  1.00  0.00     0.002 A 
HETATM    8  C8  UNL     1      12.497 -17.451   3.779  1.00  0.00     0.001 A 
HETATM    9  C9  UNL     1      12.772 -18.580   4.514  1.00  0.00     0.014 A 
HETATM   10  C10 UNL     1      11.756 -19.337   5.085  1.00  0.00    -0.002 A 
ENDROOT
BRANCH   1  11
HETATM   11  C2  UNL     1      12.944 -21.219   6.265  1.00  0.00     0.068 C 
BRANCH  11  12
HETATM   12  C1  UNL     1      12.653 -22.650   6.617  1.00  0.00     0.234 C 
BRANCH  12  13
HETATM   13  N1  UNL     1      13.044 -23.479   5.496  1.00  0.00    -0.079 N 
ATOM     14  H13 UNL     1      12.939 -23.004   4.600  1.00  0.00     0.274 HD
ATOM     15  H12 UNL     1      14.052 -23.632   5.453  1.00  0.00     0.274 HD
ATOM     16  H11 UNL     1      12.516 -24.349   5.546  1.00  0.00     0.274 HD
ENDBRANCH  12  13
ENDBRANCH  11  12
ENDBRANCH   1  11
TORSDOF 3
ENDMDL
