MODEL 7
REMARK VINA RESULT: -4.450682678      1.956      4.804
REMARK  3 active torsions:
REMARK  status: ('A' for Active; 'I' for Inactive)
REMARK    1  A    between atoms: N1_1  and  C1_5 
REMARK    2  A    between atoms: C1_5  and  C2_6 
REMARK    3  A    between atoms: C2_6  and  C3_7 
ROOT
HETATM    1  C3  UNL     1      10.916 -18.251   4.240  1.00  0.00    -0.029 A 
HETATM    2  C4  UNL     1      12.082 -17.701   3.756  1.00  0.00     0.096 A 
HETATM    3  N2  UNL     1      13.103 -18.496   4.155  1.00  0.00    -0.365 N 
ATOM      4  H2  UNL     1      14.088 -18.336   3.943  1.00  0.00     0.165 HD
HETATM    5  C5  UNL     1      12.623 -19.532   4.875  1.00  0.00     0.042 A 
HETATM    6  C6  UNL     1      13.266 -20.591   5.486  1.00  0.00     0.030 A 
HETATM    7  C7  UNL     1      12.513 -21.532   6.175  1.00  0.00     0.002 A 
HETATM    8  C8  UNL     1      11.142 -21.405   6.246  1.00  0.00     0.001 A 
HETATM    9  C9  UNL     1      10.527 -20.342   5.629  1.00  0.00     0.014 A 
HETATM   10  C10 UNL     1      11.259 -19.387   4.933  1.00  0.00    -0.002 A 
ENDROOT
BRANCH   1  11
HETATM   11  C2  UNL     1       9.538 -17.759   4.076  1.00  0.00     0.068 C 
BRANCH  11  12
HETATM   12  C1  UNL     1       9.255 -16.540   4.906  1.00  0.00     0.234 C 
BRANCH  12  13
HETATM   13  N1  UNL     1       8.069 -16.798   5.696  1.00  0.00    -0.079 N 
ATOM     14  H13 UNL     1       7.207 -16.611   5.184  1.00  0.00     0.274 HD
ATOM     15  H12 UNL     1       7.916 -17.792   5.863  1.00  0.00     0.274 HD
ATOM     16  H11 UNL     1       8.139 -16.259   6.559  1.00  0.00     0.274 HD
ENDBRANCH  12  13
ENDBRANCH  11  12
ENDBRANCH   1  11
TORSDOF 3
ENDMDL
