MODEL 2
REMARK VINA RESULT: -9.770635551      1.732      7.123
REMARK  10 active torsions:
REMARK  status: ('A' for Active; 'I' for Inactive)
REMARK    1  A    between atoms: S1_2  and  C1_4 
REMARK    2  A    between atoms: S1_2  and  N1_10 
REMARK    3  A    between atoms: N1_10  and  C7_11 
REMARK    4  A    between atoms: N1_10  and  C14_18 
REMARK    5  A    between atoms: C7_11  and  C8_12 
REMARK    6  A    between atoms: C17_24  and  N3_25 
REMARK    7  A    between atoms: N3_25  and  C18_26 
REMARK    8  A    between atoms: N3_25  and  S2_33 
REMARK    9  A    between atoms: C18_26  and  C19_27 
REMARK   10  A    between atoms: S2_33  and  C25_36 
ROOT
HETATM    1  C14 UNL     1      12.120 -20.113 -18.195  1.00  0.00     0.147 C 
HETATM    2  C15 UNL     1      11.937 -18.846 -19.239  1.00  0.00     0.260 C 
HETATM    3  N2  UNL     1      12.999 -17.972 -18.854  1.00  0.00    -0.071 N 
ATOM      4  H21 UNL     1      12.683 -17.012 -18.720  1.00  0.00     0.277 HD
ATOM      5  H22 UNL     1      13.656 -17.801 -19.615  1.00  0.00     0.277 HD
HETATM    6  C16 UNL     1      13.644 -18.510 -17.678  1.00  0.00     0.260 C 
HETATM    7  C17 UNL     1      12.427 -19.243 -17.068  1.00  0.00     0.147 C 
ENDROOT
BRANCH   1   8
HETATM    8  N1  UNL     1      10.856 -20.698 -18.389  1.00  0.00    -0.294 N 
BRANCH   8   9
HETATM    9  S1  UNL     1      10.850 -22.298 -18.864  1.00  0.00     0.261 S 
HETATM   10  O1  UNL     1       9.570 -22.515 -19.703  1.00  0.00    -0.200 OA
HETATM   11  O2  UNL     1      10.626 -23.261 -17.693  1.00  0.00    -0.200 OA
BRANCH   9  12
HETATM   12  C1  UNL     1      12.204 -22.924 -19.735  1.00  0.00     0.079 A 
HETATM   13  C2  UNL     1      12.393 -22.666 -21.075  1.00  0.00     0.025 A 
HETATM   14  C3  UNL     1      13.436 -23.177 -21.819  1.00  0.00     0.002 A 
HETATM   15  C4  UNL     1      14.349 -23.999 -21.182  1.00  0.00     0.000 A 
HETATM   16  C5  UNL     1      14.195 -24.282 -19.835  1.00  0.00     0.002 A 
HETATM   17  C6  UNL     1      13.126 -23.747 -19.118  1.00  0.00     0.025 A 
ENDBRANCH   9  12
ENDBRANCH   8   9
BRANCH   8  18
HETATM   18  C7  UNL     1       9.756 -20.249 -17.626  1.00  0.00     0.174 C 
BRANCH  18  19
HETATM   19  C8  UNL     1       8.922 -19.192 -18.261  1.00  0.00    -0.040 A 
HETATM   20  C9  UNL     1       8.112 -19.420 -19.353  1.00  0.00     0.009 A 
HETATM   21  C10 UNL     1       7.355 -18.403 -19.917  1.00  0.00     0.001 A 
HETATM   22  C11 UNL     1       7.394 -17.123 -19.390  1.00  0.00     0.000 A 
HETATM   23  C12 UNL     1       8.195 -16.866 -18.296  1.00  0.00     0.001 A 
HETATM   24  C13 UNL     1       8.945 -17.910 -17.752  1.00  0.00     0.009 A 
ENDBRANCH  18  19
ENDBRANCH   8  18
ENDBRANCH   1   8
BRANCH   7  25
HETATM   25  N3  UNL     1      12.516 -19.530 -15.754  1.00  0.00    -0.294 N 
BRANCH  25  26
HETATM   26  C18 UNL     1      12.471 -18.373 -14.836  1.00  0.00     0.174 C 
BRANCH  26  27
HETATM   27  C19 UNL     1      11.134 -17.817 -14.638  1.00  0.00    -0.040 A 
HETATM   28  C20 UNL     1      10.028 -18.654 -14.428  1.00  0.00     0.009 A 
HETATM   29  C21 UNL     1       8.760 -18.216 -14.235  1.00  0.00     0.001 A 
HETATM   30  C22 UNL     1       8.503 -16.875 -14.240  1.00  0.00     0.000 A 
HETATM   31  C23 UNL     1       9.552 -15.992 -14.444  1.00  0.00     0.001 A 
HETATM   32  C24 UNL     1      10.835 -16.472 -14.638  1.00  0.00     0.009 A 
ENDBRANCH  26  27
ENDBRANCH  25  26
BRANCH  25  33
HETATM   33  S2  UNL     1      13.113 -20.824 -14.965  1.00  0.00     0.261 S 
HETATM   34  O3  UNL     1      12.465 -22.103 -15.548  1.00  0.00    -0.200 OA
HETATM   35  O4  UNL     1      12.742 -20.920 -13.489  1.00  0.00    -0.200 OA
BRANCH  33  36
HETATM   36  C25 UNL     1      14.818 -21.165 -14.999  1.00  0.00     0.079 A 
HETATM   37  C26 UNL     1      15.266 -22.452 -14.760  1.00  0.00     0.025 A 
HETATM   38  C27 UNL     1      16.593 -22.788 -14.711  1.00  0.00     0.002 A 
HETATM   39  C28 UNL     1      17.553 -21.834 -14.904  1.00  0.00     0.000 A 
HETATM   40  C29 UNL     1      17.146 -20.535 -15.148  1.00  0.00     0.002 A 
HETATM   41  C30 UNL     1      15.796 -20.213 -15.194  1.00  0.00     0.025 A 
ENDBRANCH  33  36
ENDBRANCH  25  33
ENDBRANCH   7  25
TORSDOF 10
ENDMDL
