MODEL 1
REMARK VINA RESULT: -10.037311446      0.000      0.000
REMARK  10 active torsions:
REMARK  status: ('A' for Active; 'I' for Inactive)
REMARK    1  A    between atoms: S1_2  and  C1_4 
REMARK    2  A    between atoms: S1_2  and  N1_10 
REMARK    3  A    between atoms: N1_10  and  C7_11 
REMARK    4  A    between atoms: N1_10  and  C14_18 
REMARK    5  A    between atoms: C7_11  and  C8_12 
REMARK    6  A    between atoms: C17_24  and  N3_25 
REMARK    7  A    between atoms: N3_25  and  C18_26 
REMARK    8  A    between atoms: N3_25  and  S2_33 
REMARK    9  A    between atoms: C18_26  and  C19_27 
REMARK   10  A    between atoms: S2_33  and  C25_36 
ROOT
HETATM    1  C14 UNL     1      12.960 -19.896 -17.167  1.00  0.00     0.147 C 
HETATM    2  C15 UNL     1      14.394 -19.466 -17.865  1.00  0.00     0.260 C 
HETATM    3  N2  UNL     1      14.009 -18.398 -18.732  1.00  0.00    -0.071 N 
ATOM      4  H21 UNL     1      14.375 -18.513 -19.677  1.00  0.00     0.277 HD
ATOM      5  H22 UNL     1      14.479 -17.523 -18.502  1.00  0.00     0.277 HD
HETATM    6  C16 UNL     1      12.570 -18.274 -18.710  1.00  0.00     0.260 C 
HETATM    7  C17 UNL     1      12.220 -19.751 -18.414  1.00  0.00     0.147 C 
ENDROOT
BRANCH   1   8
HETATM    8  N1  UNL     1      13.367 -21.142 -16.659  1.00  0.00    -0.294 N 
BRANCH   8   9
HETATM    9  S1  UNL     1      13.836 -21.167 -15.057  1.00  0.00     0.261 S 
HETATM   10  O1  UNL     1      12.597 -21.582 -14.232  1.00  0.00    -0.200 OA
HETATM   11  O2  UNL     1      14.129 -19.768 -14.505  1.00  0.00    -0.200 OA
BRANCH   9  12
HETATM   12  C1  UNL     1      15.178 -22.148 -14.587  1.00  0.00     0.079 A 
HETATM   13  C2  UNL     1      15.020 -23.279 -13.815  1.00  0.00     0.025 A 
HETATM   14  C3  UNL     1      16.066 -24.068 -13.384  1.00  0.00     0.002 A 
HETATM   15  C4  UNL     1      17.351 -23.704 -13.747  1.00  0.00     0.000 A 
HETATM   16  C5  UNL     1      17.551 -22.574 -14.523  1.00  0.00     0.002 A 
HETATM   17  C6  UNL     1      16.468 -21.803 -14.938  1.00  0.00     0.025 A 
ENDBRANCH   9  12
ENDBRANCH   8   9
BRANCH   8  18
HETATM   18  C7  UNL     1      12.804 -22.326 -17.183  1.00  0.00     0.174 C 
BRANCH  18  19
HETATM   19  C8  UNL     1      13.730 -23.185 -17.971  1.00  0.00    -0.040 A 
HETATM   20  C9  UNL     1      15.066 -22.897 -18.145  1.00  0.00     0.009 A 
HETATM   21  C10 UNL     1      15.893 -23.723 -18.893  1.00  0.00     0.001 A 
HETATM   22  C11 UNL     1      15.390 -24.869 -19.486  1.00  0.00     0.000 A 
HETATM   23  C12 UNL     1      14.055 -25.183 -19.328  1.00  0.00     0.001 A 
HETATM   24  C13 UNL     1      13.250 -24.331 -18.570  1.00  0.00     0.009 A 
ENDBRANCH  18  19
ENDBRANCH   8  18
ENDBRANCH   1   8
BRANCH   7  25
HETATM   25  N3  UNL     1      10.962 -20.126 -18.721  1.00  0.00    -0.294 N 
BRANCH  25  26
HETATM   26  C18 UNL     1      10.684 -20.340 -20.156  1.00  0.00     0.174 C 
BRANCH  26  27
HETATM   27  C19 UNL     1      11.572 -21.305 -20.801  1.00  0.00    -0.040 A 
HETATM   28  C20 UNL     1      11.063 -22.466 -21.400  1.00  0.00     0.009 A 
HETATM   29  C21 UNL     1      11.819 -23.405 -22.019  1.00  0.00     0.001 A 
HETATM   30  C22 UNL     1      13.174 -23.245 -22.081  1.00  0.00     0.000 A 
HETATM   31  C23 UNL     1      13.742 -22.119 -21.508  1.00  0.00     0.001 A 
HETATM   32  C24 UNL     1      12.942 -21.179 -20.884  1.00  0.00     0.009 A 
ENDBRANCH  26  27
ENDBRANCH  25  26
BRANCH  25  33
HETATM   33  S2  UNL     1       9.556 -19.964 -17.915  1.00  0.00     0.261 S 
HETATM   34  O3  UNL     1       9.250 -21.291 -17.178  1.00  0.00    -0.200 OA
HETATM   35  O4  UNL     1       8.317 -19.789 -18.788  1.00  0.00    -0.200 OA
BRANCH  33  36
HETATM   36  C25 UNL     1       9.384 -18.751 -16.681  1.00  0.00     0.079 A 
HETATM   37  C26 UNL     1       9.149 -19.131 -15.372  1.00  0.00     0.025 A 
HETATM   38  C27 UNL     1       8.943 -18.235 -14.356  1.00  0.00     0.002 A 
HETATM   39  C28 UNL     1       8.965 -16.892 -14.607  1.00  0.00     0.000 A 
HETATM   40  C29 UNL     1       9.198 -16.471 -15.903  1.00  0.00     0.002 A 
HETATM   41  C30 UNL     1       9.405 -17.393 -16.921  1.00  0.00     0.025 A 
ENDBRANCH  33  36
ENDBRANCH  25  33
ENDBRANCH   7  25
TORSDOF 10
ENDMDL
