MODEL 8
REMARK VINA RESULT: -9.492415545      1.998      6.289
REMARK  10 active torsions:
REMARK  status: ('A' for Active; 'I' for Inactive)
REMARK    1  A    between atoms: S1_2  and  C1_4 
REMARK    2  A    between atoms: S1_2  and  N1_10 
REMARK    3  A    between atoms: N1_10  and  C7_11 
REMARK    4  A    between atoms: N1_10  and  C14_18 
REMARK    5  A    between atoms: C7_11  and  C8_12 
REMARK    6  A    between atoms: C17_24  and  N3_25 
REMARK    7  A    between atoms: N3_25  and  C18_26 
REMARK    8  A    between atoms: N3_25  and  S2_33 
REMARK    9  A    between atoms: C18_26  and  C19_27 
REMARK   10  A    between atoms: S2_33  and  C25_36 
ROOT
HETATM    1  C14 UNL     1      12.088 -18.969 -16.973  1.00  0.00     0.147 C 
HETATM    2  C15 UNL     1      13.716 -18.750 -17.139  1.00  0.00     0.260 C 
HETATM    3  N2  UNL     1      13.888 -18.772 -18.557  1.00  0.00    -0.071 N 
ATOM      4  H21 UNL     1      14.639 -19.397 -18.849  1.00  0.00     0.277 HD
ATOM      5  H22 UNL     1      14.281 -17.901 -18.915  1.00  0.00     0.277 HD
HETATM    6  C16 UNL     1      12.625 -19.102 -19.176  1.00  0.00     0.260 C 
HETATM    7  C17 UNL     1      12.033 -19.963 -18.036  1.00  0.00     0.147 C 
ENDROOT
BRANCH   1   8
HETATM    8  N1  UNL     1      12.085 -19.307 -15.608  1.00  0.00    -0.294 N 
BRANCH   8   9
HETATM    9  S1  UNL     1      11.575 -18.116 -14.555  1.00  0.00     0.261 S 
HETATM   10  O1  UNL     1      12.553 -16.930 -14.708  1.00  0.00    -0.200 OA
HETATM   11  O2  UNL     1      11.773 -18.502 -13.085  1.00  0.00    -0.200 OA
BRANCH   9  12
HETATM   12  C1  UNL     1       9.955 -17.526 -14.671  1.00  0.00     0.079 A 
HETATM   13  C2  UNL     1       8.870 -18.374 -14.716  1.00  0.00     0.025 A 
HETATM   14  C3  UNL     1       7.565 -17.948 -14.848  1.00  0.00     0.002 A 
HETATM   15  C4  UNL     1       7.329 -16.588 -14.942  1.00  0.00     0.000 A 
HETATM   16  C5  UNL     1       8.393 -15.702 -14.900  1.00  0.00     0.002 A 
HETATM   17  C6  UNL     1       9.698 -16.172 -14.766  1.00  0.00     0.025 A 
ENDBRANCH   9  12
ENDBRANCH   8   9
BRANCH   8  18
HETATM   18  C7  UNL     1      11.858 -20.646 -15.222  1.00  0.00     0.174 C 
BRANCH  18  19
HETATM   19  C8  UNL     1      13.077 -21.437 -14.900  1.00  0.00    -0.040 A 
HETATM   20  C9  UNL     1      13.529 -21.641 -13.614  1.00  0.00     0.009 A 
HETATM   21  C10 UNL     1      14.676 -22.382 -13.359  1.00  0.00     0.001 A 
HETATM   22  C11 UNL     1      15.397 -22.940 -14.401  1.00  0.00     0.000 A 
HETATM   23  C12 UNL     1      14.967 -22.753 -15.698  1.00  0.00     0.001 A 
HETATM   24  C13 UNL     1      13.811 -22.003 -15.922  1.00  0.00     0.009 A 
ENDBRANCH  18  19
ENDBRANCH   8  18
ENDBRANCH   1   8
BRANCH   7  25
HETATM   25  N3  UNL     1      11.033 -20.795 -18.392  1.00  0.00    -0.294 N 
BRANCH  25  26
HETATM   26  C18 UNL     1       9.667 -20.339 -18.065  1.00  0.00     0.174 C 
BRANCH  26  27
HETATM   27  C19 UNL     1       9.147 -19.310 -18.963  1.00  0.00    -0.040 A 
HETATM   28  C20 UNL     1       8.515 -18.164 -18.459  1.00  0.00     0.009 A 
HETATM   29  C21 UNL     1       8.009 -17.167 -19.225  1.00  0.00     0.001 A 
HETATM   30  C22 UNL     1       8.103 -17.250 -20.585  1.00  0.00     0.000 A 
HETATM   31  C23 UNL     1       8.715 -18.357 -21.149  1.00  0.00     0.001 A 
HETATM   32  C24 UNL     1       9.221 -19.358 -20.339  1.00  0.00     0.009 A 
ENDBRANCH  26  27
ENDBRANCH  25  26
BRANCH  25  33
HETATM   33  S2  UNL     1      11.011 -22.394 -18.700  1.00  0.00     0.261 S 
HETATM   34  O3  UNL     1       9.814 -22.705 -19.631  1.00  0.00    -0.200 OA
HETATM   35  O4  UNL     1      10.723 -23.288 -17.498  1.00  0.00    -0.200 OA
BRANCH  33  36
HETATM   36  C25 UNL     1      12.362 -23.157 -19.486  1.00  0.00     0.079 A 
HETATM   37  C26 UNL     1      12.631 -22.878 -20.814  1.00  0.00     0.025 A 
HETATM   38  C27 UNL     1      13.639 -23.482 -21.518  1.00  0.00     0.002 A 
HETATM   39  C28 UNL     1      14.440 -24.410 -20.915  1.00  0.00     0.000 A 
HETATM   40  C29 UNL     1      14.205 -24.717 -19.587  1.00  0.00     0.002 A 
HETATM   41  C30 UNL     1      13.179 -24.094 -18.888  1.00  0.00     0.025 A 
ENDBRANCH  33  36
ENDBRANCH  25  33
ENDBRANCH   7  25
TORSDOF 10
ENDMDL
