MODEL 3
REMARK VINA RESULT: -9.731197430      2.196      8.107
REMARK  10 active torsions:
REMARK  status: ('A' for Active; 'I' for Inactive)
REMARK    1  A    between atoms: S1_2  and  C1_4 
REMARK    2  A    between atoms: S1_2  and  N1_10 
REMARK    3  A    between atoms: N1_10  and  C7_11 
REMARK    4  A    between atoms: N1_10  and  C14_18 
REMARK    5  A    between atoms: C7_11  and  C8_12 
REMARK    6  A    between atoms: C17_24  and  N3_25 
REMARK    7  A    between atoms: N3_25  and  C18_26 
REMARK    8  A    between atoms: N3_25  and  S2_33 
REMARK    9  A    between atoms: C18_26  and  C19_27 
REMARK   10  A    between atoms: S2_33  and  C25_36 
ROOT
HETATM    1  C14 UNL     1      10.793 -18.999 -18.507  1.00  0.00     0.147 C 
HETATM    2  C15 UNL     1      11.801 -17.711 -18.284  1.00  0.00     0.260 C 
HETATM    3  N2  UNL     1      13.086 -18.273 -18.557  1.00  0.00    -0.071 N 
ATOM      4  H21 UNL     1      13.769 -18.052 -17.832  1.00  0.00     0.277 HD
ATOM      5  H22 UNL     1      13.554 -17.813 -19.338  1.00  0.00     0.277 HD
HETATM    6  C16 UNL     1      12.940 -19.696 -18.761  1.00  0.00     0.260 C 
HETATM    7  C17 UNL     1      11.707 -19.928 -17.857  1.00  0.00     0.147 C 
ENDROOT
BRANCH   1   8
HETATM    8  N1  UNL     1       9.662 -18.463 -17.865  1.00  0.00    -0.294 N 
BRANCH   8   9
HETATM    9  S1  UNL     1       8.373 -18.072 -18.850  1.00  0.00     0.261 S 
HETATM   10  O1  UNL     1       7.764 -19.402 -19.347  1.00  0.00    -0.200 OA
HETATM   11  O2  UNL     1       8.810 -17.415 -20.164  1.00  0.00    -0.200 OA
BRANCH   9  12
HETATM   12  C1  UNL     1       7.107 -17.075 -18.225  1.00  0.00     0.079 A 
HETATM   13  C2  UNL     1       7.368 -15.913 -17.532  1.00  0.00     0.025 A 
HETATM   14  C3  UNL     1       6.392 -15.109 -16.981  1.00  0.00     0.002 A 
HETATM   15  C4  UNL     1       5.070 -15.490 -17.134  1.00  0.00     0.000 A 
HETATM   16  C5  UNL     1       4.767 -16.651 -17.826  1.00  0.00     0.002 A 
HETATM   17  C6  UNL     1       5.782 -17.437 -18.367  1.00  0.00     0.025 A 
ENDBRANCH   9  12
ENDBRANCH   8   9
BRANCH   8  18
HETATM   18  C7  UNL     1       9.365 -18.847 -16.539  1.00  0.00     0.174 C 
BRANCH  18  19
HETATM   19  C8  UNL     1       9.985 -18.013 -15.474  1.00  0.00    -0.040 A 
HETATM   20  C9  UNL     1       9.740 -16.665 -15.330  1.00  0.00     0.009 A 
HETATM   21  C10 UNL     1      10.345 -15.923 -14.324  1.00  0.00     0.001 A 
HETATM   22  C11 UNL     1      11.215 -16.527 -13.433  1.00  0.00     0.000 A 
HETATM   23  C12 UNL     1      11.479 -17.876 -13.553  1.00  0.00     0.001 A 
HETATM   24  C13 UNL     1      10.855 -18.594 -14.575  1.00  0.00     0.009 A 
ENDBRANCH  18  19
ENDBRANCH   8  18
ENDBRANCH   1   8
BRANCH   7  25
HETATM   25  N3  UNL     1      11.508 -21.201 -17.457  1.00  0.00    -0.294 N 
BRANCH  25  26
HETATM   26  C18 UNL     1      11.984 -21.532 -16.099  1.00  0.00     0.174 C 
BRANCH  26  27
HETATM   27  C19 UNL     1      13.430 -21.413 -15.924  1.00  0.00    -0.040 A 
HETATM   28  C20 UNL     1      13.997 -20.256 -15.371  1.00  0.00     0.009 A 
HETATM   29  C21 UNL     1      15.325 -20.069 -15.175  1.00  0.00     0.001 A 
HETATM   30  C22 UNL     1      16.202 -21.054 -15.530  1.00  0.00     0.000 A 
HETATM   31  C23 UNL     1      15.708 -22.224 -16.084  1.00  0.00     0.001 A 
HETATM   32  C24 UNL     1      14.347 -22.382 -16.270  1.00  0.00     0.009 A 
ENDBRANCH  26  27
ENDBRANCH  25  26
BRANCH  25  33
HETATM   33  S2  UNL     1      11.264 -22.575 -18.297  1.00  0.00     0.261 S 
HETATM   34  O3  UNL     1      10.048 -22.376 -19.233  1.00  0.00    -0.200 OA
HETATM   35  O4  UNL     1      10.838 -23.782 -17.467  1.00  0.00    -0.200 OA
BRANCH  33  36
HETATM   36  C25 UNL     1      12.504 -23.195 -19.347  1.00  0.00     0.079 A 
HETATM   37  C26 UNL     1      12.582 -22.749 -20.655  1.00  0.00     0.025 A 
HETATM   38  C27 UNL     1      13.491 -23.233 -21.559  1.00  0.00     0.002 A 
HETATM   39  C28 UNL     1      14.380 -24.202 -21.190  1.00  0.00     0.000 A 
HETATM   40  C29 UNL     1      14.336 -24.674 -19.891  1.00  0.00     0.002 A 
HETATM   41  C30 UNL     1      13.408 -24.172 -18.987  1.00  0.00     0.025 A 
ENDBRANCH  33  36
ENDBRANCH  25  33
ENDBRANCH   7  25
TORSDOF 10
ENDMDL
