MODEL 12
REMARK VINA RESULT: -9.386246913      1.940      5.876
REMARK  10 active torsions:
REMARK  status: ('A' for Active; 'I' for Inactive)
REMARK    1  A    between atoms: S1_2  and  C1_4 
REMARK    2  A    between atoms: S1_2  and  N1_10 
REMARK    3  A    between atoms: N1_10  and  C7_11 
REMARK    4  A    between atoms: N1_10  and  C14_18 
REMARK    5  A    between atoms: C7_11  and  C8_12 
REMARK    6  A    between atoms: C17_24  and  N3_25 
REMARK    7  A    between atoms: N3_25  and  C18_26 
REMARK    8  A    between atoms: N3_25  and  S2_33 
REMARK    9  A    between atoms: C18_26  and  C19_27 
REMARK   10  A    between atoms: S2_33  and  C25_36 
ROOT
HETATM    1  C14 UNL     1      12.064 -20.100 -18.177  1.00  0.00     0.147 C 
HETATM    2  C15 UNL     1      11.888 -18.960 -19.359  1.00  0.00     0.260 C 
HETATM    3  N2  UNL     1      12.920 -18.025 -19.044  1.00  0.00    -0.071 N 
ATOM      4  H21 UNL     1      12.582 -17.063 -19.026  1.00  0.00     0.277 HD
ATOM      5  H22 UNL     1      13.598 -17.923 -19.800  1.00  0.00     0.277 HD
HETATM    6  C16 UNL     1      13.540 -18.414 -17.798  1.00  0.00     0.260 C 
HETATM    7  C17 UNL     1      12.319 -19.104 -17.145  1.00  0.00     0.147 C 
ENDROOT
BRANCH   1   8
HETATM    8  N1  UNL     1      10.819 -20.731 -18.341  1.00  0.00    -0.294 N 
BRANCH   8   9
HETATM    9  S1  UNL     1      10.860 -22.365 -18.681  1.00  0.00     0.261 S 
HETATM   10  O1  UNL     1       9.600 -22.684 -19.517  1.00  0.00    -0.200 OA
HETATM   11  O2  UNL     1      10.642 -23.233 -17.438  1.00  0.00    -0.200 OA
BRANCH   9  12
HETATM   12  C1  UNL     1      12.244 -23.025 -19.479  1.00  0.00     0.079 A 
HETATM   13  C2  UNL     1      12.555 -22.706 -20.783  1.00  0.00     0.025 A 
HETATM   14  C3  UNL     1      13.626 -23.240 -21.471  1.00  0.00     0.002 A 
HETATM   15  C4  UNL     1      14.436 -24.149 -20.814  1.00  0.00     0.000 A 
HETATM   16  C5  UNL     1      14.155 -24.495 -19.501  1.00  0.00     0.002 A 
HETATM   17  C6  UNL     1      13.064 -23.934 -18.841  1.00  0.00     0.025 A 
ENDBRANCH   9  12
ENDBRANCH   8   9
BRANCH   8  18
HETATM   18  C7  UNL     1       9.695 -20.250 -17.635  1.00  0.00     0.174 C 
BRANCH  18  19
HETATM   19  C8  UNL     1       8.852 -19.263 -18.364  1.00  0.00    -0.040 A 
HETATM   20  C9  UNL     1       7.968 -19.613 -19.361  1.00  0.00     0.009 A 
HETATM   21  C10 UNL     1       7.205 -18.658 -20.020  1.00  0.00     0.001 A 
HETATM   22  C11 UNL     1       7.313 -17.319 -19.684  1.00  0.00     0.000 A 
HETATM   23  C12 UNL     1       8.189 -16.940 -18.688  1.00  0.00     0.001 A 
HETATM   24  C13 UNL     1       8.944 -17.924 -18.045  1.00  0.00     0.009 A 
ENDBRANCH  18  19
ENDBRANCH   8  18
ENDBRANCH   1   8
BRANCH   7  25
HETATM   25  N3  UNL     1      12.374 -19.241 -15.805  1.00  0.00    -0.294 N 
BRANCH  25  26
HETATM   26  C18 UNL     1      12.609 -20.611 -15.306  1.00  0.00     0.174 C 
BRANCH  26  27
HETATM   27  C19 UNL     1      14.003 -21.044 -15.375  1.00  0.00    -0.040 A 
HETATM   28  C20 UNL     1      14.340 -22.321 -15.845  1.00  0.00     0.009 A 
HETATM   29  C21 UNL     1      15.606 -22.794 -15.942  1.00  0.00     0.001 A 
HETATM   30  C22 UNL     1      16.652 -22.001 -15.564  1.00  0.00     0.000 A 
HETATM   31  C23 UNL     1      16.388 -20.726 -15.090  1.00  0.00     0.001 A 
HETATM   32  C24 UNL     1      15.084 -20.274 -15.004  1.00  0.00     0.009 A 
ENDBRANCH  26  27
ENDBRANCH  25  26
BRANCH  25  33
HETATM   33  S2  UNL     1      11.795 -18.316 -14.596  1.00  0.00     0.261 S 
HETATM   34  O3  UNL     1      12.598 -16.993 -14.554  1.00  0.00    -0.200 OA
HETATM   35  O4  UNL     1      12.010 -18.867 -13.190  1.00  0.00    -0.200 OA
BRANCH  33  36
HETATM   36  C25 UNL     1      10.135 -17.798 -14.602  1.00  0.00     0.079 A 
HETATM   37  C26 UNL     1       9.121 -18.739 -14.554  1.00  0.00     0.025 A 
HETATM   38  C27 UNL     1       7.792 -18.413 -14.615  1.00  0.00     0.002 A 
HETATM   39  C28 UNL     1       7.407 -17.107 -14.730  1.00  0.00     0.000 A 
HETATM   40  C29 UNL     1       8.390 -16.135 -14.781  1.00  0.00     0.002 A 
HETATM   41  C30 UNL     1       9.733 -16.484 -14.716  1.00  0.00     0.025 A 
ENDBRANCH  33  36
ENDBRANCH  25  33
ENDBRANCH   7  25
TORSDOF 10
ENDMDL
