MODEL 3
REMARK VINA RESULT: -9.443366466      4.086      5.905
REMARK  8 active torsions:
REMARK  status: ('A' for Active; 'I' for Inactive)
REMARK    1  A    between atoms: C1_2  and  C2_3 
REMARK       I    between atoms: C1_2  and  N1_12 
REMARK    2  A    between atoms: C2_3  and  C3_4 
REMARK    3  A    between atoms: C6_7  and  O2_8 
REMARK    4  A    between atoms: N1_12  and  C9_14 
REMARK    5  A    between atoms: C11_18  and  C12_19 
REMARK    6  A    between atoms: C15_22  and  O3_23 
REMARK    7  A    between atoms: C18_29  and  C19_30 
REMARK    8  A    between atoms: C19_30  and  C20_31 
ROOT
HETATM    1  C9  UNL     1     -10.540  -4.752  34.090  1.00  0.00     0.131 A 
HETATM    2  N2  UNL     1     -11.802  -4.638  33.615  1.00  0.00    -0.348 N 
ATOM      3  H2  UNL     1     -12.250  -5.459  33.208  1.00  0.00     0.167 HD
HETATM    4  C10 UNL     1     -12.497  -3.467  33.660  1.00  0.00     0.120 A 
HETATM    5  C11 UNL     1     -11.928  -2.337  34.202  1.00  0.00     0.058 A 
HETATM    6  N3  UNL     1     -10.673  -2.443  34.677  1.00  0.00    -0.354 N 
ATOM      7  H3  UNL     1     -10.223  -1.622  35.083  1.00  0.00     0.166 HD
HETATM    8  C18 UNL     1      -9.986  -3.625  34.628  1.00  0.00     0.058 A 
ENDROOT
BRANCH   1   9
HETATM    9  N1  UNL     1      -9.818  -5.966  33.992  1.00  0.00    -0.311 N 
HETATM   10  C1  UNL     1     -10.239  -7.100  34.752  1.00  0.00     0.227 C 
HETATM   11  O1  UNL     1     -11.233  -6.984  35.494  1.00  0.00    -0.273 OA
ATOM     12  H1  UNL     1      -9.002  -6.030  33.383  1.00  0.00     0.170 HD
BRANCH  10  13
HETATM   13  C2  UNL     1      -9.525  -8.399  34.678  1.00  0.00     0.141 C 
BRANCH  13  14
HETATM   14  C3  UNL     1     -10.445  -9.528  34.524  1.00  0.00    -0.049 A 
HETATM   15  C4  UNL     1     -11.060  -9.738  33.319  1.00  0.00     0.010 A 
HETATM   16  C5  UNL     1     -11.932 -10.791  33.170  1.00  0.00     0.037 A 
HETATM   17  C6  UNL     1     -12.201 -11.641  34.216  1.00  0.00     0.065 A 
HETATM   18  C7  UNL     1     -11.567 -11.410  35.424  1.00  0.00     0.037 A 
HETATM   19  C8  UNL     1     -10.690 -10.364  35.600  1.00  0.00     0.010 A 
BRANCH  17  20
HETATM   20  O2  UNL     1     -13.089 -12.722  34.082  1.00  0.00    -0.361 OA
ATOM     21  H2  UNL     1     -12.971 -13.530  34.567  1.00  0.00     0.217 HD
ENDBRANCH  17  20
ENDBRANCH  13  14
ENDBRANCH  10  13
ENDBRANCH   1   9
BRANCH   8  22
HETATM   22  C19 UNL     1      -8.642  -3.607  35.241  1.00  0.00     0.099 C 
BRANCH  22  23
HETATM   23  C20 UNL     1      -8.648  -3.640  36.722  1.00  0.00    -0.052 A 
HETATM   24  C21 UNL     1      -8.181  -2.501  37.408  1.00  0.00     0.007 A 
HETATM   25  C22 UNL     1      -8.132  -2.452  38.764  1.00  0.00     0.001 A 
HETATM   26  C23 UNL     1      -8.554  -3.555  39.478  1.00  0.00     0.000 A 
HETATM   27  C24 UNL     1      -9.014  -4.677  38.820  1.00  0.00     0.001 A 
HETATM   28  C25 UNL     1      -9.064  -4.727  37.427  1.00  0.00     0.007 A 
ENDBRANCH  22  23
ENDBRANCH   8  22
BRANCH   5  29
HETATM   29  C12 UNL     1     -12.643  -1.054  34.271  1.00  0.00    -0.008 A 
HETATM   30  C13 UNL     1     -12.914  -0.267  33.184  1.00  0.00     0.016 A 
HETATM   31  C14 UNL     1     -13.601   0.942  33.338  1.00  0.00     0.037 A 
HETATM   32  C15 UNL     1     -14.018   1.369  34.581  1.00  0.00     0.065 A 
HETATM   33  C16 UNL     1     -13.754   0.588  35.691  1.00  0.00     0.037 A 
HETATM   34  C17 UNL     1     -13.072  -0.604  35.510  1.00  0.00     0.016 A 
BRANCH  32  35
HETATM   35  O3  UNL     1     -14.701   2.563  34.761  1.00  0.00    -0.361 OA
ATOM     36  H3  UNL     1     -15.563   2.598  35.157  1.00  0.00     0.217 HD
ENDBRANCH  32  35
ENDBRANCH   5  29
TORSDOF 8
ENDMDL
