MODEL 1
REMARK VINA RESULT: -9.656517329      0.000      0.000
REMARK  8 active torsions:
REMARK  status: ('A' for Active; 'I' for Inactive)
REMARK    1  A    between atoms: C1_2  and  C2_3 
REMARK       I    between atoms: C1_2  and  N1_12 
REMARK    2  A    between atoms: C2_3  and  C3_4 
REMARK    3  A    between atoms: C6_7  and  O2_8 
REMARK    4  A    between atoms: N1_12  and  C9_14 
REMARK    5  A    between atoms: C11_18  and  C12_19 
REMARK    6  A    between atoms: C15_22  and  O3_23 
REMARK    7  A    between atoms: C18_29  and  C19_30 
REMARK    8  A    between atoms: C19_30  and  C20_31 
ROOT
HETATM    1  C9  UNL     1     -10.809  -7.470  36.065  1.00  0.00     0.131 A 
HETATM    2  N2  UNL     1     -10.088  -6.622  35.293  1.00  0.00    -0.348 N 
ATOM      3  H2  UNL     1     -10.075  -6.768  34.283  1.00  0.00     0.167 HD
HETATM    4  C10 UNL     1      -9.379  -5.583  35.814  1.00  0.00     0.120 A 
HETATM    5  C11 UNL     1      -9.373  -5.353  37.172  1.00  0.00     0.058 A 
HETATM    6  N3  UNL     1     -10.087  -6.191  37.944  1.00  0.00    -0.354 N 
ATOM      7  H3  UNL     1     -10.099  -6.048  38.955  1.00  0.00     0.166 HD
HETATM    8  C18 UNL     1     -10.796  -7.231  37.409  1.00  0.00     0.058 A 
ENDROOT
BRANCH   1   9
HETATM    9  N1  UNL     1     -11.501  -8.572  35.508  1.00  0.00    -0.311 N 
HETATM   10  C1  UNL     1     -12.705  -8.350  34.771  1.00  0.00     0.227 C 
HETATM   11  O1  UNL     1     -13.119  -7.182  34.647  1.00  0.00    -0.273 OA
ATOM     12  H1  UNL     1     -11.143  -9.519  35.632  1.00  0.00     0.170 HD
BRANCH  10  13
HETATM   13  C2  UNL     1     -13.463  -9.468  34.157  1.00  0.00     0.141 C 
BRANCH  13  14
HETATM   14  C3  UNL     1     -14.637  -9.841  34.949  1.00  0.00    -0.049 A 
HETATM   15  C4  UNL     1     -15.793  -9.119  34.827  1.00  0.00     0.010 A 
HETATM   16  C5  UNL     1     -16.896  -9.459  35.575  1.00  0.00     0.037 A 
HETATM   17  C6  UNL     1     -16.858 -10.517  36.451  1.00  0.00     0.065 A 
HETATM   18  C7  UNL     1     -15.679 -11.234  36.558  1.00  0.00     0.037 A 
HETATM   19  C8  UNL     1     -14.562 -10.915  35.821  1.00  0.00     0.010 A 
BRANCH  17  20
HETATM   20  O2  UNL     1     -17.974 -10.879  37.224  1.00  0.00    -0.361 OA
ATOM     21  H2  UNL     1     -18.246 -11.784  37.318  1.00  0.00     0.217 HD
ENDBRANCH  17  20
ENDBRANCH  13  14
ENDBRANCH  10  13
ENDBRANCH   1   9
BRANCH   8  22
HETATM   22  C19 UNL     1     -11.582  -8.030  38.372  1.00  0.00     0.099 C 
BRANCH  22  23
HETATM   23  C20 UNL     1     -12.956  -7.529  38.602  1.00  0.00    -0.052 A 
HETATM   24  C21 UNL     1     -13.106  -6.286  39.249  1.00  0.00     0.007 A 
HETATM   25  C22 UNL     1     -14.328  -5.761  39.518  1.00  0.00     0.001 A 
HETATM   26  C23 UNL     1     -15.448  -6.474  39.142  1.00  0.00     0.000 A 
HETATM   27  C24 UNL     1     -15.318  -7.692  38.507  1.00  0.00     0.001 A 
HETATM   28  C25 UNL     1     -14.062  -8.231  38.231  1.00  0.00     0.007 A 
ENDBRANCH  22  23
ENDBRANCH   8  22
BRANCH   5  29
HETATM   29  C12 UNL     1      -8.621  -4.242  37.775  1.00  0.00    -0.008 A 
HETATM   30  C13 UNL     1      -7.348  -4.352  38.264  1.00  0.00     0.016 A 
HETATM   31  C14 UNL     1      -6.705  -3.243  38.824  1.00  0.00     0.037 A 
HETATM   32  C15 UNL     1      -7.335  -2.018  38.897  1.00  0.00     0.065 A 
HETATM   33  C16 UNL     1      -8.622  -1.887  38.408  1.00  0.00     0.037 A 
HETATM   34  C17 UNL     1      -9.234  -3.002  37.860  1.00  0.00     0.016 A 
BRANCH  32  35
HETATM   35  O3  UNL     1      -6.720  -0.903  39.447  1.00  0.00    -0.361 OA
ATOM     36  H3  UNL     1      -6.506  -0.847  40.370  1.00  0.00     0.217 HD
ENDBRANCH  32  35
ENDBRANCH   5  29
TORSDOF 8
ENDMDL
