MODEL 2
REMARK VINA RESULT: -9.567698178      3.917      5.958
REMARK  8 active torsions:
REMARK  status: ('A' for Active; 'I' for Inactive)
REMARK    1  A    between atoms: C1_2  and  C2_3 
REMARK       I    between atoms: C1_2  and  N1_12 
REMARK    2  A    between atoms: C2_3  and  C3_4 
REMARK    3  A    between atoms: C6_7  and  O2_8 
REMARK    4  A    between atoms: N1_12  and  C9_14 
REMARK    5  A    between atoms: C11_18  and  C12_19 
REMARK    6  A    between atoms: C15_22  and  O3_23 
REMARK    7  A    between atoms: C18_29  and  C19_30 
REMARK    8  A    between atoms: C19_30  and  C20_31 
ROOT
HETATM    1  C9  UNL     1     -10.858  -5.010  35.411  1.00  0.00     0.131 A 
HETATM    2  N2  UNL     1     -11.328  -4.689  34.182  1.00  0.00    -0.348 N 
ATOM      3  H2  UNL     1     -11.253  -5.377  33.433  1.00  0.00     0.167 HD
HETATM    4  C10 UNL     1     -11.897  -3.482  33.911  1.00  0.00     0.120 A 
HETATM    5  C11 UNL     1     -12.017  -2.528  34.896  1.00  0.00     0.058 A 
HETATM    6  N3  UNL     1     -11.552  -2.841  36.119  1.00  0.00    -0.354 N 
ATOM      7  H3  UNL     1     -11.625  -2.153  36.870  1.00  0.00     0.166 HD
HETATM    8  C18 UNL     1     -10.984  -4.057  36.381  1.00  0.00     0.058 A 
ENDROOT
BRANCH   1   9
HETATM    9  N1  UNL     1     -10.228  -6.253  35.661  1.00  0.00    -0.311 N 
HETATM   10  C1  UNL     1     -11.024  -7.426  35.831  1.00  0.00     0.227 C 
HETATM   11  O1  UNL     1     -12.264  -7.319  35.763  1.00  0.00    -0.273 OA
ATOM     12  H1  UNL     1      -9.211  -6.310  35.721  1.00  0.00     0.170 HD
BRANCH  10  13
HETATM   13  C2  UNL     1     -10.415  -8.755  36.085  1.00  0.00     0.141 C 
BRANCH  13  14
HETATM   14  C3  UNL     1     -10.982  -9.797  35.227  1.00  0.00    -0.049 A 
HETATM   15  C4  UNL     1     -11.510 -10.926  35.794  1.00  0.00     0.010 A 
HETATM   16  C5  UNL     1     -12.035 -11.913  34.993  1.00  0.00     0.037 A 
HETATM   17  C6  UNL     1     -12.040 -11.787  33.625  1.00  0.00     0.065 A 
HETATM   18  C7  UNL     1     -11.502 -10.637  33.074  1.00  0.00     0.037 A 
HETATM   19  C8  UNL     1     -10.971  -9.635  33.852  1.00  0.00     0.010 A 
BRANCH  17  20
HETATM   20  O2  UNL     1     -12.572 -12.785  32.791  1.00  0.00    -0.361 OA
ATOM     21  H2  UNL     1     -12.029 -13.469  32.417  1.00  0.00     0.217 HD
ENDBRANCH  17  20
ENDBRANCH  13  14
ENDBRANCH  10  13
ENDBRANCH   1   9
BRANCH   8  22
HETATM   22  C19 UNL     1     -10.575  -4.282  37.782  1.00  0.00     0.099 C 
BRANCH  22  23
HETATM   23  C20 UNL     1      -9.234  -3.751  38.120  1.00  0.00    -0.052 A 
HETATM   24  C21 UNL     1      -8.194  -4.675  38.340  1.00  0.00     0.007 A 
HETATM   25  C22 UNL     1      -6.940  -4.277  38.673  1.00  0.00     0.001 A 
HETATM   26  C23 UNL     1      -6.690  -2.925  38.796  1.00  0.00     0.000 A 
HETATM   27  C24 UNL     1      -7.699  -2.008  38.583  1.00  0.00     0.001 A 
HETATM   28  C25 UNL     1      -8.986  -2.418  38.241  1.00  0.00     0.007 A 
ENDBRANCH  22  23
ENDBRANCH   8  22
BRANCH   5  29
HETATM   29  C12 UNL     1     -12.625  -1.213  34.645  1.00  0.00    -0.008 A 
HETATM   30  C13 UNL     1     -12.675  -0.612  33.417  1.00  0.00     0.016 A 
HETATM   31  C14 UNL     1     -13.273   0.644  33.266  1.00  0.00     0.037 A 
HETATM   32  C15 UNL     1     -13.824   1.303  34.344  1.00  0.00     0.065 A 
HETATM   33  C16 UNL     1     -13.784   0.712  35.594  1.00  0.00     0.037 A 
HETATM   34  C17 UNL     1     -13.185  -0.531  35.714  1.00  0.00     0.016 A 
BRANCH  32  35
HETATM   35  O3  UNL     1     -14.423   2.548  34.221  1.00  0.00    -0.361 OA
ATOM     36  H3  UNL     1     -14.579   3.110  34.971  1.00  0.00     0.217 HD
ENDBRANCH  32  35
ENDBRANCH   5  29
TORSDOF 8
ENDMDL
