MODEL 2
REMARK VINA RESULT: -9.136088872      1.473      3.525
REMARK  15 active torsions:
REMARK  status: ('A' for Active; 'I' for Inactive)
REMARK       I    between atoms: N1_2  and  C2_4 
REMARK    1  A    between atoms: C2_4  and  C3_6 
REMARK    2  A    between atoms: C3_6  and  C4_7 
REMARK    3  A    between atoms: C4_7  and  C5_8 
REMARK       I    between atoms: C5_8  and  N2_10 
REMARK    4  A    between atoms: N2_10  and  C6_12 
REMARK    5  A    between atoms: C6_12  and  C7_13 
REMARK    6  A    between atoms: C6_12  and  C14_20 
REMARK    7  A    between atoms: C7_13  and  C8_14 
REMARK    8  A    between atoms: C14_20  and  O3_21 
REMARK    9  A    between atoms: C14_20  and  C15_23 
REMARK   10  A    between atoms: C15_23  and  N3_24 
REMARK   11  A    between atoms: N3_24  and  C16_25 
REMARK   12  A    between atoms: N3_24  and  S1_29 
REMARK   13  A    between atoms: C16_25  and  C17_26 
REMARK   14  A    between atoms: S1_29  and  C20_32 
REMARK   15  A    between atoms: C24_36  and  O6_37 
ROOT
HETATM    1  C14 UNL     1      20.301  29.156  15.431  1.00  0.00     0.203 C 
ENDROOT
BRANCH   1   2
HETATM    2  C6  UNL     1      19.900  28.764  14.032  1.00  0.00     0.027 C 
BRANCH   2   3
HETATM    3  N2  UNL     1      20.953  28.217  13.255  1.00  0.00    -0.331 N 
HETATM    4  C5  UNL     1      21.626  28.928  12.243  1.00  0.00     0.222 C 
HETATM    5  O2  UNL     1      21.266  30.112  12.026  1.00  0.00    -0.273 OA
ATOM      6  H2  UNL     1      21.239  27.256  13.440  1.00  0.00     0.168 HD
BRANCH   4   7
HETATM    7  C4  UNL     1      22.734  28.362  11.417  1.00  0.00     0.112 C 
BRANCH   7   8
HETATM    8  C3  UNL     1      23.492  27.298  12.152  1.00  0.00     0.112 C 
BRANCH   8   9
HETATM    9  C2  UNL     1      23.913  26.216  11.252  1.00  0.00     0.217 C 
HETATM   10  N1  UNL     1      23.637  26.308   9.860  1.00  0.00    -0.365 N 
HETATM   11  C1  UNL     1      24.045  25.253   8.968  1.00  0.00     0.149 C 
ATOM     12  H1  UNL     1      23.147  27.123   9.490  1.00  0.00     0.161 HD
HETATM   13  O1  UNL     1      24.509  25.224  11.709  1.00  0.00    -0.274 OA
ENDBRANCH   8   9
ENDBRANCH   7   8
ENDBRANCH   4   7
ENDBRANCH   2   3
BRANCH   2  14
HETATM   14  C7  UNL     1      18.550  28.186  13.854  1.00  0.00     0.094 C 
BRANCH  14  15
HETATM   15  C8  UNL     1      18.114  27.756  12.546  1.00  0.00    -0.053 A 
HETATM   16  C9  UNL     1      18.302  26.463  12.114  1.00  0.00     0.007 A 
HETATM   17  C10 UNL     1      17.894  26.106  10.845  1.00  0.00     0.001 A 
HETATM   18  C11 UNL     1      17.296  27.020   9.985  1.00  0.00     0.000 A 
HETATM   19  C12 UNL     1      17.103  28.327  10.414  1.00  0.00     0.001 A 
HETATM   20  C13 UNL     1      17.521  28.632  11.674  1.00  0.00     0.007 A 
ENDBRANCH  14  15
ENDBRANCH   2  14
ENDBRANCH   1   2
BRANCH   1  21
HETATM   21  O3  UNL     1      20.170  27.945  16.182  1.00  0.00    -0.385 OA
ATOM     22  H3  UNL     1      19.232  27.804  16.228  1.00  0.00     0.211 HD
ENDBRANCH   1  21
BRANCH   1  23
HETATM   23  C15 UNL     1      19.417  30.179  16.084  1.00  0.00     0.113 C 
BRANCH  23  24
HETATM   24  N3  UNL     1      19.580  31.500  15.628  1.00  0.00    -0.283 N 
BRANCH  24  25
HETATM   25  C16 UNL     1      20.911  31.802  15.266  1.00  0.00     0.145 C 
BRANCH  25  26
HETATM   26  C17 UNL     1      21.763  32.289  16.404  1.00  0.00     0.005 A 
HETATM   27  C18 UNL     1      21.766  33.648  16.937  1.00  0.00     0.007 A 
HETATM   28  C19 UNL     1      22.900  33.229  16.071  1.00  0.00     0.007 A 
ENDBRANCH  25  26
ENDBRANCH  24  25
BRANCH  24  29
HETATM   29  S1  UNL     1      18.313  32.300  14.898  1.00  0.00     0.264 S 
HETATM   30  O4  UNL     1      18.702  33.377  13.942  1.00  0.00    -0.200 OA
HETATM   31  O5  UNL     1      17.315  31.406  14.217  1.00  0.00    -0.200 OA
BRANCH  29  32
HETATM   32  C20 UNL     1      17.363  33.108  16.176  1.00  0.00     0.082 A 
HETATM   33  C21 UNL     1      15.987  33.039  16.199  1.00  0.00     0.025 A 
HETATM   34  C22 UNL     1      15.244  33.666  17.172  1.00  0.00     0.004 A 
HETATM   35  C23 UNL     1      15.910  34.386  18.156  1.00  0.00     0.037 A 
HETATM   36  C24 UNL     1      17.290  34.473  18.159  1.00  0.00     0.069 A 
HETATM   37  C26 UNL     1      17.991  33.830  17.165  1.00  0.00     0.061 A 
BRANCH  36  38
HETATM   38  O6  UNL     1      17.894  35.207  19.164  1.00  0.00    -0.356 OA
HETATM   39  C25 UNL     1      19.271  35.244  19.394  1.00  0.00     0.210 C 
ENDBRANCH  36  38
ENDBRANCH  29  32
ENDBRANCH  24  29
ENDBRANCH  23  24
ENDBRANCH   1  23
TORSDOF 15
ENDMDL
