MODEL 9
REMARK VINA RESULT: -8.860795559      2.184      5.370
REMARK  15 active torsions:
REMARK  status: ('A' for Active; 'I' for Inactive)
REMARK       I    between atoms: N1_2  and  C2_4 
REMARK    1  A    between atoms: C2_4  and  C3_6 
REMARK    2  A    between atoms: C3_6  and  C4_7 
REMARK    3  A    between atoms: C4_7  and  C5_8 
REMARK       I    between atoms: C5_8  and  N2_10 
REMARK    4  A    between atoms: N2_10  and  C6_12 
REMARK    5  A    between atoms: C6_12  and  C7_13 
REMARK    6  A    between atoms: C6_12  and  C14_20 
REMARK    7  A    between atoms: C7_13  and  C8_14 
REMARK    8  A    between atoms: C14_20  and  O3_21 
REMARK    9  A    between atoms: C14_20  and  C15_23 
REMARK   10  A    between atoms: C15_23  and  N3_24 
REMARK   11  A    between atoms: N3_24  and  C16_25 
REMARK   12  A    between atoms: N3_24  and  S1_29 
REMARK   13  A    between atoms: C16_25  and  C17_26 
REMARK   14  A    between atoms: S1_29  and  C20_32 
REMARK   15  A    between atoms: C24_36  and  O6_37 
ROOT
HETATM    1  C14 UNL     1      19.905  30.564  16.208  1.00  0.00     0.203 C 
ENDROOT
BRANCH   1   2
HETATM    2  C6  UNL     1      18.553  30.377  15.569  1.00  0.00     0.027 C 
BRANCH   2   3
HETATM    3  N2  UNL     1      18.339  29.085  15.025  1.00  0.00    -0.331 N 
HETATM    4  C5  UNL     1      17.863  28.857  13.720  1.00  0.00     0.222 C 
HETATM    5  O2  UNL     1      17.620  29.861  13.005  1.00  0.00    -0.273 OA
ATOM      6  H2  UNL     1      18.540  28.276  15.612  1.00  0.00     0.168 HD
BRANCH   4   7
HETATM    7  C4  UNL     1      17.631  27.501  13.138  1.00  0.00     0.112 C 
BRANCH   7   8
HETATM    8  C3  UNL     1      18.145  27.400  11.734  1.00  0.00     0.112 C 
BRANCH   8   9
HETATM    9  C2  UNL     1      18.759  26.089  11.478  1.00  0.00     0.217 C 
HETATM   10  N1  UNL     1      20.163  25.923  11.637  1.00  0.00    -0.365 N 
HETATM   11  C1  UNL     1      20.774  24.643  11.388  1.00  0.00     0.149 C 
ATOM     12  H1  UNL     1      20.739  26.714  11.928  1.00  0.00     0.161 HD
HETATM   13  O1  UNL     1      18.050  25.131  11.123  1.00  0.00    -0.274 OA
ENDBRANCH   8   9
ENDBRANCH   7   8
ENDBRANCH   4   7
ENDBRANCH   2   3
BRANCH   2  14
HETATM   14  C7  UNL     1      17.402  31.044  16.217  1.00  0.00     0.094 C 
BRANCH  14  15
HETATM   15  C8  UNL     1      17.046  32.394  15.847  1.00  0.00    -0.053 A 
HETATM   16  C9  UNL     1      17.548  32.984  14.710  1.00  0.00     0.007 A 
HETATM   17  C10 UNL     1      17.201  34.287  14.413  1.00  0.00     0.001 A 
HETATM   18  C11 UNL     1      16.355  35.024  15.234  1.00  0.00     0.000 A 
HETATM   19  C12 UNL     1      15.845  34.434  16.384  1.00  0.00     0.001 A 
HETATM   20  C13 UNL     1      16.215  33.148  16.635  1.00  0.00     0.007 A 
ENDBRANCH  14  15
ENDBRANCH   2  14
ENDBRANCH   1   2
BRANCH   1  21
HETATM   21  O3  UNL     1      19.884  29.675  17.330  1.00  0.00    -0.385 OA
ATOM     22  H3  UNL     1      20.764  29.318  17.357  1.00  0.00     0.211 HD
ENDBRANCH   1  21
BRANCH   1  23
HETATM   23  C15 UNL     1      20.172  31.941  16.741  1.00  0.00     0.113 C 
BRANCH  23  24
HETATM   24  N3  UNL     1      20.908  32.788  15.891  1.00  0.00    -0.283 N 
BRANCH  24  25
HETATM   25  C16 UNL     1      20.746  34.157  16.196  1.00  0.00     0.145 C 
BRANCH  25  26
HETATM   26  C17 UNL     1      19.769  34.429  17.304  1.00  0.00     0.005 A 
HETATM   27  C18 UNL     1      19.141  35.718  17.582  1.00  0.00     0.007 A 
HETATM   28  C19 UNL     1      20.250  35.271  18.467  1.00  0.00     0.007 A 
ENDBRANCH  25  26
ENDBRANCH  24  25
BRANCH  24  29
HETATM   29  S1  UNL     1      22.318  32.249  15.183  1.00  0.00     0.264 S 
HETATM   30  O4  UNL     1      23.148  33.303  14.530  1.00  0.00    -0.200 OA
HETATM   31  O5  UNL     1      23.208  31.445  16.089  1.00  0.00    -0.200 OA
BRANCH  29  32
HETATM   32  C20 UNL     1      21.880  31.105  13.884  1.00  0.00     0.082 A 
HETATM   33  C21 UNL     1      21.011  31.464  12.876  1.00  0.00     0.025 A 
HETATM   34  C22 UNL     1      20.658  30.588  11.876  1.00  0.00     0.004 A 
HETATM   35  C23 UNL     1      21.199  29.309  11.891  1.00  0.00     0.037 A 
HETATM   36  C24 UNL     1      22.074  28.921  12.889  1.00  0.00     0.069 A 
HETATM   37  C26 UNL     1      22.397  29.831  13.869  1.00  0.00     0.061 A 
BRANCH  36  38
HETATM   38  O6  UNL     1      22.578  27.634  12.849  1.00  0.00    -0.356 OA
HETATM   39  C25 UNL     1      23.575  27.205  11.972  1.00  0.00     0.210 C 
ENDBRANCH  36  38
ENDBRANCH  29  32
ENDBRANCH  24  29
ENDBRANCH  23  24
ENDBRANCH   1  23
TORSDOF 15
ENDMDL
