MODEL 5
REMARK VINA RESULT: -9.009247727      1.880      3.571
REMARK  15 active torsions:
REMARK  status: ('A' for Active; 'I' for Inactive)
REMARK       I    between atoms: N1_2  and  C2_4 
REMARK    1  A    between atoms: C2_4  and  C3_6 
REMARK    2  A    between atoms: C3_6  and  C4_7 
REMARK    3  A    between atoms: C4_7  and  C5_8 
REMARK       I    between atoms: C5_8  and  N2_10 
REMARK    4  A    between atoms: N2_10  and  C6_12 
REMARK    5  A    between atoms: C6_12  and  C7_13 
REMARK    6  A    between atoms: C6_12  and  C14_20 
REMARK    7  A    between atoms: C7_13  and  C8_14 
REMARK    8  A    between atoms: C14_20  and  O3_21 
REMARK    9  A    between atoms: C14_20  and  C15_23 
REMARK   10  A    between atoms: C15_23  and  N3_24 
REMARK   11  A    between atoms: N3_24  and  C16_25 
REMARK   12  A    between atoms: N3_24  and  S1_29 
REMARK   13  A    between atoms: C16_25  and  C17_26 
REMARK   14  A    between atoms: S1_29  and  C20_32 
REMARK   15  A    between atoms: C24_36  and  O6_37 
ROOT
HETATM    1  C14 UNL     1      19.512  28.685  13.721  1.00  0.00     0.203 C 
ENDROOT
BRANCH   1   2
HETATM    2  C6  UNL     1      20.174  28.116  12.492  1.00  0.00     0.027 C 
BRANCH   2   3
HETATM    3  N2  UNL     1      19.314  27.993  11.371  1.00  0.00    -0.331 N 
HETATM    4  C5  UNL     1      18.601  26.819  11.059  1.00  0.00     0.222 C 
HETATM    5  O2  UNL     1      18.740  25.833  11.825  1.00  0.00    -0.273 OA
ATOM      6  H2  UNL     1      19.206  28.799  10.756  1.00  0.00     0.168 HD
BRANCH   4   7
HETATM    7  C4  UNL     1      17.695  26.678   9.880  1.00  0.00     0.112 C 
BRANCH   7   8
HETATM    8  C3  UNL     1      18.456  26.657   8.590  1.00  0.00     0.112 C 
BRANCH   8   9
HETATM    9  C2  UNL     1      19.168  25.384   8.405  1.00  0.00     0.217 C 
HETATM   10  N1  UNL     1      20.535  25.390   8.011  1.00  0.00    -0.365 N 
HETATM   11  C1  UNL     1      21.242  24.148   7.828  1.00  0.00     0.149 C 
ATOM     12  H1  UNL     1      21.016  26.276   7.858  1.00  0.00     0.161 HD
HETATM   13  O1  UNL     1      18.574  24.307   8.593  1.00  0.00    -0.274 OA
ENDBRANCH   8   9
ENDBRANCH   7   8
ENDBRANCH   4   7
ENDBRANCH   2   3
BRANCH   2  14
HETATM   14  C7  UNL     1      21.576  28.511  12.236  1.00  0.00     0.094 C 
BRANCH  14  15
HETATM   15  C8  UNL     1      22.563  27.507  11.912  1.00  0.00    -0.053 A 
HETATM   16  C9  UNL     1      23.894  27.683  12.214  1.00  0.00     0.007 A 
HETATM   17  C10 UNL     1      24.804  26.708  11.858  1.00  0.00     0.001 A 
HETATM   18  C11 UNL     1      24.413  25.548  11.199  1.00  0.00     0.000 A 
HETATM   19  C12 UNL     1      23.071  25.364  10.890  1.00  0.00     0.001 A 
HETATM   20  C13 UNL     1      22.211  26.353  11.261  1.00  0.00     0.007 A 
ENDBRANCH  14  15
ENDBRANCH   2  14
ENDBRANCH   1   2
BRANCH   1  21
HETATM   21  O3  UNL     1      18.839  27.564  14.302  1.00  0.00    -0.385 OA
ATOM     22  H3  UNL     1      19.201  27.508  15.179  1.00  0.00     0.211 HD
ENDBRANCH   1  21
BRANCH   1  23
HETATM   23  C15 UNL     1      18.473  29.735  13.455  1.00  0.00     0.113 C 
BRANCH  23  24
HETATM   24  N3  UNL     1      18.631  30.938  14.168  1.00  0.00    -0.283 N 
BRANCH  24  25
HETATM   25  C16 UNL     1      18.641  30.755  15.569  1.00  0.00     0.145 C 
BRANCH  25  26
HETATM   26  C17 UNL     1      17.388  31.216  16.258  1.00  0.00     0.005 A 
HETATM   27  C18 UNL     1      16.394  32.122  15.690  1.00  0.00     0.007 A 
HETATM   28  C19 UNL     1      17.331  32.658  16.712  1.00  0.00     0.007 A 
ENDBRANCH  25  26
ENDBRANCH  24  25
BRANCH  24  29
HETATM   29  S1  UNL     1      19.451  32.218  13.486  1.00  0.00     0.264 S 
HETATM   30  O4  UNL     1      19.874  32.025  12.068  1.00  0.00    -0.200 OA
HETATM   31  O5  UNL     1      18.745  33.542  13.588  1.00  0.00    -0.200 OA
BRANCH  29  32
HETATM   32  C20 UNL     1      20.958  32.463  14.411  1.00  0.00     0.082 A 
HETATM   33  C21 UNL     1      22.066  31.670  14.200  1.00  0.00     0.025 A 
HETATM   34  C22 UNL     1      23.229  31.841  14.913  1.00  0.00     0.004 A 
HETATM   35  C23 UNL     1      23.279  32.846  15.871  1.00  0.00     0.037 A 
HETATM   36  C24 UNL     1      22.184  33.657  16.105  1.00  0.00     0.069 A 
HETATM   37  C26 UNL     1      21.042  33.448  15.368  1.00  0.00     0.061 A 
BRANCH  36  38
HETATM   38  O6  UNL     1      22.296  34.639  17.073  1.00  0.00    -0.356 OA
HETATM   39  C25 UNL     1      21.842  34.506  18.386  1.00  0.00     0.210 C 
ENDBRANCH  36  38
ENDBRANCH  29  32
ENDBRANCH  24  29
ENDBRANCH  23  24
ENDBRANCH   1  23
TORSDOF 15
ENDMDL
