MODEL 6
REMARK VINA RESULT: -8.928670518      2.634      9.182
REMARK  15 active torsions:
REMARK  status: ('A' for Active; 'I' for Inactive)
REMARK       I    between atoms: N1_2  and  C2_4 
REMARK    1  A    between atoms: C2_4  and  C3_6 
REMARK    2  A    between atoms: C3_6  and  C4_7 
REMARK    3  A    between atoms: C4_7  and  C5_8 
REMARK       I    between atoms: C5_8  and  N2_10 
REMARK    4  A    between atoms: N2_10  and  C6_12 
REMARK    5  A    between atoms: C6_12  and  C7_13 
REMARK    6  A    between atoms: C6_12  and  C14_20 
REMARK    7  A    between atoms: C7_13  and  C8_14 
REMARK    8  A    between atoms: C14_20  and  O3_21 
REMARK    9  A    between atoms: C14_20  and  C15_23 
REMARK   10  A    between atoms: C15_23  and  N3_24 
REMARK   11  A    between atoms: N3_24  and  C16_25 
REMARK   12  A    between atoms: N3_24  and  S1_29 
REMARK   13  A    between atoms: C16_25  and  C17_26 
REMARK   14  A    between atoms: S1_29  and  C20_32 
REMARK   15  A    between atoms: C24_36  and  O6_37 
ROOT
HETATM    1  C14 UNL     1      18.639  29.208  14.008  1.00  0.00     0.203 C 
ENDROOT
BRANCH   1   2
HETATM    2  C6  UNL     1      18.811  30.238  15.094  1.00  0.00     0.027 C 
BRANCH   2   3
HETATM    3  N2  UNL     1      17.608  30.594  15.756  1.00  0.00    -0.331 N 
HETATM    4  C5  UNL     1      16.978  31.844  15.610  1.00  0.00     0.222 C 
HETATM    5  O2  UNL     1      17.519  32.684  14.848  1.00  0.00    -0.273 OA
ATOM      6  H2  UNL     1      17.175  29.905  16.371  1.00  0.00     0.168 HD
BRANCH   4   7
HETATM    7  C4  UNL     1      15.713  32.230  16.304  1.00  0.00     0.112 C 
BRANCH   7   8
HETATM    8  C3  UNL     1      15.598  33.714  16.474  1.00  0.00     0.112 C 
BRANCH   8   9
HETATM    9  C2  UNL     1      16.292  34.174  17.685  1.00  0.00     0.217 C 
HETATM   10  N1  UNL     1      17.678  34.487  17.629  1.00  0.00    -0.365 N 
HETATM   11  C1  UNL     1      18.368  34.939  18.810  1.00  0.00     0.149 C 
ATOM     12  H1  UNL     1      18.186  34.392  16.750  1.00  0.00     0.161 HD
HETATM   13  O1  UNL     1      15.665  34.287  18.754  1.00  0.00    -0.274 OA
ENDBRANCH   8   9
ENDBRANCH   7   8
ENDBRANCH   4   7
ENDBRANCH   2   3
BRANCH   2  14
HETATM   14  C7  UNL     1      20.041  30.159  15.911  1.00  0.00     0.094 C 
BRANCH  14  15
HETATM   15  C8  UNL     1      21.109  31.109  15.704  1.00  0.00    -0.053 A 
HETATM   16  C9  UNL     1      22.056  30.926  14.723  1.00  0.00     0.007 A 
HETATM   17  C10 UNL     1      23.075  31.847  14.584  1.00  0.00     0.001 A 
HETATM   18  C11 UNL     1      23.173  32.961  15.410  1.00  0.00     0.000 A 
HETATM   19  C12 UNL     1      22.220  33.152  16.403  1.00  0.00     0.001 A 
HETATM   20  C13 UNL     1      21.234  32.217  16.503  1.00  0.00     0.007 A 
ENDBRANCH  14  15
ENDBRANCH   2  14
ENDBRANCH   1   2
BRANCH   1  21
HETATM   21  O3  UNL     1      18.996  27.974  14.640  1.00  0.00    -0.385 OA
ATOM     22  H3  UNL     1      18.907  27.327  13.950  1.00  0.00     0.211 HD
ENDBRANCH   1  21
BRANCH   1  23
HETATM   23  C15 UNL     1      19.545  29.375  12.822  1.00  0.00     0.113 C 
BRANCH  23  24
HETATM   24  N3  UNL     1      19.642  28.258  11.972  1.00  0.00    -0.283 N 
BRANCH  24  25
HETATM   25  C16 UNL     1      20.832  27.520  12.157  1.00  0.00     0.145 C 
BRANCH  25  26
HETATM   26  C17 UNL     1      22.079  28.255  11.757  1.00  0.00     0.005 A 
HETATM   27  C18 UNL     1      23.289  27.639  11.220  1.00  0.00     0.007 A 
HETATM   28  C19 UNL     1      23.299  28.089  12.637  1.00  0.00     0.007 A 
ENDBRANCH  25  26
ENDBRANCH  24  25
BRANCH  24  29
HETATM   29  S1  UNL     1      18.264  27.499  11.422  1.00  0.00     0.264 S 
HETATM   30  O4  UNL     1      17.757  26.390  12.282  1.00  0.00    -0.200 OA
HETATM   31  O5  UNL     1      17.115  28.421  11.121  1.00  0.00    -0.200 OA
BRANCH  29  32
HETATM   32  C20 UNL     1      18.640  26.752   9.844  1.00  0.00     0.082 A 
HETATM   33  C21 UNL     1      18.112  27.249   8.672  1.00  0.00     0.025 A 
HETATM   34  C22 UNL     1      18.385  26.676   7.451  1.00  0.00     0.004 A 
HETATM   35  C23 UNL     1      19.220  25.566   7.410  1.00  0.00     0.037 A 
HETATM   36  C24 UNL     1      19.764  25.046   8.570  1.00  0.00     0.069 A 
HETATM   37  C26 UNL     1      19.462  25.651   9.767  1.00  0.00     0.061 A 
BRANCH  36  38
HETATM   38  O6  UNL     1      20.586  23.938   8.464  1.00  0.00    -0.356 OA
HETATM   39  C25 UNL     1      21.676  23.846   7.595  1.00  0.00     0.210 C 
ENDBRANCH  36  38
ENDBRANCH  29  32
ENDBRANCH  24  29
ENDBRANCH  23  24
ENDBRANCH   1  23
TORSDOF 15
ENDMDL
