MODEL 4
REMARK VINA RESULT: -9.060843554      1.732      3.695
REMARK  15 active torsions:
REMARK  status: ('A' for Active; 'I' for Inactive)
REMARK       I    between atoms: N1_2  and  C2_4 
REMARK    1  A    between atoms: C2_4  and  C3_6 
REMARK    2  A    between atoms: C3_6  and  C4_7 
REMARK    3  A    between atoms: C4_7  and  C5_8 
REMARK       I    between atoms: C5_8  and  N2_10 
REMARK    4  A    between atoms: N2_10  and  C6_12 
REMARK    5  A    between atoms: C6_12  and  C7_13 
REMARK    6  A    between atoms: C6_12  and  C14_20 
REMARK    7  A    between atoms: C7_13  and  C8_14 
REMARK    8  A    between atoms: C14_20  and  O3_21 
REMARK    9  A    between atoms: C14_20  and  C15_23 
REMARK   10  A    between atoms: C15_23  and  N3_24 
REMARK   11  A    between atoms: N3_24  and  C16_25 
REMARK   12  A    between atoms: N3_24  and  S1_29 
REMARK   13  A    between atoms: C16_25  and  C17_26 
REMARK   14  A    between atoms: S1_29  and  C20_32 
REMARK   15  A    between atoms: C24_36  and  O6_37 
ROOT
HETATM    1  C14 UNL     1      20.011  29.674  15.755  1.00  0.00     0.203 C 
ENDROOT
BRANCH   1   2
HETATM    2  C6  UNL     1      19.765  29.070  14.396  1.00  0.00     0.027 C 
BRANCH   2   3
HETATM    3  N2  UNL     1      20.831  28.271  13.911  1.00  0.00    -0.331 N 
HETATM    4  C5  UNL     1      21.672  28.653  12.849  1.00  0.00     0.222 C 
HETATM    5  O2  UNL     1      21.459  29.767  12.309  1.00  0.00    -0.273 OA
ATOM      6  H2  UNL     1      20.998  27.369  14.357  1.00  0.00     0.168 HD
BRANCH   4   7
HETATM    7  C4  UNL     1      22.797  27.818  12.329  1.00  0.00     0.112 C 
BRANCH   7   8
HETATM    8  C3  UNL     1      22.343  26.439  11.956  1.00  0.00     0.112 C 
BRANCH   8   9
HETATM    9  C2  UNL     1      23.308  25.777  11.067  1.00  0.00     0.217 C 
HETATM   10  N1  UNL     1      23.110  25.811   9.659  1.00  0.00    -0.365 N 
HETATM   11  C1  UNL     1      24.049  25.165   8.779  1.00  0.00     0.149 C 
ATOM     12  H1  UNL     1      22.300  26.295   9.270  1.00  0.00     0.161 HD
HETATM   13  O1  UNL     1      24.292  25.188  11.548  1.00  0.00    -0.274 OA
ENDBRANCH   8   9
ENDBRANCH   7   8
ENDBRANCH   4   7
ENDBRANCH   2   3
BRANCH   2  14
HETATM   14  C7  UNL     1      18.387  28.625  14.095  1.00  0.00     0.094 C 
BRANCH  14  15
HETATM   15  C8  UNL     1      18.036  28.214  12.755  1.00  0.00    -0.053 A 
HETATM   16  C9  UNL     1      17.307  29.029  11.920  1.00  0.00     0.007 A 
HETATM   17  C10 UNL     1      16.971  28.579  10.659  1.00  0.00     0.001 A 
HETATM   18  C11 UNL     1      17.349  27.321  10.205  1.00  0.00     0.000 A 
HETATM   19  C12 UNL     1      18.085  26.493  11.044  1.00  0.00     0.001 A 
HETATM   20  C13 UNL     1      18.393  26.979  12.278  1.00  0.00     0.007 A 
ENDBRANCH  14  15
ENDBRANCH   2  14
ENDBRANCH   1   2
BRANCH   1  21
HETATM   21  O3  UNL     1      20.093  28.542  16.627  1.00  0.00    -0.385 OA
ATOM     22  H3  UNL     1      20.118  28.923  17.497  1.00  0.00     0.211 HD
ENDBRANCH   1  21
BRANCH   1  23
HETATM   23  C15 UNL     1      18.907  30.550  16.272  1.00  0.00     0.113 C 
BRANCH  23  24
HETATM   24  N3  UNL     1      19.044  31.922  15.994  1.00  0.00    -0.283 N 
BRANCH  24  25
HETATM   25  C16 UNL     1      20.385  32.365  16.024  1.00  0.00     0.145 C 
BRANCH  25  26
HETATM   26  C17 UNL     1      20.601  33.617  16.826  1.00  0.00     0.005 A 
HETATM   27  C18 UNL     1      21.184  34.856  16.319  1.00  0.00     0.007 A 
HETATM   28  C19 UNL     1      22.027  33.982  17.178  1.00  0.00     0.007 A 
ENDBRANCH  25  26
ENDBRANCH  24  25
BRANCH  24  29
HETATM   29  S1  UNL     1      17.928  32.700  15.030  1.00  0.00     0.264 S 
HETATM   30  O4  UNL     1      18.501  33.610  13.995  1.00  0.00    -0.200 OA
HETATM   31  O5  UNL     1      16.936  31.792  14.359  1.00  0.00    -0.200 OA
BRANCH  29  32
HETATM   32  C20 UNL     1      16.921  33.736  16.079  1.00  0.00     0.082 A 
HETATM   33  C21 UNL     1      15.895  33.210  16.834  1.00  0.00     0.025 A 
HETATM   34  C22 UNL     1      15.106  33.999  17.638  1.00  0.00     0.004 A 
HETATM   35  C23 UNL     1      15.359  35.364  17.684  1.00  0.00     0.037 A 
HETATM   36  C24 UNL     1      16.382  35.920  16.938  1.00  0.00     0.069 A 
HETATM   37  C26 UNL     1      17.144  35.092  16.148  1.00  0.00     0.061 A 
BRANCH  36  38
HETATM   38  O6  UNL     1      16.582  37.286  17.025  1.00  0.00    -0.356 OA
HETATM   39  C25 UNL     1      16.636  38.000  18.224  1.00  0.00     0.210 C 
ENDBRANCH  36  38
ENDBRANCH  29  32
ENDBRANCH  24  29
ENDBRANCH  23  24
ENDBRANCH   1  23
TORSDOF 15
ENDMDL
