MODEL 18
REMARK VINA RESULT: -7.747437090      2.368      5.676
REMARK  14 active torsions:
REMARK  status: ('A' for Active; 'I' for Inactive)
REMARK       I    between atoms: N1_2  and  C2_4 
REMARK    1  A    between atoms: C2_4  and  C3_6 
REMARK    2  A    between atoms: C3_6  and  C4_7 
REMARK    3  A    between atoms: C4_7  and  C5_8 
REMARK       I    between atoms: C5_8  and  N2_10 
REMARK    4  A    between atoms: N2_10  and  C6_12 
REMARK    5  A    between atoms: C6_12  and  C7_13 
REMARK    6  A    between atoms: C6_12  and  C14_20 
REMARK    7  A    between atoms: C7_13  and  C8_14 
REMARK    8  A    between atoms: C14_20  and  O3_21 
REMARK    9  A    between atoms: C14_20  and  C15_23 
REMARK   10  A    between atoms: C15_23  and  N3_24 
REMARK   11  A    between atoms: N3_24  and  C16_25 
REMARK   12  A    between atoms: N3_24  and  S1_29 
REMARK   13  A    between atoms: C16_25  and  C17_26 
REMARK   14  A    between atoms: S1_29  and  C20_32 
ROOT
HETATM    1  C6  UNL     1      19.372  28.999  14.064  1.00  0.00     0.118 C 
ENDROOT
BRANCH   1   2
HETATM    2  N2  UNL     1      20.540  28.223  13.805  1.00  0.00    -0.354 N 
HETATM    3  C5  UNL     1      21.434  28.527  12.775  1.00  0.00     0.218 C 
HETATM    4  O2  UNL     1      21.155  29.533  12.077  1.00  0.00    -0.274 OA
ATOM      5  H2  UNL     1      20.731  27.414  14.396  1.00  0.00     0.163 HD
BRANCH   3   6
HETATM    6  C4  UNL     1      22.666  27.739  12.475  1.00  0.00     0.112 C 
BRANCH   6   7
HETATM    7  C3  UNL     1      22.331  26.325  12.134  1.00  0.00     0.112 C 
BRANCH   7   8
HETATM    8  C2  UNL     1      23.382  25.809  11.204  1.00  0.00     0.217 C 
HETATM    9  N1  UNL     1      23.134  25.832   9.804  1.00  0.00    -0.365 N 
HETATM   10  C1  UNL     1      24.122  25.341   8.843  1.00  0.00     0.149 C 
ATOM     11  H1  UNL     1      22.246  26.199   9.462  1.00  0.00     0.161 HD
HETATM   12  O1  UNL     1      24.484  25.350  11.607  1.00  0.00    -0.274 OA
ENDBRANCH   7   8
ENDBRANCH   6   7
ENDBRANCH   3   6
ENDBRANCH   1   2
BRANCH   1  13
HETATM   13  C7  UNL     1      18.065  28.344  13.818  1.00  0.00     0.066 C 
BRANCH  13  14
HETATM   14  C8  UNL     1      17.982  27.698  12.473  1.00  0.00    -0.056 A 
HETATM   15  C9  UNL     1      18.257  26.376  12.231  1.00  0.00     0.007 A 
HETATM   16  C10 UNL     1      18.165  25.819  10.957  1.00  0.00     0.001 A 
HETATM   17  C11 UNL     1      17.787  26.599   9.882  1.00  0.00     0.000 A 
HETATM   18  C12 UNL     1      17.509  27.922  10.112  1.00  0.00     0.001 A 
HETATM   19  C13 UNL     1      17.600  28.471  11.370  1.00  0.00     0.007 A 
ENDBRANCH  13  14
ENDBRANCH   1  13
BRANCH   1  20
HETATM   20  C14 UNL     1      19.447  29.470  15.493  1.00  0.00     0.155 C 
BRANCH  20  21
HETATM   21  O3  UNL     1      18.159  29.880  15.912  1.00  0.00    -0.392 OA
ATOM     22  H3  UNL     1      18.247  30.608  16.515  1.00  0.00     0.210 HD
ENDBRANCH  20  21
BRANCH  20  23
HETATM   23  C15 UNL     1      20.445  30.572  15.667  1.00  0.00     0.141 C 
BRANCH  23  24
HETATM   24  N3  UNL     1      20.100  31.783  14.994  1.00  0.00    -0.202 NA
BRANCH  24  25
HETATM   25  C16 UNL     1      21.253  32.250  14.250  1.00  0.00     0.112 C 
BRANCH  25  26
HETATM   26  C17 UNL     1      22.494  31.784  14.931  1.00  0.00    -0.000 A 
HETATM   27  C18 UNL     1      23.261  32.795  15.739  1.00  0.00     0.006 A 
HETATM   28  C19 UNL     1      23.766  32.357  14.408  1.00  0.00     0.006 A 
ENDBRANCH  25  26
ENDBRANCH  24  25
BRANCH  24  29
HETATM   29  S1  UNL     1      19.504  33.044  15.957  1.00  0.00     0.266 S 
HETATM   30  O4  UNL     1      19.943  32.938  17.395  1.00  0.00    -0.204 OA
HETATM   31  O5  UNL     1      20.067  34.379  15.483  1.00  0.00    -0.204 OA
BRANCH  29  32
HETATM   32  C20 UNL     1      17.763  33.124  15.911  1.00  0.00     0.184 A 
HETATM   33  C21 UNL     1      17.020  34.121  15.283  1.00  0.00     0.053 A 
HETATM   34  C22 UNL     1      15.696  33.822  15.475  1.00  0.00     0.028 A 
HETATM   35  C23 UNL     1      15.664  32.664  16.205  1.00  0.00     0.143 A 
HETATM   36  O6  UNL     1      16.892  32.305  16.429  1.00  0.00    -0.310 OA
ENDBRANCH  29  32
ENDBRANCH  24  29
ENDBRANCH  23  24
ENDBRANCH  20  23
ENDBRANCH   1  20
TORSDOF 14
ENDMDL
