MODEL 4
REMARK VINA RESULT: -8.259804685      1.258      3.713
REMARK  14 active torsions:
REMARK  status: ('A' for Active; 'I' for Inactive)
REMARK       I    between atoms: N1_2  and  C2_4 
REMARK    1  A    between atoms: C2_4  and  C3_6 
REMARK    2  A    between atoms: C3_6  and  C4_7 
REMARK    3  A    between atoms: C4_7  and  C5_8 
REMARK       I    between atoms: C5_8  and  N2_10 
REMARK    4  A    between atoms: N2_10  and  C6_12 
REMARK    5  A    between atoms: C6_12  and  C7_13 
REMARK    6  A    between atoms: C6_12  and  C14_20 
REMARK    7  A    between atoms: C7_13  and  C8_14 
REMARK    8  A    between atoms: C14_20  and  O3_21 
REMARK    9  A    between atoms: C14_20  and  C15_23 
REMARK   10  A    between atoms: C15_23  and  N3_24 
REMARK   11  A    between atoms: N3_24  and  C16_25 
REMARK   12  A    between atoms: N3_24  and  S1_29 
REMARK   13  A    between atoms: C16_25  and  C17_26 
REMARK   14  A    between atoms: S1_29  and  C20_32 
ROOT
HETATM    1  C6  UNL     1      18.367  30.094  15.217  1.00  0.00     0.118 C 
ENDROOT
BRANCH   1   2
HETATM    2  N2  UNL     1      18.108  29.032  14.303  1.00  0.00    -0.354 N 
HETATM    3  C5  UNL     1      17.986  29.235  12.926  1.00  0.00     0.218 C 
HETATM    4  O2  UNL     1      18.117  30.418  12.526  1.00  0.00    -0.274 OA
ATOM      5  H2  UNL     1      18.009  28.084  14.668  1.00  0.00     0.163 HD
BRANCH   3   6
HETATM    6  C4  UNL     1      17.715  28.147  11.939  1.00  0.00     0.112 C 
BRANCH   6   7
HETATM    7  C3  UNL     1      18.164  26.822  12.461  1.00  0.00     0.112 C 
BRANCH   7   8
HETATM    8  C2  UNL     1      18.634  26.001  11.303  1.00  0.00     0.217 C 
HETATM    9  N1  UNL     1      18.258  26.389   9.987  1.00  0.00    -0.365 N 
HETATM   10  C1  UNL     1      18.685  25.628   8.813  1.00  0.00     0.149 C 
ATOM     11  H1  UNL     1      17.678  27.219   9.859  1.00  0.00     0.161 HD
HETATM   12  O1  UNL     1      19.349  24.974  11.441  1.00  0.00    -0.274 OA
ENDBRANCH   7   8
ENDBRANCH   6   7
ENDBRANCH   3   6
ENDBRANCH   1   2
BRANCH   1  13
HETATM   13  C7  UNL     1      17.221  30.576  16.026  1.00  0.00     0.066 C 
BRANCH  13  14
HETATM   14  C8  UNL     1      16.867  32.000  15.741  1.00  0.00    -0.056 A 
HETATM   15  C9  UNL     1      17.507  32.786  14.817  1.00  0.00     0.007 A 
HETATM   16  C10 UNL     1      17.139  34.110  14.586  1.00  0.00     0.001 A 
HETATM   17  C11 UNL     1      16.099  34.678  15.295  1.00  0.00     0.000 A 
HETATM   18  C12 UNL     1      15.452  33.901  16.221  1.00  0.00     0.001 A 
HETATM   19  C13 UNL     1      15.816  32.593  16.448  1.00  0.00     0.007 A 
ENDBRANCH  13  14
ENDBRANCH   1  13
BRANCH   1  20
HETATM   20  C14 UNL     1      19.483  29.650  16.127  1.00  0.00     0.155 C 
BRANCH  20  21
HETATM   21  O3  UNL     1      19.435  30.407  17.321  1.00  0.00    -0.392 OA
ATOM     22  H3  UNL     1      19.336  29.817  18.058  1.00  0.00     0.210 HD
ENDBRANCH  20  21
BRANCH  20  23
HETATM   23  C15 UNL     1      20.822  29.769  15.467  1.00  0.00     0.141 C 
BRANCH  23  24
HETATM   24  N3  UNL     1      20.916  30.839  14.529  1.00  0.00    -0.202 NA
BRANCH  24  25
HETATM   25  C16 UNL     1      21.417  30.319  13.272  1.00  0.00     0.112 C 
BRANCH  25  26
HETATM   26  C17 UNL     1      21.630  28.849  13.404  1.00  0.00    -0.000 A 
HETATM   27  C18 UNL     1      22.911  28.284  12.854  1.00  0.00     0.006 A 
HETATM   28  C19 UNL     1      21.627  28.084  12.126  1.00  0.00     0.006 A 
ENDBRANCH  25  26
ENDBRANCH  24  25
BRANCH  24  29
HETATM   29  S1  UNL     1      21.847  32.178  14.993  1.00  0.00     0.266 S 
HETATM   30  O4  UNL     1      23.101  31.788  15.732  1.00  0.00    -0.204 OA
HETATM   31  O5  UNL     1      22.346  32.925  13.761  1.00  0.00    -0.204 OA
BRANCH  29  32
HETATM   32  C20 UNL     1      20.937  33.284  15.987  1.00  0.00     0.184 A 
HETATM   33  C21 UNL     1      21.029  34.674  15.935  1.00  0.00     0.053 A 
HETATM   34  C22 UNL     1      20.157  35.172  16.868  1.00  0.00     0.028 A 
HETATM   35  C23 UNL     1      19.562  34.089  17.458  1.00  0.00     0.143 A 
HETATM   36  O6  UNL     1      20.053  33.020  16.908  1.00  0.00    -0.310 OA
ENDBRANCH  29  32
ENDBRANCH  24  29
ENDBRANCH  23  24
ENDBRANCH  20  23
ENDBRANCH   1  20
TORSDOF 14
ENDMDL
