MODEL 1
REMARK VINA RESULT: -8.688978118      0.000      0.000
REMARK  14 active torsions:
REMARK  status: ('A' for Active; 'I' for Inactive)
REMARK       I    between atoms: N1_2  and  C2_4 
REMARK    1  A    between atoms: C2_4  and  C3_6 
REMARK    2  A    between atoms: C3_6  and  C4_7 
REMARK    3  A    between atoms: C4_7  and  C5_8 
REMARK       I    between atoms: C5_8  and  N2_10 
REMARK    4  A    between atoms: N2_10  and  C6_12 
REMARK    5  A    between atoms: C6_12  and  C7_13 
REMARK    6  A    between atoms: C6_12  and  C14_20 
REMARK    7  A    between atoms: C7_13  and  C8_14 
REMARK    8  A    between atoms: C14_20  and  O3_21 
REMARK    9  A    between atoms: C14_20  and  C15_23 
REMARK   10  A    between atoms: C15_23  and  N3_24 
REMARK   11  A    between atoms: N3_24  and  C16_25 
REMARK   12  A    between atoms: N3_24  and  S1_29 
REMARK   13  A    between atoms: C16_25  and  C17_26 
REMARK   14  A    between atoms: S1_29  and  C20_32 
ROOT
HETATM    1  C6  UNL     1      18.142  30.885  15.349  1.00  0.00     0.118 C 
ENDROOT
BRANCH   1   2
HETATM    2  N2  UNL     1      17.980  29.794  14.446  1.00  0.00    -0.354 N 
HETATM    3  C5  UNL     1      18.279  29.891  13.084  1.00  0.00     0.218 C 
HETATM    4  O2  UNL     1      18.705  31.005  12.688  1.00  0.00    -0.274 OA
ATOM      5  H2  UNL     1      17.632  28.906  14.808  1.00  0.00     0.163 HD
BRANCH   3   6
HETATM    6  C4  UNL     1      18.121  28.772  12.109  1.00  0.00     0.112 C 
BRANCH   6   7
HETATM    7  C3  UNL     1      18.116  27.450  12.803  1.00  0.00     0.112 C 
BRANCH   7   8
HETATM    8  C2  UNL     1      18.413  26.391  11.791  1.00  0.00     0.217 C 
HETATM    9  N1  UNL     1      18.852  26.782  10.495  1.00  0.00    -0.365 N 
HETATM   10  C1  UNL     1      19.159  25.794   9.461  1.00  0.00     0.149 C 
ATOM     11  H1  UNL     1      18.955  27.775  10.284  1.00  0.00     0.161 HD
HETATM   12  O1  UNL     1      18.290  25.161  12.033  1.00  0.00    -0.274 OA
ENDBRANCH   7   8
ENDBRANCH   6   7
ENDBRANCH   3   6
ENDBRANCH   1   2
BRANCH   1  13
HETATM   13  C7  UNL     1      17.018  31.162  16.276  1.00  0.00     0.066 C 
BRANCH  13  14
HETATM   14  C8  UNL     1      16.519  32.567  16.180  1.00  0.00    -0.056 A 
HETATM   15  C9  UNL     1      16.812  33.424  15.150  1.00  0.00     0.007 A 
HETATM   16  C10 UNL     1      16.322  34.727  15.105  1.00  0.00     0.001 A 
HETATM   17  C11 UNL     1      15.510  35.201  16.117  1.00  0.00     0.000 A 
HETATM   18  C12 UNL     1      15.210  34.352  17.152  1.00  0.00     0.001 A 
HETATM   19  C13 UNL     1      15.695  33.065  17.195  1.00  0.00     0.007 A 
ENDBRANCH  13  14
ENDBRANCH   1  13
BRANCH   1  20
HETATM   20  C14 UNL     1      19.405  30.640  16.135  1.00  0.00     0.155 C 
BRANCH  20  21
HETATM   21  O3  UNL     1      19.061  30.202  17.436  1.00  0.00    -0.392 OA
ATOM     22  H3  UNL     1      19.010  30.955  18.013  1.00  0.00     0.210 HD
ENDBRANCH  20  21
BRANCH  20  23
HETATM   23  C15 UNL     1      20.274  31.857  16.189  1.00  0.00     0.141 C 
BRANCH  23  24
HETATM   24  N3  UNL     1      21.657  31.598  15.952  1.00  0.00    -0.202 NA
BRANCH  24  25
HETATM   25  C16 UNL     1      22.449  32.503  16.759  1.00  0.00     0.112 C 
BRANCH  25  26
HETATM   26  C17 UNL     1      21.589  33.636  17.207  1.00  0.00    -0.000 A 
HETATM   27  C18 UNL     1      22.142  35.027  17.052  1.00  0.00     0.006 A 
HETATM   28  C19 UNL     1      22.086  34.386  18.395  1.00  0.00     0.006 A 
ENDBRANCH  25  26
ENDBRANCH  24  25
BRANCH  24  29
HETATM   29  S1  UNL     1      22.180  31.677  14.342  1.00  0.00     0.266 S 
HETATM   30  O4  UNL     1      21.456  32.731  13.545  1.00  0.00    -0.204 OA
HETATM   31  O5  UNL     1      23.645  32.093  14.284  1.00  0.00    -0.204 OA
BRANCH  29  32
HETATM   32  C20 UNL     1      22.001  30.144  13.529  1.00  0.00     0.184 A 
HETATM   33  C21 UNL     1      22.106  28.895  14.137  1.00  0.00     0.053 A 
HETATM   34  C22 UNL     1      21.902  27.952  13.163  1.00  0.00     0.028 A 
HETATM   35  C23 UNL     1      21.680  28.641  12.000  1.00  0.00     0.143 A 
HETATM   36  O6  UNL     1      21.750  29.908  12.272  1.00  0.00    -0.310 OA
ENDBRANCH  29  32
ENDBRANCH  24  29
ENDBRANCH  23  24
ENDBRANCH  20  23
ENDBRANCH   1  20
TORSDOF 14
ENDMDL
