MODEL 15
REMARK VINA RESULT: -7.822550481      2.435      5.766
REMARK  14 active torsions:
REMARK  status: ('A' for Active; 'I' for Inactive)
REMARK       I    between atoms: N1_2  and  C2_4 
REMARK    1  A    between atoms: C2_4  and  C3_6 
REMARK    2  A    between atoms: C3_6  and  C4_7 
REMARK    3  A    between atoms: C4_7  and  C5_8 
REMARK       I    between atoms: C5_8  and  N2_10 
REMARK    4  A    between atoms: N2_10  and  C6_12 
REMARK    5  A    between atoms: C6_12  and  C7_13 
REMARK    6  A    between atoms: C6_12  and  C14_20 
REMARK    7  A    between atoms: C7_13  and  C8_14 
REMARK    8  A    between atoms: C14_20  and  O3_21 
REMARK    9  A    between atoms: C14_20  and  C15_23 
REMARK   10  A    between atoms: C15_23  and  N3_24 
REMARK   11  A    between atoms: N3_24  and  C16_25 
REMARK   12  A    between atoms: N3_24  and  S1_29 
REMARK   13  A    between atoms: C16_25  and  C17_26 
REMARK   14  A    between atoms: S1_29  and  C20_32 
ROOT
HETATM    1  C6  UNL     1      19.833  29.035  14.219  1.00  0.00     0.118 C 
ENDROOT
BRANCH   1   2
HETATM    2  N2  UNL     1      20.898  28.180  13.812  1.00  0.00    -0.354 N 
HETATM    3  C5  UNL     1      21.692  28.444  12.693  1.00  0.00     0.218 C 
HETATM    4  O2  UNL     1      21.416  29.489  12.052  1.00  0.00    -0.274 OA
ATOM      5  H2  UNL     1      21.090  27.341  14.361  1.00  0.00     0.163 HD
BRANCH   3   6
HETATM    6  C4  UNL     1      22.815  27.573  12.237  1.00  0.00     0.112 C 
BRANCH   6   7
HETATM    7  C3  UNL     1      22.326  26.209  11.876  1.00  0.00     0.112 C 
BRANCH   7   8
HETATM    8  C2  UNL     1      23.318  25.590  10.944  1.00  0.00     0.217 C 
HETATM    9  N1  UNL     1      23.057  25.615   9.546  1.00  0.00    -0.365 N 
HETATM   10  C1  UNL     1      23.989  25.026   8.583  1.00  0.00     0.149 C 
ATOM     11  H1  UNL     1      22.200  26.052   9.207  1.00  0.00     0.161 HD
HETATM   12  O1  UNL     1      24.381  25.044  11.343  1.00  0.00    -0.274 OA
ENDBRANCH   7   8
ENDBRANCH   6   7
ENDBRANCH   3   6
ENDBRANCH   1   2
BRANCH   1  13
HETATM   13  C7  UNL     1      18.457  28.494  14.104  1.00  0.00     0.066 C 
BRANCH  13  14
HETATM   14  C8  UNL     1      18.141  27.997  12.730  1.00  0.00    -0.056 A 
HETATM   15  C9  UNL     1      17.584  28.765  11.739  1.00  0.00     0.007 A 
HETATM   16  C10 UNL     1      17.307  28.256  10.472  1.00  0.00     0.001 A 
HETATM   17  C11 UNL     1      17.593  26.938  10.174  1.00  0.00     0.000 A 
HETATM   18  C12 UNL     1      18.150  26.161  11.157  1.00  0.00     0.001 A 
HETATM   19  C13 UNL     1      18.423  26.665  12.408  1.00  0.00     0.007 A 
ENDBRANCH  13  14
ENDBRANCH   1  13
BRANCH   1  20
HETATM   20  C14 UNL     1      20.101  29.450  15.643  1.00  0.00     0.155 C 
BRANCH  20  21
HETATM   21  O3  UNL     1      20.091  28.301  16.468  1.00  0.00    -0.392 OA
ATOM     22  H3  UNL     1      19.351  27.755  16.231  1.00  0.00     0.210 HD
ENDBRANCH  20  21
BRANCH  20  23
HETATM   23  C15 UNL     1      19.114  30.467  16.124  1.00  0.00     0.141 C 
BRANCH  23  24
HETATM   24  N3  UNL     1      19.349  31.786  15.634  1.00  0.00    -0.202 NA
BRANCH  24  25
HETATM   25  C16 UNL     1      19.951  32.578  16.688  1.00  0.00     0.112 C 
BRANCH  25  26
HETATM   26  C17 UNL     1      21.361  32.890  16.316  1.00  0.00    -0.000 A 
HETATM   27  C18 UNL     1      22.448  32.311  17.180  1.00  0.00     0.006 A 
HETATM   28  C19 UNL     1      22.100  33.756  17.278  1.00  0.00     0.006 A 
ENDBRANCH  25  26
ENDBRANCH  24  25
BRANCH  24  29
HETATM   29  S1  UNL     1      18.010  32.614  15.006  1.00  0.00     0.266 S 
HETATM   30  O4  UNL     1      18.402  33.767  14.117  1.00  0.00    -0.204 OA
HETATM   31  O5  UNL     1      17.198  31.694  14.102  1.00  0.00    -0.204 OA
BRANCH  29  32
HETATM   32  C20 UNL     1      16.970  33.215  16.271  1.00  0.00     0.184 A 
HETATM   33  C21 UNL     1      15.677  32.765  16.530  1.00  0.00     0.053 A 
HETATM   34  C22 UNL     1      15.204  33.485  17.596  1.00  0.00     0.028 A 
HETATM   35  C23 UNL     1      16.207  34.344  17.957  1.00  0.00     0.143 A 
HETATM   36  O6  UNL     1      17.207  34.144  17.154  1.00  0.00    -0.310 OA
ENDBRANCH  29  32
ENDBRANCH  24  29
ENDBRANCH  23  24
ENDBRANCH  20  23
ENDBRANCH   1  20
TORSDOF 14
ENDMDL
