MODEL 2
REMARK VINA RESULT: -8.341392029      2.140      5.988
REMARK  14 active torsions:
REMARK  status: ('A' for Active; 'I' for Inactive)
REMARK       I    between atoms: N1_2  and  C2_4 
REMARK    1  A    between atoms: C2_4  and  C3_6 
REMARK    2  A    between atoms: C3_6  and  C4_7 
REMARK    3  A    between atoms: C4_7  and  C5_8 
REMARK       I    between atoms: C5_8  and  N2_10 
REMARK    4  A    between atoms: N2_10  and  C6_12 
REMARK    5  A    between atoms: C6_12  and  C7_13 
REMARK    6  A    between atoms: C6_12  and  C14_20 
REMARK    7  A    between atoms: C7_13  and  C8_14 
REMARK    8  A    between atoms: C14_20  and  O3_21 
REMARK    9  A    between atoms: C14_20  and  C15_23 
REMARK   10  A    between atoms: C15_23  and  N3_24 
REMARK   11  A    between atoms: N3_24  and  C16_25 
REMARK   12  A    between atoms: N3_24  and  S1_29 
REMARK   13  A    between atoms: C16_25  and  C17_26 
REMARK   14  A    between atoms: S1_29  and  C20_32 
ROOT
HETATM    1  C6  UNL     1      18.033  31.331  15.366  1.00  0.00     0.118 C 
ENDROOT
BRANCH   1   2
HETATM    2  N2  UNL     1      17.639  32.626  15.813  1.00  0.00    -0.354 N 
HETATM    3  C5  UNL     1      16.307  32.966  16.061  1.00  0.00     0.218 C 
HETATM    4  O2  UNL     1      15.459  32.060  15.869  1.00  0.00    -0.274 OA
ATOM      5  H2  UNL     1      18.360  33.334  15.958  1.00  0.00     0.163 HD
BRANCH   3   6
HETATM    6  C4  UNL     1      15.858  34.311  16.530  1.00  0.00     0.112 C 
BRANCH   6   7
HETATM    7  C3  UNL     1      15.772  34.361  18.019  1.00  0.00     0.112 C 
BRANCH   7   8
HETATM    8  C2  UNL     1      16.743  35.388  18.507  1.00  0.00     0.217 C 
HETATM    9  N1  UNL     1      16.407  36.765  18.386  1.00  0.00    -0.365 N 
HETATM   10  C1  UNL     1      17.315  37.817  18.844  1.00  0.00     0.149 C 
ATOM     11  H1  UNL     1      15.512  37.024  17.971  1.00  0.00     0.161 HD
HETATM   12  O1  UNL     1      17.853  35.088  19.021  1.00  0.00    -0.274 OA
ENDBRANCH   7   8
ENDBRANCH   6   7
ENDBRANCH   3   6
ENDBRANCH   1   2
BRANCH   1  13
HETATM   13  C7  UNL     1      18.256  31.163  13.910  1.00  0.00     0.066 C 
BRANCH  13  14
HETATM   14  C8  UNL     1      18.107  29.746  13.459  1.00  0.00    -0.056 A 
HETATM   15  C9  UNL     1      18.121  28.661  14.298  1.00  0.00     0.007 A 
HETATM   16  C10 UNL     1      17.978  27.357  13.830  1.00  0.00     0.001 A 
HETATM   17  C11 UNL     1      17.816  27.117  12.480  1.00  0.00     0.000 A 
HETATM   18  C12 UNL     1      17.799  28.193  11.631  1.00  0.00     0.001 A 
HETATM   19  C13 UNL     1      17.941  29.481  12.095  1.00  0.00     0.007 A 
ENDBRANCH  13  14
ENDBRANCH   1  13
BRANCH   1  20
HETATM   20  C14 UNL     1      19.280  30.948  16.122  1.00  0.00     0.155 C 
BRANCH  20  21
HETATM   21  O3  UNL     1      18.912  30.395  17.371  1.00  0.00    -0.392 OA
ATOM     22  H3  UNL     1      19.405  29.596  17.513  1.00  0.00     0.210 HD
ENDBRANCH  20  21
BRANCH  20  23
HETATM   23  C15 UNL     1      20.203  32.113  16.301  1.00  0.00     0.141 C 
BRANCH  23  24
HETATM   24  N3  UNL     1      21.579  31.806  16.075  1.00  0.00    -0.202 NA
BRANCH  24  25
HETATM   25  C16 UNL     1      22.395  32.700  16.872  1.00  0.00     0.112 C 
BRANCH  25  26
HETATM   26  C17 UNL     1      21.579  33.885  17.265  1.00  0.00    -0.000 A 
HETATM   27  C18 UNL     1      22.253  35.230  17.230  1.00  0.00     0.006 A 
HETATM   28  C19 UNL     1      21.990  34.554  18.531  1.00  0.00     0.006 A 
ENDBRANCH  25  26
ENDBRANCH  24  25
BRANCH  24  29
HETATM   29  S1  UNL     1      22.112  31.843  14.466  1.00  0.00     0.266 S 
HETATM   30  O4  UNL     1      21.435  32.915  13.652  1.00  0.00    -0.204 OA
HETATM   31  O5  UNL     1      23.593  32.199  14.411  1.00  0.00    -0.204 OA
BRANCH  29  32
HETATM   32  C20 UNL     1      21.876  30.308  13.673  1.00  0.00     0.184 A 
HETATM   33  C21 UNL     1      21.974  29.061  14.288  1.00  0.00     0.053 A 
HETATM   34  C22 UNL     1      21.720  28.115  13.330  1.00  0.00     0.028 A 
HETATM   35  C23 UNL     1      21.475  28.799  12.168  1.00  0.00     0.143 A 
HETATM   36  O6  UNL     1      21.580  30.067  12.427  1.00  0.00    -0.310 OA
ENDBRANCH  29  32
ENDBRANCH  24  29
ENDBRANCH  23  24
ENDBRANCH  20  23
ENDBRANCH   1  20
TORSDOF 14
ENDMDL
