MODEL 13
REMARK VINA RESULT: -7.827341786      2.550      6.354
REMARK  14 active torsions:
REMARK  status: ('A' for Active; 'I' for Inactive)
REMARK       I    between atoms: N1_2  and  C2_4 
REMARK    1  A    between atoms: C2_4  and  C3_6 
REMARK    2  A    between atoms: C3_6  and  C4_7 
REMARK    3  A    between atoms: C4_7  and  C5_8 
REMARK       I    between atoms: C5_8  and  N2_10 
REMARK    4  A    between atoms: N2_10  and  C6_12 
REMARK    5  A    between atoms: C6_12  and  C7_13 
REMARK    6  A    between atoms: C6_12  and  C14_20 
REMARK    7  A    between atoms: C7_13  and  C8_14 
REMARK    8  A    between atoms: C14_20  and  O3_21 
REMARK    9  A    between atoms: C14_20  and  C15_23 
REMARK   10  A    between atoms: C15_23  and  N3_24 
REMARK   11  A    between atoms: N3_24  and  C16_25 
REMARK   12  A    between atoms: N3_24  and  S1_29 
REMARK   13  A    between atoms: C16_25  and  C17_26 
REMARK   14  A    between atoms: S1_29  and  C20_32 
ROOT
HETATM    1  C6  UNL     1      19.789  28.177  12.877  1.00  0.00     0.118 C 
ENDROOT
BRANCH   1   2
HETATM    2  N2  UNL     1      21.089  27.622  13.067  1.00  0.00    -0.354 N 
HETATM    3  C5  UNL     1      22.170  27.934  12.238  1.00  0.00     0.218 C 
HETATM    4  O2  UNL     1      21.938  28.740  11.304  1.00  0.00    -0.274 OA
ATOM      5  H2  UNL     1      21.235  26.971  13.838  1.00  0.00     0.163 HD
BRANCH   3   6
HETATM    6  C4  UNL     1      23.543  27.373  12.406  1.00  0.00     0.112 C 
BRANCH   6   7
HETATM    7  C3  UNL     1      24.263  27.311  11.099  1.00  0.00     0.112 C 
BRANCH   7   8
HETATM    8  C2  UNL     1      24.111  25.930  10.549  1.00  0.00     0.217 C 
HETATM    9  N1  UNL     1      23.533  25.763   9.259  1.00  0.00    -0.365 N 
HETATM   10  C1  UNL     1      23.356  24.438   8.665  1.00  0.00     0.149 C 
ATOM     11  H1  UNL     1      23.235  26.588   8.737  1.00  0.00     0.161 HD
HETATM   12  O1  UNL     1      24.471  24.900  11.178  1.00  0.00    -0.274 OA
ENDBRANCH   7   8
ENDBRANCH   6   7
ENDBRANCH   3   6
ENDBRANCH   1   2
BRANCH   1  13
HETATM   13  C7  UNL     1      18.694  27.228  12.565  1.00  0.00     0.066 C 
BRANCH  13  14
HETATM   14  C8  UNL     1      18.653  26.842  11.122  1.00  0.00    -0.056 A 
HETATM   15  C9  UNL     1      19.349  25.790  10.582  1.00  0.00     0.007 A 
HETATM   16  C10 UNL     1      19.279  25.469   9.229  1.00  0.00     0.001 A 
HETATM   17  C11 UNL     1      18.489  26.215   8.377  1.00  0.00     0.000 A 
HETATM   18  C12 UNL     1      17.787  27.268   8.905  1.00  0.00     0.001 A 
HETATM   19  C13 UNL     1      17.858  27.585  10.242  1.00  0.00     0.007 A 
ENDBRANCH  13  14
ENDBRANCH   1  13
BRANCH   1  20
HETATM   20  C14 UNL     1      19.446  28.964  14.116  1.00  0.00     0.155 C 
BRANCH  20  21
HETATM   21  O3  UNL     1      18.300  28.398  14.720  1.00  0.00    -0.392 OA
ATOM     22  H3  UNL     1      18.525  27.546  15.075  1.00  0.00     0.210 HD
ENDBRANCH  20  21
BRANCH  20  23
HETATM   23  C15 UNL     1      19.234  30.415  13.815  1.00  0.00     0.141 C 
BRANCH  23  24
HETATM   24  N3  UNL     1      19.984  31.299  14.647  1.00  0.00    -0.202 NA
BRANCH  24  25
HETATM   25  C16 UNL     1      21.260  30.686  14.953  1.00  0.00     0.112 C 
BRANCH  25  26
HETATM   26  C17 UNL     1      22.317  31.312  14.108  1.00  0.00    -0.000 A 
HETATM   27  C18 UNL     1      23.398  32.086  14.813  1.00  0.00     0.006 A 
HETATM   28  C19 UNL     1      22.316  32.801  14.080  1.00  0.00     0.006 A 
ENDBRANCH  25  26
ENDBRANCH  24  25
BRANCH  24  29
HETATM   29  S1  UNL     1      19.242  31.802  16.086  1.00  0.00     0.266 S 
HETATM   30  O4  UNL     1      18.909  30.652  17.001  1.00  0.00    -0.204 OA
HETATM   31  O5  UNL     1      20.198  32.670  16.895  1.00  0.00    -0.204 OA
BRANCH  29  32
HETATM   32  C20 UNL     1      17.785  32.709  15.779  1.00  0.00     0.184 A 
HETATM   33  C21 UNL     1      16.499  32.311  16.139  1.00  0.00     0.053 A 
HETATM   34  C22 UNL     1      15.639  33.294  15.723  1.00  0.00     0.028 A 
HETATM   35  C23 UNL     1      16.412  34.255  15.127  1.00  0.00     0.143 A 
HETATM   36  O6  UNL     1      17.648  33.863  15.188  1.00  0.00    -0.310 OA
ENDBRANCH  29  32
ENDBRANCH  24  29
ENDBRANCH  23  24
ENDBRANCH  20  23
ENDBRANCH   1  20
TORSDOF 14
ENDMDL
