MODEL 1
REMARK VINA RESULT: -6.505241160      0.000      0.000
REMARK  3 active torsions:
REMARK  status: ('A' for Active; 'I' for Inactive)
REMARK    1  A    between atoms: C1_2  and  C2_3 
REMARK       I    between atoms: C1_2  and  N1_8 
REMARK    2  A    between atoms: C2_3  and  P1_4 
REMARK    3  A    between atoms: N1_8  and  O5_10 
ROOT
HETATM    1  O1  UNL     1      14.277  29.561  35.325  1.00  0.00    -0.271 OA
HETATM    2  C1  UNL     1      13.107  29.177  35.530  1.00  0.00     0.253 C 
HETATM    3  N1  UNL     1      12.182  29.174  34.457  1.00  0.00    -0.237 N 
ATOM      4  H1  UNL     1      11.226  28.854  34.613  1.00  0.00     0.197 HD
ENDROOT
BRANCH   2   5
HETATM    5  C2  UNL     1      12.625  28.715  36.870  1.00  0.00     0.250 C 
BRANCH   5   6
HETATM    6  P1  UNL     1      11.084  29.134  37.251  1.00  0.00     0.268 P 
HETATM    7  O2  UNL     1      11.354  28.920  38.889  1.00  0.00    -0.639 OA
HETATM    8  O3  UNL     1      11.075  30.588  36.590  1.00  0.00    -0.639 OA
HETATM    9  O4  UNL     1      10.490  27.772  36.452  1.00  0.00    -0.639 OA
ENDBRANCH   5   6
ENDBRANCH   2   5
BRANCH   3  10
HETATM   10  O5  UNL     1      12.562  29.597  33.217  1.00  0.00    -0.287 OA
ATOM     11  H5  UNL     1      12.607  30.524  33.019  1.00  0.00     0.244 HD
ENDBRANCH   3  10
TORSDOF 3
ENDMDL
