MODEL 7
REMARK VINA RESULT: -5.804192550      6.074      7.353
REMARK  3 active torsions:
REMARK  status: ('A' for Active; 'I' for Inactive)
REMARK    1  A    between atoms: C1_2  and  C2_3 
REMARK       I    between atoms: C1_2  and  N1_8 
REMARK    2  A    between atoms: C2_3  and  P1_4 
REMARK    3  A    between atoms: N1_8  and  O5_10 
ROOT
HETATM    1  O1  UNL     1       9.493  25.688  35.510  1.00  0.00    -0.271 OA
HETATM    2  C1  UNL     1       8.761  24.830  34.978  1.00  0.00     0.253 C 
HETATM    3  N1  UNL     1       8.739  23.515  35.506  1.00  0.00    -0.237 N 
ATOM      4  H1  UNL     1       8.138  22.808  35.083  1.00  0.00     0.197 HD
ENDROOT
BRANCH   2   5
HETATM    5  C2  UNL     1       7.895  25.120  33.793  1.00  0.00     0.250 C 
BRANCH   5   6
HETATM    6  P1  UNL     1       7.815  23.930  32.664  1.00  0.00     0.268 P 
HETATM    7  O2  UNL     1       7.158  24.959  31.520  1.00  0.00    -0.639 OA
HETATM    8  O3  UNL     1       9.363  23.536  32.641  1.00  0.00    -0.639 OA
HETATM    9  O4  UNL     1       6.682  23.093  33.592  1.00  0.00    -0.639 OA
ENDBRANCH   5   6
ENDBRANCH   2   5
BRANCH   3  10
HETATM   10  O5  UNL     1       9.519  23.189  36.578  1.00  0.00    -0.287 OA
ATOM     11  H5  UNL     1      10.083  22.426  36.546  1.00  0.00     0.244 HD
ENDBRANCH   3  10
TORSDOF 3
ENDMDL
