MODEL 3
REMARK VINA RESULT: -6.302299924      0.062      1.641
REMARK  3 active torsions:
REMARK  status: ('A' for Active; 'I' for Inactive)
REMARK    1  A    between atoms: C1_2  and  C2_3 
REMARK       I    between atoms: C1_2  and  N1_8 
REMARK    2  A    between atoms: C2_3  and  P1_4 
REMARK    3  A    between atoms: N1_8  and  O5_10 
ROOT
HETATM    1  O1  UNL     1      14.285  29.594  35.304  1.00  0.00    -0.271 OA
HETATM    2  C1  UNL     1      13.121  29.214  35.539  1.00  0.00     0.253 C 
HETATM    3  N1  UNL     1      12.175  29.186  34.484  1.00  0.00    -0.237 N 
ATOM      4  H1  UNL     1      11.223  28.869  34.664  1.00  0.00     0.197 HD
ENDROOT
BRANCH   2   5
HETATM    5  C2  UNL     1      12.664  28.780  36.897  1.00  0.00     0.250 C 
BRANCH   5   6
HETATM    6  P1  UNL     1      11.071  29.014  37.218  1.00  0.00     0.268 P 
HETATM    7  O2  UNL     1      11.101  30.569  36.597  1.00  0.00    -0.639 OA
HETATM    8  O3  UNL     1      10.488  27.790  36.374  1.00  0.00    -0.639 OA
HETATM    9  O4  UNL     1      11.365  28.913  38.876  1.00  0.00    -0.639 OA
ENDBRANCH   5   6
ENDBRANCH   2   5
BRANCH   3  10
HETATM   10  O5  UNL     1      12.531  29.583  33.228  1.00  0.00    -0.287 OA
ATOM     11  H5  UNL     1      12.720  30.497  33.049  1.00  0.00     0.244 HD
ENDBRANCH   3  10
TORSDOF 3
ENDMDL
