MODEL 5
REMARK VINA RESULT: -6.115331155      1.394      2.140
REMARK  3 active torsions:
REMARK  status: ('A' for Active; 'I' for Inactive)
REMARK    1  A    between atoms: C1_2  and  C2_3 
REMARK       I    between atoms: C1_2  and  N1_8 
REMARK    2  A    between atoms: C2_3  and  P1_4 
REMARK    3  A    between atoms: N1_8  and  O5_10 
ROOT
HETATM    1  O1  UNL     1      12.319  30.577  35.053  1.00  0.00    -0.271 OA
HETATM    2  C1  UNL     1      12.342  29.458  35.605  1.00  0.00     0.253 C 
HETATM    3  N1  UNL     1      13.581  28.786  35.756  1.00  0.00    -0.237 N 
ATOM      4  H1  UNL     1      13.611  27.875  36.214  1.00  0.00     0.197 HD
ENDROOT
BRANCH   2   5
HETATM    5  C2  UNL     1      11.112  28.779  36.121  1.00  0.00     0.250 C 
BRANCH   5   6
HETATM    6  P1  UNL     1      10.806  28.988  37.720  1.00  0.00     0.268 P 
HETATM    7  O2  UNL     1       9.923  27.570  37.812  1.00  0.00    -0.639 OA
HETATM    8  O3  UNL     1      12.317  29.065  38.232  1.00  0.00    -0.639 OA
HETATM    9  O4  UNL     1       9.891  30.367  37.390  1.00  0.00    -0.639 OA
ENDBRANCH   5   6
ENDBRANCH   2   5
BRANCH   3  10
HETATM   10  O5  UNL     1      14.733  29.351  35.293  1.00  0.00    -0.287 OA
ATOM     11  H5  UNL     1      15.562  28.899  35.391  1.00  0.00     0.244 HD
ENDBRANCH   3  10
TORSDOF 3
ENDMDL
