MODEL 4
REMARK VINA RESULT: -6.123591149      1.387      1.732
REMARK  3 active torsions:
REMARK  status: ('A' for Active; 'I' for Inactive)
REMARK    1  A    between atoms: C1_2  and  C2_3 
REMARK       I    between atoms: C1_2  and  N1_8 
REMARK    2  A    between atoms: C2_3  and  P1_4 
REMARK    3  A    between atoms: N1_8  and  O5_10 
ROOT
HETATM    1  O1  UNL     1      12.320  30.548  35.119  1.00  0.00    -0.271 OA
HETATM    2  C1  UNL     1      12.352  29.403  35.613  1.00  0.00     0.253 C 
HETATM    3  N1  UNL     1      13.594  28.727  35.715  1.00  0.00    -0.237 N 
ATOM      4  H1  UNL     1      13.631  27.794  36.126  1.00  0.00     0.197 HD
ENDROOT
BRANCH   2   5
HETATM    5  C2  UNL     1      11.130  28.696  36.109  1.00  0.00     0.250 C 
BRANCH   5   6
HETATM    6  P1  UNL     1      10.701  29.024  37.659  1.00  0.00     0.268 P 
HETATM    7  O2  UNL     1      12.293  29.023  38.177  1.00  0.00    -0.639 OA
HETATM    8  O3  UNL     1       9.912  30.387  37.393  1.00  0.00    -0.639 OA
HETATM    9  O4  UNL     1       9.919  27.534  37.785  1.00  0.00    -0.639 OA
ENDBRANCH   5   6
ENDBRANCH   2   5
BRANCH   3  10
HETATM   10  O5  UNL     1      14.739  29.318  35.268  1.00  0.00    -0.287 OA
ATOM     11  H5  UNL     1      15.203  28.960  34.520  1.00  0.00     0.244 HD
ENDBRANCH   3  10
TORSDOF 3
ENDMDL
