MODEL 8
REMARK VINA RESULT: -6.436800202      6.869      7.781
REMARK  3 active torsions:
REMARK  status: ('A' for Active; 'I' for Inactive)
REMARK       I    between atoms: C1_2  and  N1_3 
REMARK    1  A    between atoms: C1_2  and  C2_7 
REMARK    2  A    between atoms: N1_3  and  O2_5 
REMARK    3  A    between atoms: C2_7  and  P1_9 
ROOT
HETATM    1  O1  UNL     1      28.208  31.339 -18.439  1.00  0.00    -0.267 OA
HETATM    2  C1  UNL     1      29.115  31.290 -19.299  1.00  0.00     0.288 C 
HETATM    3  N1  UNL     1      30.473  31.011 -18.966  1.00  0.00    -0.234 N 
ATOM      4  H1  UNL     1      31.181  30.982 -19.700  1.00  0.00     0.197 HD
ENDROOT
BRANCH   2   5
HETATM    5  C2  UNL     1      28.728  31.540 -20.737  1.00  0.00     0.392 C 
HETATM    6  F1  UNL     1      29.029  32.877 -20.964  1.00  0.00    -0.224 F 
BRANCH   5   7
HETATM    7  P1  UNL     1      29.401  30.488 -21.811  1.00  0.00     0.304 P 
HETATM    8  O3  UNL     1      28.174  30.720 -22.877  1.00  0.00    -0.637 OA
HETATM    9  O4  UNL     1      30.756  31.455 -21.961  1.00  0.00    -0.637 OA
HETATM   10  O5  UNL     1      29.388  29.197 -20.807  1.00  0.00    -0.637 OA
ENDBRANCH   5   7
ENDBRANCH   2   5
BRANCH   3  11
HETATM   11  O2  UNL     1      30.820  30.788 -17.691  1.00  0.00    -0.287 OA
ATOM     12  H2  UNL     1      31.197  29.953 -17.440  1.00  0.00     0.244 HD
ENDBRANCH   3  11
TORSDOF 3
ENDMDL
