MODEL 2
REMARK VINA RESULT: -6.942917756      0.060      1.563
REMARK  3 active torsions:
REMARK  status: ('A' for Active; 'I' for Inactive)
REMARK       I    between atoms: C1_2  and  N1_3 
REMARK    1  A    between atoms: C1_2  and  C2_7 
REMARK    2  A    between atoms: N1_3  and  O2_5 
REMARK    3  A    between atoms: C2_7  and  P1_9 
ROOT
HETATM    1  O1  UNL     1      25.006  24.466 -18.816  1.00  0.00    -0.267 OA
HETATM    2  C1  UNL     1      24.943  25.649 -18.418  1.00  0.00     0.288 C 
HETATM    3  N1  UNL     1      23.728  26.394 -18.416  1.00  0.00    -0.234 N 
ATOM      4  H1  UNL     1      23.722  27.358 -18.083  1.00  0.00     0.197 HD
ENDROOT
BRANCH   2   5
HETATM    5  C2  UNL     1      26.219  26.289 -17.925  1.00  0.00     0.392 C 
HETATM    6  F1  UNL     1      26.108  27.629 -18.273  1.00  0.00    -0.224 F 
BRANCH   5   7
HETATM    7  P1  UNL     1      26.544  26.011 -16.335  1.00  0.00     0.304 P 
HETATM    8  O3  UNL     1      27.310  27.457 -16.191  1.00  0.00    -0.637 OA
HETATM    9  O4  UNL     1      24.912  25.956 -15.976  1.00  0.00    -0.637 OA
HETATM   10  O5  UNL     1      27.406  24.643 -16.578  1.00  0.00    -0.637 OA
ENDBRANCH   5   7
ENDBRANCH   2   5
BRANCH   3  11
HETATM   11  O2  UNL     1      22.593  25.829 -18.852  1.00  0.00    -0.287 OA
ATOM     12  H2  UNL     1      21.831  26.369 -19.033  1.00  0.00     0.244 HD
ENDBRANCH   3  11
TORSDOF 3
ENDMDL
