MODEL 3
REMARK VINA RESULT: -6.818076710      0.079      1.568
REMARK  3 active torsions:
REMARK  status: ('A' for Active; 'I' for Inactive)
REMARK       I    between atoms: C1_2  and  N1_3 
REMARK    1  A    between atoms: C1_2  and  C2_7 
REMARK    2  A    between atoms: N1_3  and  O2_5 
REMARK    3  A    between atoms: C2_7  and  P1_9 
ROOT
HETATM    1  O1  UNL     1      24.975  24.416 -18.763  1.00  0.00    -0.267 OA
HETATM    2  C1  UNL     1      24.929  25.617 -18.421  1.00  0.00     0.288 C 
HETATM    3  N1  UNL     1      23.724  26.378 -18.456  1.00  0.00    -0.234 N 
ATOM      4  H1  UNL     1      23.732  27.357 -18.169  1.00  0.00     0.197 HD
ENDROOT
BRANCH   2   5
HETATM    5  C2  UNL     1      26.214  26.261 -17.957  1.00  0.00     0.392 C 
HETATM    6  F1  UNL     1      26.126  27.582 -18.375  1.00  0.00    -0.224 F 
BRANCH   5   7
HETATM    7  P1  UNL     1      26.528  26.063 -16.352  1.00  0.00     0.304 P 
HETATM    8  O3  UNL     1      24.927  25.959 -16.005  1.00  0.00    -0.637 OA
HETATM    9  O4  UNL     1      27.353  24.641 -16.655  1.00  0.00    -0.637 OA
HETATM   10  O5  UNL     1      27.322  27.480 -16.164  1.00  0.00    -0.637 OA
ENDBRANCH   5   7
ENDBRANCH   2   5
BRANCH   3  11
HETATM   11  O2  UNL     1      22.582  25.809 -18.866  1.00  0.00    -0.287 OA
ATOM     12  H2  UNL     1      21.788  26.328 -18.929  1.00  0.00     0.244 HD
ENDBRANCH   3  11
TORSDOF 3
ENDMDL
