MODEL 1
REMARK VINA RESULT: -7.094861844      0.000      0.000
REMARK  3 active torsions:
REMARK  status: ('A' for Active; 'I' for Inactive)
REMARK       I    between atoms: C1_2  and  N1_3 
REMARK    1  A    between atoms: C1_2  and  C2_7 
REMARK    2  A    between atoms: N1_3  and  O2_5 
REMARK    3  A    between atoms: C2_7  and  P1_9 
ROOT
HETATM    1  O1  UNL     1      24.977  24.484 -18.892  1.00  0.00    -0.267 OA
HETATM    2  C1  UNL     1      24.928  25.648 -18.440  1.00  0.00     0.288 C 
HETATM    3  N1  UNL     1      23.721  26.405 -18.398  1.00  0.00    -0.234 N 
ATOM      4  H1  UNL     1      23.727  27.353 -18.022  1.00  0.00     0.197 HD
ENDROOT
BRANCH   2   5
HETATM    5  C2  UNL     1      26.214  26.252 -17.925  1.00  0.00     0.392 C 
HETATM    6  F1  UNL     1      26.165  27.585 -18.308  1.00  0.00    -0.224 F 
BRANCH   5   7
HETATM    7  P1  UNL     1      26.481  26.003 -16.318  1.00  0.00     0.304 P 
HETATM    8  O3  UNL     1      27.353  24.647 -16.626  1.00  0.00    -0.637 OA
HETATM    9  O4  UNL     1      27.309  27.451 -16.197  1.00  0.00    -0.637 OA
HETATM   10  O5  UNL     1      24.903  25.892 -15.904  1.00  0.00    -0.637 OA
ENDBRANCH   5   7
ENDBRANCH   2   5
BRANCH   3  11
HETATM   11  O2  UNL     1      22.578  25.872 -18.854  1.00  0.00    -0.287 OA
ATOM     12  H2  UNL     1      21.755  26.074 -18.424  1.00  0.00     0.244 HD
ENDBRANCH   3  11
TORSDOF 3
ENDMDL
