MODEL 1
REMARK VINA RESULT: -8.664751978      0.000      0.000
REMARK  6 active torsions:
REMARK  status: ('A' for Active; 'I' for Inactive)
REMARK    1  A    between atoms: C1_2  and  C2_4 
REMARK    2  A    between atoms: N1_12  and  C9_13 
REMARK    3  A    between atoms: C9_13  and  C10_14 
REMARK    4  A    between atoms: C9_13  and  C17_23 
REMARK    5  A    between atoms: C10_14  and  C11_15 
REMARK    6  A    between atoms: C14_18  and  O4_19 
ROOT
HETATM    1  C2  UNL     1      25.808   6.629  19.566  1.00  0.00     0.041 A 
HETATM    2  C3  UNL     1      24.453   6.738  19.798  1.00  0.00     0.019 A 
HETATM    3  C4  UNL     1      23.599   6.897  18.726  1.00  0.00     0.019 A 
HETATM    4  C5  UNL     1      24.039   6.950  17.419  1.00  0.00     0.048 A 
HETATM    5  C6  UNL     1      25.401   6.841  17.184  1.00  0.00     0.049 A 
HETATM    6  C7  UNL     1      26.250   6.683  18.260  1.00  0.00     0.036 A 
HETATM    7  C8  UNL     1      25.569   6.931  15.737  1.00  0.00     0.262 A 
HETATM    8  O3  UNL     1      26.691   6.868  15.162  1.00  0.00    -0.267 OA
HETATM    9  N1  UNL     1      24.308   7.095  15.098  1.00  0.00    -0.264 N 
HETATM   10  C18 UNL     1      23.340   7.110  16.134  1.00  0.00     0.262 A 
HETATM   11  O7  UNL     1      22.091   7.235  16.012  1.00  0.00    -0.267 OA
ENDROOT
BRANCH   9  12
HETATM   12  C9  UNL     1      24.007   7.225  13.692  1.00  0.00     0.201 C 
BRANCH  12  13
HETATM   13  C10 UNL     1      24.717   6.110  12.958  1.00  0.00     0.075 C 
BRANCH  13  14
HETATM   14  C11 UNL     1      24.000   5.584  11.801  1.00  0.00    -0.056 A 
HETATM   15  C12 UNL     1      24.084   6.299  10.600  1.00  0.00     0.010 A 
HETATM   16  C13 UNL     1      23.412   5.838   9.471  1.00  0.00     0.037 A 
HETATM   17  C14 UNL     1      22.664   4.676   9.536  1.00  0.00     0.065 A 
HETATM   18  C15 UNL     1      22.584   3.964  10.740  1.00  0.00     0.037 A 
HETATM   19  C16 UNL     1      23.254   4.436  11.845  1.00  0.00     0.010 A 
BRANCH  17  20
HETATM   20  O4  UNL     1      22.012   4.242   8.409  1.00  0.00    -0.361 OA
ATOM     21  H4  UNL     1      22.473   3.678   7.800  1.00  0.00     0.217 HD
ENDBRANCH  17  20
ENDBRANCH  13  14
ENDBRANCH  12  13
BRANCH  12  22
HETATM   22  C17 UNL     1      24.400   8.574  13.185  1.00  0.00     0.197 C 
HETATM   23  O5  UNL     1      23.584   9.531  13.162  1.00  0.00    -0.646 OA
HETATM   24  O6  UNL     1      25.683   8.821  12.720  1.00  0.00    -0.646 OA
ENDBRANCH  12  22
ENDBRANCH   9  12
BRANCH   1  25
HETATM   25  C1  UNL     1      26.728   6.461  20.687  1.00  0.00     0.209 C 
HETATM   26  O1  UNL     1      26.361   6.762  21.848  1.00  0.00    -0.644 OA
HETATM   27  O2  UNL     1      28.008   5.976  20.507  1.00  0.00    -0.644 OA
ENDBRANCH   1  25
TORSDOF 6
ENDMDL
