MODEL 14
REMARK VINA RESULT: -7.765054892      2.241      7.449
REMARK  6 active torsions:
REMARK  status: ('A' for Active; 'I' for Inactive)
REMARK    1  A    between atoms: C1_2  and  C2_4 
REMARK    2  A    between atoms: N1_12  and  C9_13 
REMARK    3  A    between atoms: C9_13  and  C10_14 
REMARK    4  A    between atoms: C9_13  and  C17_23 
REMARK    5  A    between atoms: C10_14  and  C11_15 
REMARK    6  A    between atoms: C14_18  and  O4_19 
ROOT
HETATM    1  C2  UNL     1      22.207   4.731  11.397  1.00  0.00     0.041 A 
HETATM    2  C3  UNL     1      23.520   4.827  10.988  1.00  0.00     0.019 A 
HETATM    3  C4  UNL     1      24.469   5.283  11.880  1.00  0.00     0.019 A 
HETATM    4  C5  UNL     1      24.165   5.649  13.176  1.00  0.00     0.048 A 
HETATM    5  C6  UNL     1      22.844   5.552  13.588  1.00  0.00     0.049 A 
HETATM    6  C7  UNL     1      21.900   5.096  12.691  1.00  0.00     0.036 A 
HETATM    7  C8  UNL     1      22.822   5.998  14.977  1.00  0.00     0.262 A 
HETATM    8  O3  UNL     1      21.772   6.042  15.678  1.00  0.00    -0.267 OA
HETATM    9  N1  UNL     1      24.129   6.365  15.404  1.00  0.00    -0.264 N 
HETATM   10  C18 UNL     1      24.981   6.154  14.291  1.00  0.00     0.262 A 
HETATM   11  O7  UNL     1      26.225   6.351  14.231  1.00  0.00    -0.267 OA
ENDROOT
BRANCH   9  12
HETATM   12  C9  UNL     1      24.566   6.858  16.689  1.00  0.00     0.201 C 
BRANCH  12  13
HETATM   13  C10 UNL     1      25.067   8.273  16.501  1.00  0.00     0.075 C 
BRANCH  13  14
HETATM   14  C11 UNL     1      24.038   9.244  16.144  1.00  0.00    -0.056 A 
HETATM   15  C12 UNL     1      23.292   9.814  17.183  1.00  0.00     0.010 A 
HETATM   16  C13 UNL     1      22.296  10.743  16.890  1.00  0.00     0.037 A 
HETATM   17  C14 UNL     1      22.045  11.101  15.578  1.00  0.00     0.065 A 
HETATM   18  C15 UNL     1      22.796  10.527  14.543  1.00  0.00     0.037 A 
HETATM   19  C16 UNL     1      23.775   9.611  14.851  1.00  0.00     0.010 A 
BRANCH  17  20
HETATM   20  O4  UNL     1      21.059  12.019  15.316  1.00  0.00    -0.361 OA
ATOM     21  H4  UNL     1      20.689  12.059  14.442  1.00  0.00     0.217 HD
ENDBRANCH  17  20
ENDBRANCH  13  14
ENDBRANCH  12  13
BRANCH  12  22
HETATM   22  C17 UNL     1      25.608   5.964  17.278  1.00  0.00     0.197 C 
HETATM   23  O5  UNL     1      26.723   6.410  17.647  1.00  0.00    -0.646 OA
HETATM   24  O6  UNL     1      25.381   4.605  17.438  1.00  0.00    -0.646 OA
ENDBRANCH  12  22
ENDBRANCH   9  12
BRANCH   1  25
HETATM   25  C1  UNL     1      21.188   4.251  10.467  1.00  0.00     0.209 C 
HETATM   26  O1  UNL     1      21.104   4.750   9.320  1.00  0.00    -0.644 OA
HETATM   27  O2  UNL     1      20.302   3.252  10.817  1.00  0.00    -0.644 OA
ENDBRANCH   1  25
TORSDOF 6
ENDMDL
