MODEL 3
REMARK VINA RESULT: -8.268261845      1.207      1.491
REMARK  6 active torsions:
REMARK  status: ('A' for Active; 'I' for Inactive)
REMARK    1  A    between atoms: C1_2  and  C2_4 
REMARK    2  A    between atoms: N1_12  and  C9_13 
REMARK    3  A    between atoms: C9_13  and  C10_14 
REMARK    4  A    between atoms: C9_13  and  C17_23 
REMARK    5  A    between atoms: C10_14  and  C11_15 
REMARK    6  A    between atoms: C14_18  and  O4_19 
ROOT
HETATM    1  C2  UNL     1      25.087   5.906  18.810  1.00  0.00     0.041 A 
HETATM    2  C3  UNL     1      23.844   6.436  19.079  1.00  0.00     0.019 A 
HETATM    3  C4  UNL     1      23.022   6.785  18.027  1.00  0.00     0.019 A 
HETATM    4  C5  UNL     1      23.387   6.624  16.705  1.00  0.00     0.048 A 
HETATM    5  C6  UNL     1      24.638   6.090  16.435  1.00  0.00     0.049 A 
HETATM    6  C7  UNL     1      25.455   5.744  17.491  1.00  0.00     0.036 A 
HETATM    7  C8  UNL     1      24.747   6.039  14.980  1.00  0.00     0.262 A 
HETATM    8  O3  UNL     1      25.766   5.602  14.374  1.00  0.00    -0.267 OA
HETATM    9  N1  UNL     1      23.564   6.542  14.372  1.00  0.00    -0.264 N 
HETATM   10  C18 UNL     1      22.703   6.913  15.436  1.00  0.00     0.262 A 
HETATM   11  O7  UNL     1      21.545   7.407  15.346  1.00  0.00    -0.267 OA
ENDROOT
BRANCH   9  12
HETATM   12  C9  UNL     1      23.242   6.675  12.971  1.00  0.00     0.201 C 
BRANCH  12  13
HETATM   13  C10 UNL     1      23.718   5.426  12.263  1.00  0.00     0.075 C 
BRANCH  13  14
HETATM   14  C11 UNL     1      22.861   4.977  11.170  1.00  0.00    -0.056 A 
HETATM   15  C12 UNL     1      23.201   5.372   9.871  1.00  0.00     0.010 A 
HETATM   16  C13 UNL     1      22.410   4.971   8.796  1.00  0.00     0.037 A 
HETATM   17  C14 UNL     1      21.292   4.185   9.014  1.00  0.00     0.065 A 
HETATM   18  C15 UNL     1      20.958   3.793  10.316  1.00  0.00     0.037 A 
HETATM   19  C16 UNL     1      21.751   4.199  11.365  1.00  0.00     0.010 A 
BRANCH  17  20
HETATM   20  O4  UNL     1      20.530   3.803   7.939  1.00  0.00    -0.361 OA
ATOM     21  H4  UNL     1      19.656   3.464   8.092  1.00  0.00     0.217 HD
ENDBRANCH  17  20
ENDBRANCH  13  14
ENDBRANCH  12  13
BRANCH  12  22
HETATM   22  C17 UNL     1      23.849   7.914  12.399  1.00  0.00     0.197 C 
HETATM   23  O5  UNL     1      25.036   7.934  11.987  1.00  0.00    -0.646 OA
HETATM   24  O6  UNL     1      23.122   9.091  12.300  1.00  0.00    -0.646 OA
ENDBRANCH  12  22
ENDBRANCH   9  12
BRANCH   1  25
HETATM   25  C1  UNL     1      25.972   5.531  19.910  1.00  0.00     0.209 C 
HETATM   26  O1  UNL     1      25.495   5.305  21.048  1.00  0.00    -0.644 OA
HETATM   27  O2  UNL     1      27.337   5.417  19.735  1.00  0.00    -0.644 OA
ENDBRANCH   1  25
TORSDOF 6
ENDMDL
