MODEL 2
REMARK VINA RESULT: -8.634387094      0.086      1.133
REMARK  6 active torsions:
REMARK  status: ('A' for Active; 'I' for Inactive)
REMARK    1  A    between atoms: C1_2  and  C2_4 
REMARK    2  A    between atoms: N1_12  and  C9_13 
REMARK    3  A    between atoms: C9_13  and  C10_14 
REMARK    4  A    between atoms: C9_13  and  C17_23 
REMARK    5  A    between atoms: C10_14  and  C11_15 
REMARK    6  A    between atoms: C14_18  and  O4_19 
ROOT
HETATM    1  C2  UNL     1      25.840   6.623  19.606  1.00  0.00     0.041 A 
HETATM    2  C3  UNL     1      24.484   6.670  19.849  1.00  0.00     0.019 A 
HETATM    3  C4  UNL     1      23.616   6.800  18.784  1.00  0.00     0.019 A 
HETATM    4  C5  UNL     1      24.044   6.884  17.474  1.00  0.00     0.048 A 
HETATM    5  C6  UNL     1      25.408   6.837  17.230  1.00  0.00     0.049 A 
HETATM    6  C7  UNL     1      26.270   6.707  18.299  1.00  0.00     0.036 A 
HETATM    7  C8  UNL     1      25.562   6.946  15.782  1.00  0.00     0.262 A 
HETATM    8  O3  UNL     1      26.681   6.938  15.199  1.00  0.00    -0.267 OA
HETATM    9  N1  UNL     1      24.291   7.060  15.153  1.00  0.00    -0.264 N 
HETATM   10  C18 UNL     1      23.331   7.024  16.195  1.00  0.00     0.262 A 
HETATM   11  O7  UNL     1      22.076   7.095  16.083  1.00  0.00    -0.267 OA
ENDROOT
BRANCH   9  12
HETATM   12  C9  UNL     1      23.974   7.189  13.750  1.00  0.00     0.201 C 
BRANCH  12  13
HETATM   13  C10 UNL     1      24.668   6.066  13.011  1.00  0.00     0.075 C 
BRANCH  13  14
HETATM   14  C11 UNL     1      24.001   5.635  11.786  1.00  0.00    -0.056 A 
HETATM   15  C12 UNL     1      23.219   4.475  11.843  1.00  0.00     0.010 A 
HETATM   16  C13 UNL     1      22.567   4.023  10.698  1.00  0.00     0.037 A 
HETATM   17  C14 UNL     1      22.692   4.719   9.509  1.00  0.00     0.065 A 
HETATM   18  C15 UNL     1      23.475   5.879   9.459  1.00  0.00     0.037 A 
HETATM   19  C16 UNL     1      24.112   6.310  10.600  1.00  0.00     0.010 A 
BRANCH  17  20
HETATM   20  O4  UNL     1      22.039   4.253   8.395  1.00  0.00    -0.361 OA
ATOM     21  H4  UNL     1      22.339   4.531   7.537  1.00  0.00     0.217 HD
ENDBRANCH  17  20
ENDBRANCH  13  14
ENDBRANCH  12  13
BRANCH  12  22
HETATM   22  C17 UNL     1      24.372   8.534  13.234  1.00  0.00     0.197 C 
HETATM   23  O5  UNL     1      25.538   8.762  12.825  1.00  0.00    -0.646 OA
HETATM   24  O6  UNL     1      23.465   9.581  13.187  1.00  0.00    -0.646 OA
ENDBRANCH  12  22
ENDBRANCH   9  12
BRANCH   1  25
HETATM   25  C1  UNL     1      26.774   6.486  20.720  1.00  0.00     0.209 C 
HETATM   26  O1  UNL     1      26.407   6.773  21.884  1.00  0.00    -0.644 OA
HETATM   27  O2  UNL     1      28.069   6.045  20.529  1.00  0.00    -0.644 OA
ENDBRANCH   1  25
TORSDOF 6
ENDMDL
