MODEL 3
REMARK VINA RESULT: -9.659745859      3.271      4.856
REMARK  4 active torsions:
REMARK  status: ('A' for Active; 'I' for Inactive)
REMARK    1  A    between atoms: C4_4  and  N1_5 
REMARK    2  A    between atoms: N1_5  and  C5_7 
REMARK    3  A    between atoms: C6_10  and  N3_11 
REMARK    4  A    between atoms: N3_11  and  C7_13 
ROOT
HETATM    1  C5  UNL     1      22.047   7.841  19.932  1.00  0.00     0.699 A 
HETATM    2  N2  UNL     1      22.461   6.542  19.958  1.00  0.00    -0.020 N 
ATOM      3  H2  UNL     1      22.906   6.163  19.122  1.00  0.00     0.203 HD
HETATM    4  C6  UNL     1      22.319   5.733  21.018  1.00  0.00     0.720 A 
HETATM    5  N4  UNL     1      21.724   6.250  22.129  1.00  0.00    -0.069 N 
HETATM    6  N5  UNL     1      21.451   5.735  23.321  1.00  0.00    -0.289 N 
ATOM      7  H5  UNL     1      21.662   4.776  23.595  1.00  0.00     0.187 HD
HETATM    8  C13 UNL     1      20.861   6.639  24.116  1.00  0.00     0.112 A 
HETATM    9  C14 UNL     1      20.766   7.773  23.373  1.00  0.00     0.070 A 
HETATM   10  C15 UNL     1      21.312   7.528  22.115  1.00  0.00     0.162 A 
HETATM   11  N6  UNL     1      21.476   8.294  21.034  1.00  0.00    -0.173 N 
ATOM     12  H6  UNL     1      21.149   9.259  21.060  1.00  0.00     0.186 HD
ENDROOT
BRANCH   1  13
HETATM   13  N1  UNL     1      22.239   8.612  18.764  1.00  0.00    -0.191 N 
ATOM     14  H1  UNL     1      21.891   9.571  18.787  1.00  0.00     0.184 HD
BRANCH  13  15
HETATM   15  C4  UNL     1      22.858   8.195  17.579  1.00  0.00     0.049 A 
HETATM   16  C3  UNL     1      23.850   7.251  17.507  1.00  0.00     0.030 A 
HETATM   17  C2  UNL     1      24.450   6.861  16.310  1.00  0.00     0.002 A 
HETATM   18  C1  UNL     1      24.054   7.424  15.136  1.00  0.00     0.000 A 
HETATM   19  C17 UNL     1      23.056   8.377  15.195  1.00  0.00     0.002 A 
HETATM   20  C16 UNL     1      22.460   8.770  16.347  1.00  0.00     0.030 A 
ENDBRANCH  13  15
ENDBRANCH   1  13
BRANCH   4  21
HETATM   21  N3  UNL     1      22.810   4.407  20.982  1.00  0.00    -0.189 N 
ATOM     22  H3  UNL     1      22.527   3.790  21.744  1.00  0.00     0.184 HD
BRANCH  21  23
HETATM   23  C7  UNL     1      23.634   3.865  20.016  1.00  0.00     0.049 A 
HETATM   24  C8  UNL     1      24.977   3.674  20.199  1.00  0.00     0.030 A 
HETATM   25  C9  UNL     1      25.788   3.147  19.188  1.00  0.00     0.002 A 
HETATM   26  C10 UNL     1      25.212   2.810  17.971  1.00  0.00     0.000 A 
HETATM   27  C11 UNL     1      23.863   2.992  17.764  1.00  0.00     0.002 A 
HETATM   28  C12 UNL     1      23.098   3.513  18.782  1.00  0.00     0.030 A 
ENDBRANCH  21  23
ENDBRANCH   4  21
TORSDOF 4
ENDMDL
