MODEL 1
REMARK VINA RESULT: -9.794187677      0.000      0.000
REMARK  4 active torsions:
REMARK  status: ('A' for Active; 'I' for Inactive)
REMARK    1  A    between atoms: C4_4  and  N1_5 
REMARK    2  A    between atoms: N1_5  and  C5_7 
REMARK    3  A    between atoms: C6_10  and  N3_11 
REMARK    4  A    between atoms: N3_11  and  C7_13 
ROOT
HETATM    1  C5  UNL     1      24.935   5.098  16.955  1.00  0.00     0.699 A 
HETATM    2  N2  UNL     1      25.977   4.219  16.890  1.00  0.00    -0.020 N 
ATOM      3  H2  UNL     1      26.616   4.290  16.098  1.00  0.00     0.203 HD
HETATM    4  C6  UNL     1      26.210   3.267  17.805  1.00  0.00     0.720 A 
HETATM    5  N4  UNL     1      25.350   3.182  18.859  1.00  0.00    -0.069 N 
HETATM    6  N5  UNL     1      25.306   2.384  19.917  1.00  0.00    -0.289 N 
ATOM      7  H5  UNL     1      25.976   1.639  20.104  1.00  0.00     0.187 HD
HETATM    8  C13 UNL     1      24.267   2.686  20.709  1.00  0.00     0.112 A 
HETATM    9  C14 UNL     1      23.636   3.726  20.104  1.00  0.00     0.070 A 
HETATM   10  C15 UNL     1      24.320   4.041  18.933  1.00  0.00     0.162 A 
HETATM   11  N6  UNL     1      24.130   4.972  17.995  1.00  0.00    -0.173 N 
ATOM     12  H6  UNL     1      23.336   5.606  18.084  1.00  0.00     0.186 HD
ENDROOT
BRANCH   1  13
HETATM   13  N1  UNL     1      24.772   6.063  15.937  1.00  0.00    -0.191 N 
ATOM     14  H1  UNL     1      25.328   5.934  15.091  1.00  0.00     0.184 HD
BRANCH  13  15
HETATM   15  C4  UNL     1      23.926   7.178  15.969  1.00  0.00     0.049 A 
HETATM   16  C3  UNL     1      23.477   7.784  17.115  1.00  0.00     0.030 A 
HETATM   17  C2  UNL     1      22.630   8.892  17.113  1.00  0.00     0.002 A 
HETATM   18  C1  UNL     1      22.210   9.425  15.935  1.00  0.00     0.000 A 
HETATM   19  C17 UNL     1      22.655   8.824  14.773  1.00  0.00     0.002 A 
HETATM   20  C16 UNL     1      23.478   7.747  14.752  1.00  0.00     0.030 A 
ENDBRANCH  13  15
ENDBRANCH   1  13
BRANCH   4  21
HETATM   21  N3  UNL     1      27.335   2.418  17.689  1.00  0.00    -0.189 N 
ATOM     22  H3  UNL     1      28.189   2.718  18.160  1.00  0.00     0.184 HD
BRANCH  21  23
HETATM   23  C7  UNL     1      27.391   1.223  17.002  1.00  0.00     0.049 A 
HETATM   24  C8  UNL     1      28.370   0.928  16.091  1.00  0.00     0.030 A 
HETATM   25  C9  UNL     1      28.381  -0.284  15.393  1.00  0.00     0.002 A 
HETATM   26  C10 UNL     1      27.373  -1.208  15.632  1.00  0.00     0.000 A 
HETATM   27  C11 UNL     1      26.378  -0.934  16.544  1.00  0.00     0.002 A 
HETATM   28  C12 UNL     1      26.401   0.269  17.212  1.00  0.00     0.030 A 
ENDBRANCH  21  23
ENDBRANCH   4  21
TORSDOF 4
ENDMDL
