MODEL 2
REMARK VINA RESULT: -9.666167129      1.554      1.817
REMARK  4 active torsions:
REMARK  status: ('A' for Active; 'I' for Inactive)
REMARK    1  A    between atoms: C4_4  and  N1_5 
REMARK    2  A    between atoms: N1_5  and  C5_7 
REMARK    3  A    between atoms: C6_10  and  N3_11 
REMARK    4  A    between atoms: N3_11  and  C7_13 
ROOT
HETATM    1  C5  UNL     1      24.381   4.262  17.686  1.00  0.00     0.699 A 
HETATM    2  N2  UNL     1      24.501   2.978  17.240  1.00  0.00    -0.020 N 
ATOM      3  H2  UNL     1      24.991   2.820  16.359  1.00  0.00     0.203 HD
HETATM    4  C6  UNL     1      24.015   1.912  17.892  1.00  0.00     0.720 A 
HETATM    5  N4  UNL     1      23.365   2.135  19.068  1.00  0.00    -0.069 N 
HETATM    6  N5  UNL     1      22.793   1.320  19.944  1.00  0.00    -0.289 N 
ATOM      7  H5  UNL     1      22.748   0.306  19.842  1.00  0.00     0.187 HD
HETATM    8  C13 UNL     1      22.281   2.002  20.978  1.00  0.00     0.112 A 
HETATM    9  C14 UNL     1      22.553   3.309  20.725  1.00  0.00     0.070 A 
HETATM   10  C15 UNL     1      23.239   3.395  19.516  1.00  0.00     0.162 A 
HETATM   11  N6  UNL     1      23.740   4.424  18.831  1.00  0.00    -0.173 N 
ATOM     12  H6  UNL     1      23.624   5.367  19.201  1.00  0.00     0.186 HD
ENDROOT
BRANCH   1  13
HETATM   13  N1  UNL     1      24.925   5.320  16.924  1.00  0.00    -0.191 N 
ATOM     14  H1  UNL     1      25.899   5.223  16.638  1.00  0.00     0.184 HD
BRANCH  13  15
HETATM   15  C4  UNL     1      24.264   6.487  16.522  1.00  0.00     0.049 A 
HETATM   16  C3  UNL     1      23.712   7.405  17.377  1.00  0.00     0.030 A 
HETATM   17  C2  UNL     1      23.055   8.557  16.943  1.00  0.00     0.002 A 
HETATM   18  C1  UNL     1      22.939   8.813  15.613  1.00  0.00     0.000 A 
HETATM   19  C17 UNL     1      23.491   7.895  14.740  1.00  0.00     0.002 A 
HETATM   20  C16 UNL     1      24.133   6.770  15.140  1.00  0.00     0.030 A 
ENDBRANCH  13  15
ENDBRANCH   1  13
BRANCH   4  21
HETATM   21  N3  UNL     1      24.216   0.607  17.385  1.00  0.00    -0.189 N 
ATOM     22  H3  UNL     1      23.500  -0.087  17.604  1.00  0.00     0.184 HD
BRANCH  21  23
HETATM   23  C7  UNL     1      25.284   0.180  16.622  1.00  0.00     0.049 A 
HETATM   24  C8  UNL     1      26.587   0.310  17.019  1.00  0.00     0.030 A 
HETATM   25  C9  UNL     1      27.647  -0.111  16.208  1.00  0.00     0.002 A 
HETATM   26  C10 UNL     1      27.365  -0.673  14.971  1.00  0.00     0.000 A 
HETATM   27  C11 UNL     1      26.061  -0.815  14.550  1.00  0.00     0.002 A 
HETATM   28  C12 UNL     1      25.046  -0.390  15.375  1.00  0.00     0.030 A 
ENDBRANCH  21  23
ENDBRANCH   4  21
TORSDOF 4
ENDMDL
