MODEL 2
REMARK VINA RESULT: -9.612079146      1.872      5.732
REMARK  5 active torsions:
REMARK  status: ('A' for Active; 'I' for Inactive)
REMARK    1  A    between atoms: C4_8  and  N4_9 
REMARK    2  A    between atoms: N4_9  and  C5_11 
REMARK    3  A    between atoms: C11_19  and  N6_20 
REMARK    4  A    between atoms: N6_20  and  C12_22 
REMARK    5  A    between atoms: C12_22  and  C13_23 
ROOT
HETATM    1  N1  UNL     1      22.333   8.925  15.966  1.00  0.00    -0.191 NA
HETATM    2  C1  UNL     1      21.838   8.936  17.014  1.00  0.00     0.105 C 
HETATM    3  C2  UNL     1      21.222   8.942  18.299  1.00  0.00     0.108 A 
HETATM    4  C3  UNL     1      20.141   9.673  18.705  1.00  0.00     0.135 A 
HETATM    5  N2  UNL     1      19.918   9.359  19.982  1.00  0.00    -0.288 N 
ATOM      6  H2  UNL     1      19.163   9.764  20.536  1.00  0.00     0.187 HD
HETATM    7  N3  UNL     1      20.772   8.472  20.454  1.00  0.00    -0.067 N 
HETATM    8  C4  UNL     1      20.950   7.880  21.642  1.00  0.00     0.720 A 
HETATM    9  N5  UNL     1      21.959   7.013  21.787  1.00  0.00    -0.020 N 
ATOM     10  H5  UNL     1      22.086   6.567  22.695  1.00  0.00     0.203 HD
HETATM   11  C11 UNL     1      22.824   6.693  20.785  1.00  0.00     0.694 A 
HETATM   12  N7  UNL     1      22.594   7.315  19.629  1.00  0.00    -0.172 N 
ATOM     13  H7  UNL     1      23.220   7.104  18.851  1.00  0.00     0.186 HD
HETATM   14  C19 UNL     1      21.604   8.200  19.402  1.00  0.00     0.182 A 
ENDROOT
BRANCH   8  15
HETATM   15  N4  UNL     1      20.082   8.137  22.714  1.00  0.00    -0.189 N 
ATOM     16  H4  UNL     1      19.181   8.545  22.464  1.00  0.00     0.184 HD
BRANCH  15  17
HETATM   17  C5  UNL     1      20.284   7.910  24.078  1.00  0.00     0.049 A 
HETATM   18  C6  UNL     1      20.299   6.652  24.624  1.00  0.00     0.030 A 
HETATM   19  C7  UNL     1      20.469   6.450  25.999  1.00  0.00     0.002 A 
HETATM   20  C8  UNL     1      20.630   7.514  26.857  1.00  0.00     0.000 A 
HETATM   21  C9  UNL     1      20.618   8.780  26.313  1.00  0.00     0.002 A 
HETATM   22  C10 UNL     1      20.449   8.984  24.961  1.00  0.00     0.030 A 
ENDBRANCH  15  17
ENDBRANCH   8  15
BRANCH  11  23
HETATM   23  N6  UNL     1      23.844   5.738  21.036  1.00  0.00    -0.225 N 
ATOM     24  H6  UNL     1      24.714   5.850  20.516  1.00  0.00     0.177 HD
BRANCH  23  25
HETATM   25  C12 UNL     1      23.779   4.648  21.931  1.00  0.00     0.142 C 
BRANCH  25  26
HETATM   26  C13 UNL     1      23.672   3.276  21.370  1.00  0.00     0.004 C 
HETATM   27  C14 UNL     1      24.792   2.331  21.647  1.00  0.00     0.006 C 
HETATM   28  C15 UNL     1      26.037   2.666  20.846  1.00  0.00     0.000 C 
HETATM   29  C16 UNL     1      25.744   2.318  19.403  1.00  0.00     0.000 C 
HETATM   30  C17 UNL     1      24.267   2.310  19.108  1.00  0.00     0.000 C 
HETATM   31  C18 UNL     1      23.477   3.334  19.853  1.00  0.00     0.006 C 
ENDBRANCH  25  26
ENDBRANCH  23  25
ENDBRANCH  11  23
TORSDOF 5
ENDMDL
