MODEL 4
REMARK VINA RESULT: -9.547308453      2.077      5.893
REMARK  5 active torsions:
REMARK  status: ('A' for Active; 'I' for Inactive)
REMARK    1  A    between atoms: C4_8  and  N4_9 
REMARK    2  A    between atoms: N4_9  and  C5_11 
REMARK    3  A    between atoms: C11_19  and  N6_20 
REMARK    4  A    between atoms: N6_20  and  C12_22 
REMARK    5  A    between atoms: C12_22  and  C13_23 
ROOT
HETATM    1  N1  UNL     1      22.262   8.900  16.027  1.00  0.00    -0.191 NA
HETATM    2  C1  UNL     1      21.799   8.908  17.090  1.00  0.00     0.105 C 
HETATM    3  C2  UNL     1      21.222   8.910  18.394  1.00  0.00     0.108 A 
HETATM    4  C3  UNL     1      20.170   9.658  18.841  1.00  0.00     0.135 A 
HETATM    5  N2  UNL     1      19.978   9.332  20.120  1.00  0.00    -0.288 N 
ATOM      6  H2  UNL     1      19.250   9.746  20.702  1.00  0.00     0.187 HD
HETATM    7  N3  UNL     1      20.828   8.422  20.555  1.00  0.00    -0.067 N 
HETATM    8  C4  UNL     1      21.028   7.811  21.729  1.00  0.00     0.720 A 
HETATM    9  N5  UNL     1      22.022   6.920  21.833  1.00  0.00    -0.020 N 
ATOM     10  H5  UNL     1      22.167   6.460  22.732  1.00  0.00     0.203 HD
HETATM   11  C11 UNL     1      22.850   6.596  20.801  1.00  0.00     0.694 A 
HETATM   12  N7  UNL     1      22.598   7.237  19.661  1.00  0.00    -0.172 N 
ATOM     13  H7  UNL     1      23.196   7.023  18.862  1.00  0.00     0.186 HD
HETATM   14  C19 UNL     1      21.621   8.145  19.475  1.00  0.00     0.182 A 
ENDROOT
BRANCH   8  15
HETATM   15  N4  UNL     1      20.198   8.072  22.830  1.00  0.00    -0.189 N 
ATOM     16  H4  UNL     1      19.356   8.611  22.629  1.00  0.00     0.184 HD
BRANCH  15  17
HETATM   17  C5  UNL     1      20.369   7.693  24.165  1.00  0.00     0.049 A 
HETATM   18  C6  UNL     1      20.599   6.395  24.542  1.00  0.00     0.030 A 
HETATM   19  C7  UNL     1      20.734   6.033  25.888  1.00  0.00     0.002 A 
HETATM   20  C8  UNL     1      20.640   6.975  26.887  1.00  0.00     0.000 A 
HETATM   21  C9  UNL     1      20.411   8.281  26.513  1.00  0.00     0.002 A 
HETATM   22  C10 UNL     1      20.276   8.642  25.191  1.00  0.00     0.030 A 
ENDBRANCH  15  17
ENDBRANCH   8  15
BRANCH  11  23
HETATM   23  N6  UNL     1      23.856   5.616  21.010  1.00  0.00    -0.225 N 
ATOM     24  H6  UNL     1      24.541   5.498  20.263  1.00  0.00     0.177 HD
BRANCH  23  25
HETATM   25  C12 UNL     1      24.007   4.787  22.142  1.00  0.00     0.142 C 
BRANCH  25  26
HETATM   26  C13 UNL     1      23.582   3.367  22.044  1.00  0.00     0.004 C 
HETATM   27  C14 UNL     1      22.240   3.091  21.455  1.00  0.00     0.006 C 
HETATM   28  C15 UNL     1      21.111   3.465  22.398  1.00  0.00     0.000 C 
HETATM   29  C16 UNL     1      21.121   2.456  23.526  1.00  0.00     0.000 C 
HETATM   30  C17 UNL     1      22.469   1.805  23.695  1.00  0.00     0.000 C 
HETATM   31  C18 UNL     1      23.632   2.699  23.420  1.00  0.00     0.006 C 
ENDBRANCH  25  26
ENDBRANCH  23  25
ENDBRANCH  11  23
TORSDOF 5
ENDMDL
