MODEL 5
REMARK VINA RESULT: -9.495303446      2.572      3.261
REMARK  5 active torsions:
REMARK  status: ('A' for Active; 'I' for Inactive)
REMARK    1  A    between atoms: C4_8  and  N4_9 
REMARK    2  A    between atoms: N4_9  and  C5_11 
REMARK    3  A    between atoms: C11_19  and  N6_20 
REMARK    4  A    between atoms: N6_20  and  C12_22 
REMARK    5  A    between atoms: C12_22  and  C13_23 
ROOT
HETATM    1  N1  UNL     1      19.427   7.291  27.961  1.00  0.00    -0.191 NA
HETATM    2  C1  UNL     1      19.893   7.536  26.928  1.00  0.00     0.105 C 
HETATM    3  C2  UNL     1      20.476   7.839  25.663  1.00  0.00     0.108 A 
HETATM    4  C3  UNL     1      20.812   9.069  25.169  1.00  0.00     0.135 A 
HETATM    5  N2  UNL     1      21.324   8.872  23.954  1.00  0.00    -0.288 N 
ATOM      6  H2  UNL     1      21.659   9.628  23.356  1.00  0.00     0.187 HD
HETATM    7  N3  UNL     1      21.354   7.600  23.604  1.00  0.00    -0.067 N 
HETATM    8  C4  UNL     1      21.754   6.937  22.512  1.00  0.00     0.720 A 
HETATM    9  N5  UNL     1      21.623   5.605  22.481  1.00  0.00    -0.020 N 
ATOM     10  H5  UNL     1      21.930   5.109  21.645  1.00  0.00     0.203 HD
HETATM   11  C11 UNL     1      21.101   4.878  23.508  1.00  0.00     0.694 A 
HETATM   12  N7  UNL     1      20.723   5.596  24.564  1.00  0.00    -0.172 N 
ATOM     13  H7  UNL     1      20.327   5.090  25.357  1.00  0.00     0.186 HD
HETATM   14  C19 UNL     1      20.820   6.935  24.674  1.00  0.00     0.182 A 
ENDROOT
BRANCH   8  15
HETATM   15  N4  UNL     1      22.327   7.614  21.425  1.00  0.00    -0.189 N 
ATOM     16  H4  UNL     1      23.336   7.758  21.478  1.00  0.00     0.184 HD
BRANCH  15  17
HETATM   17  C5  UNL     1      21.704   8.118  20.279  1.00  0.00     0.049 A 
HETATM   18  C6  UNL     1      22.197   7.910  19.017  1.00  0.00     0.030 A 
HETATM   19  C7  UNL     1      21.574   8.453  17.886  1.00  0.00     0.002 A 
HETATM   20  C8  UNL     1      20.437   9.219  18.004  1.00  0.00     0.000 A 
HETATM   21  C9  UNL     1      19.937   9.429  19.270  1.00  0.00     0.002 A 
HETATM   22  C10 UNL     1      20.546   8.899  20.385  1.00  0.00     0.030 A 
ENDBRANCH  15  17
ENDBRANCH   8  15
BRANCH  11  23
HETATM   23  N6  UNL     1      21.033   3.465  23.385  1.00  0.00    -0.225 N 
ATOM     24  H6  UNL     1      21.066   2.928  24.251  1.00  0.00     0.177 HD
BRANCH  23  25
HETATM   25  C12 UNL     1      20.925   2.726  22.187  1.00  0.00     0.142 C 
BRANCH  25  26
HETATM   26  C13 UNL     1      21.045   1.246  22.254  1.00  0.00     0.004 C 
HETATM   27  C14 UNL     1      19.792   0.449  22.123  1.00  0.00     0.006 C 
HETATM   28  C15 UNL     1      18.925   0.533  23.365  1.00  0.00     0.000 C 
HETATM   29  C16 UNL     1      19.628  -0.252  24.452  1.00  0.00     0.000 C 
HETATM   30  C17 UNL     1      21.108  -0.370  24.201  1.00  0.00     0.000 C 
HETATM   31  C18 UNL     1      21.729   0.826  23.558  1.00  0.00     0.006 C 
ENDBRANCH  25  26
ENDBRANCH  23  25
ENDBRANCH  11  23
TORSDOF 5
ENDMDL
