MODEL 3
REMARK VINA RESULT: -9.599658008      1.281      1.834
REMARK  5 active torsions:
REMARK  status: ('A' for Active; 'I' for Inactive)
REMARK    1  A    between atoms: C4_8  and  N4_9 
REMARK    2  A    between atoms: N4_9  and  C5_11 
REMARK    3  A    between atoms: C11_19  and  N6_20 
REMARK    4  A    between atoms: N6_20  and  C12_22 
REMARK    5  A    between atoms: C12_22  and  C13_23 
ROOT
HETATM    1  N1  UNL     1      19.516   7.162  27.839  1.00  0.00    -0.191 NA
HETATM    2  C1  UNL     1      19.962   7.436  26.805  1.00  0.00     0.105 C 
HETATM    3  C2  UNL     1      20.520   7.775  25.538  1.00  0.00     0.108 A 
HETATM    4  C3  UNL     1      20.800   9.021  25.053  1.00  0.00     0.135 A 
HETATM    5  N2  UNL     1      21.310   8.857  23.832  1.00  0.00    -0.288 N 
ATOM      6  H2  UNL     1      21.607   9.632  23.239  1.00  0.00     0.187 HD
HETATM    7  N3  UNL     1      21.390   7.591  23.470  1.00  0.00    -0.067 N 
HETATM    8  C4  UNL     1      21.808   6.955  22.369  1.00  0.00     0.720 A 
HETATM    9  N5  UNL     1      21.733   5.619  22.327  1.00  0.00    -0.020 N 
ATOM     10  H5  UNL     1      22.054   5.143  21.483  1.00  0.00     0.203 HD
HETATM   11  C11 UNL     1      21.252   4.861  23.351  1.00  0.00     0.694 A 
HETATM   12  N7  UNL     1      20.853   5.554  24.417  1.00  0.00    -0.172 N 
ATOM     13  H7  UNL     1      20.485   5.024  25.208  1.00  0.00     0.186 HD
HETATM   14  C19 UNL     1      20.894   6.895  24.538  1.00  0.00     0.182 A 
ENDROOT
BRANCH   8  15
HETATM   15  N4  UNL     1      22.344   7.665  21.284  1.00  0.00    -0.189 N 
ATOM     16  H4  UNL     1      23.348   7.837  21.322  1.00  0.00     0.184 HD
BRANCH  15  17
HETATM   17  C5  UNL     1      21.686   8.169  20.157  1.00  0.00     0.049 A 
HETATM   18  C6  UNL     1      22.157   7.984  18.883  1.00  0.00     0.030 A 
HETATM   19  C7  UNL     1      21.500   8.527  17.771  1.00  0.00     0.002 A 
HETATM   20  C8  UNL     1      20.351   9.269  17.920  1.00  0.00     0.000 A 
HETATM   21  C9  UNL     1      19.874   9.456  19.199  1.00  0.00     0.002 A 
HETATM   22  C10 UNL     1      20.516   8.926  20.295  1.00  0.00     0.030 A 
ENDBRANCH  15  17
ENDBRANCH   8  15
BRANCH  11  23
HETATM   23  N6  UNL     1      21.242   3.448  23.215  1.00  0.00    -0.225 N 
ATOM     24  H6  UNL     1      20.350   3.018  22.975  1.00  0.00     0.177 HD
BRANCH  23  25
HETATM   25  C12 UNL     1      22.340   2.576  23.379  1.00  0.00     0.142 C 
BRANCH  25  26
HETATM   26  C13 UNL     1      23.049   2.093  22.166  1.00  0.00     0.004 C 
HETATM   27  C14 UNL     1      24.476   2.493  22.000  1.00  0.00     0.006 C 
HETATM   28  C15 UNL     1      24.624   3.956  21.623  1.00  0.00     0.000 C 
HETATM   29  C16 UNL     1      24.138   4.098  20.197  1.00  0.00     0.000 C 
HETATM   30  C17 UNL     1      23.190   2.995  19.805  1.00  0.00     0.000 C 
HETATM   31  C18 UNL     1      22.297   2.522  20.903  1.00  0.00     0.006 C 
ENDBRANCH  25  26
ENDBRANCH  23  25
ENDBRANCH  11  23
TORSDOF 5
ENDMDL
