MODEL 1
REMARK VINA RESULT: -9.893826528      0.000      0.000
REMARK  5 active torsions:
REMARK  status: ('A' for Active; 'I' for Inactive)
REMARK    1  A    between atoms: C4_8  and  N4_9 
REMARK    2  A    between atoms: N4_9  and  C5_11 
REMARK    3  A    between atoms: C11_19  and  N6_20 
REMARK    4  A    between atoms: N6_20  and  C12_22 
REMARK    5  A    between atoms: C12_22  and  C13_23 
ROOT
HETATM    1  N1  UNL     1      20.460   6.897  28.964  1.00  0.00    -0.191 NA
HETATM    2  C1  UNL     1      20.295   7.305  27.892  1.00  0.00     0.105 C 
HETATM    3  C2  UNL     1      20.099   7.813  26.574  1.00  0.00     0.108 A 
HETATM    4  C3  UNL     1      19.349   8.891  26.197  1.00  0.00     0.135 A 
HETATM    5  N2  UNL     1      19.457   8.995  24.872  1.00  0.00    -0.288 N 
ATOM      6  H2  UNL     1      18.993   9.719  24.325  1.00  0.00     0.187 HD
HETATM    7  N3  UNL     1      20.226   8.063  24.341  1.00  0.00    -0.067 N 
HETATM    8  C4  UNL     1      20.610   7.762  23.094  1.00  0.00     0.720 A 
HETATM    9  N5  UNL     1      21.408   6.704  22.902  1.00  0.00    -0.020 N 
ATOM     10  H5  UNL     1      21.695   6.482  21.949  1.00  0.00     0.203 HD
HETATM   11  C11 UNL     1      21.858   5.909  23.913  1.00  0.00     0.694 A 
HETATM   12  N7  UNL     1      21.441   6.262  25.128  1.00  0.00    -0.172 N 
ATOM     13  H7  UNL     1      21.755   5.693  25.914  1.00  0.00     0.186 HD
HETATM   14  C19 UNL     1      20.639   7.308  25.405  1.00  0.00     0.182 A 
ENDROOT
BRANCH   8  15
HETATM   15  N4  UNL     1      20.211   8.551  22.005  1.00  0.00    -0.189 N 
ATOM     16  H4  UNL     1      19.474   9.229  22.198  1.00  0.00     0.184 HD
BRANCH  15  17
HETATM   17  C5  UNL     1      20.687   8.534  20.690  1.00  0.00     0.049 A 
HETATM   18  C6  UNL     1      21.823   7.860  20.324  1.00  0.00     0.030 A 
HETATM   19  C7  UNL     1      22.300   7.884  19.008  1.00  0.00     0.002 A 
HETATM   20  C8  UNL     1      21.640   8.591  18.029  1.00  0.00     0.000 A 
HETATM   21  C9  UNL     1      20.497   9.268  18.392  1.00  0.00     0.002 A 
HETATM   22  C10 UNL     1      20.024   9.248  19.685  1.00  0.00     0.030 A 
ENDBRANCH  15  17
ENDBRANCH   8  15
BRANCH  11  23
HETATM   23  N6  UNL     1      22.725   4.828  23.603  1.00  0.00    -0.225 N 
ATOM     24  H6  UNL     1      23.322   4.490  24.357  1.00  0.00     0.177 HD
BRANCH  23  25
HETATM   25  C12 UNL     1      22.847   4.173  22.359  1.00  0.00     0.142 C 
BRANCH  25  26
HETATM   26  C13 UNL     1      24.100   4.355  21.581  1.00  0.00     0.004 C 
HETATM   27  C14 UNL     1      23.968   4.712  20.140  1.00  0.00     0.006 C 
HETATM   28  C15 UNL     1      23.501   3.540  19.297  1.00  0.00     0.000 C 
HETATM   29  C16 UNL     1      24.650   2.558  19.225  1.00  0.00     0.000 C 
HETATM   30  C17 UNL     1      25.608   2.718  20.376  1.00  0.00     0.000 C 
HETATM   31  C18 UNL     1      24.970   3.098  21.671  1.00  0.00     0.006 C 
ENDBRANCH  25  26
ENDBRANCH  23  25
ENDBRANCH  11  23
TORSDOF 5
ENDMDL
