MODEL 5
REMARK VINA RESULT: -9.881508156      2.234      3.430
REMARK  5 active torsions:
REMARK  status: ('A' for Active; 'I' for Inactive)
REMARK    1  A    between atoms: C4_8  and  N4_9 
REMARK    2  A    between atoms: N4_9  and  C5_11 
REMARK    3  A    between atoms: C11_19  and  N6_20 
REMARK    4  A    between atoms: N6_20  and  C12_22 
REMARK    5  A    between atoms: C12_22  and  C13_23 
ROOT
HETATM    1  N1  UNL     1      20.726   3.100  25.207  1.00  0.00    -0.191 NA
HETATM    2  C1  UNL     1      21.024   3.930  24.455  1.00  0.00     0.105 C 
HETATM    3  C2  UNL     1      21.406   4.957  23.531  1.00  0.00     0.108 A 
HETATM    4  C3  UNL     1      21.372   6.317  23.732  1.00  0.00     0.135 A 
HETATM    5  N2  UNL     1      21.815   6.894  22.612  1.00  0.00    -0.288 N 
ATOM      6  H2  UNL     1      21.895   7.902  22.481  1.00  0.00     0.187 HD
HETATM    7  N3  UNL     1      22.138   5.995  21.686  1.00  0.00    -0.067 N 
HETATM    8  C4  UNL     1      22.629   6.116  20.401  1.00  0.00     0.720 A 
HETATM    9  N5  UNL     1      22.840   4.954  19.751  1.00  0.00    -0.020 N 
ATOM     10  H5  UNL     1      23.202   5.000  18.799  1.00  0.00     0.203 HD
HETATM   11  C11 UNL     1      22.604   3.741  20.274  1.00  0.00     0.694 A 
HETATM   12  N7  UNL     1      22.131   3.696  21.518  1.00  0.00    -0.172 N 
ATOM     13  H7  UNL     1      21.944   2.785  21.937  1.00  0.00     0.186 HD
HETATM   14  C19 UNL     1      21.887   4.806  22.249  1.00  0.00     0.182 A 
ENDROOT
BRANCH   8  15
HETATM   15  N4  UNL     1      22.847   7.401  19.931  1.00  0.00    -0.189 N 
ATOM     16  H4  UNL     1      23.760   7.815  20.126  1.00  0.00     0.184 HD
BRANCH  15  17
HETATM   17  C5  UNL     1      21.940   8.181  19.217  1.00  0.00     0.049 A 
HETATM   18  C6  UNL     1      20.787   8.685  19.740  1.00  0.00     0.030 A 
HETATM   19  C7  UNL     1      19.887   9.473  18.995  1.00  0.00     0.002 A 
HETATM   20  C8  UNL     1      20.149   9.766  17.684  1.00  0.00     0.000 A 
HETATM   21  C9  UNL     1      21.299   9.274  17.126  1.00  0.00     0.002 A 
HETATM   22  C10 UNL     1      22.165   8.510  17.863  1.00  0.00     0.030 A 
ENDBRANCH  15  17
ENDBRANCH   8  15
BRANCH  11  23
HETATM   23  N6  UNL     1      22.844   2.552  19.543  1.00  0.00    -0.221 N 
ATOM     24  H6  UNL     1      22.358   2.368  18.665  1.00  0.00     0.178 HD
BRANCH  23  25
HETATM   25  C12 UNL     1      23.798   1.604  20.076  1.00  0.00     0.176 C 
BRANCH  25  26
HETATM   26  C13 UNL     1      25.071   1.560  19.351  1.00  0.00    -0.040 A 
HETATM   27  C14 UNL     1      26.179   2.316  19.732  1.00  0.00     0.010 A 
HETATM   28  C15 UNL     1      27.372   2.271  19.056  1.00  0.00     0.024 A 
HETATM   29  C16 UNL     1      27.510   1.448  17.941  1.00  0.00     0.034 A 
HETATM   30 CL1  UNL     1      28.999   1.347  17.038  1.00  0.00    -0.084 Cl
HETATM   31  C17 UNL     1      26.422   0.697  17.552  1.00  0.00     0.024 A 
HETATM   32  C18 UNL     1      25.219   0.748  18.245  1.00  0.00     0.010 A 
ENDBRANCH  25  26
ENDBRANCH  23  25
ENDBRANCH  11  23
TORSDOF 5
ENDMDL
