MODEL 2
REMARK VINA RESULT: -10.102814779      0.188      1.291
REMARK  5 active torsions:
REMARK  status: ('A' for Active; 'I' for Inactive)
REMARK    1  A    between atoms: C4_8  and  N4_9 
REMARK    2  A    between atoms: N4_9  and  C5_11 
REMARK    3  A    between atoms: C11_19  and  N6_20 
REMARK    4  A    between atoms: N6_20  and  C12_22 
REMARK    5  A    between atoms: C12_22  and  C13_23 
ROOT
HETATM    1  N1  UNL     1      20.641   6.526  28.612  1.00  0.00    -0.191 NA
HETATM    2  C1  UNL     1      20.450   6.971  27.559  1.00  0.00     0.105 C 
HETATM    3  C2  UNL     1      20.224   7.531  26.259  1.00  0.00     0.108 A 
HETATM    4  C3  UNL     1      19.438   8.615  25.941  1.00  0.00     0.135 A 
HETATM    5  N2  UNL     1      19.518   8.786  24.618  1.00  0.00    -0.288 N 
ATOM      6  H2  UNL     1      19.031   9.522  24.107  1.00  0.00     0.187 HD
HETATM    7  N3  UNL     1      20.307   7.880  24.048  1.00  0.00    -0.067 N 
HETATM    8  C4  UNL     1      20.682   7.664  22.736  1.00  0.00     0.720 A 
HETATM    9  N5  UNL     1      21.516   6.625  22.537  1.00  0.00    -0.020 N 
ATOM     10  H5  UNL     1      21.817   6.432  21.582  1.00  0.00     0.203 HD
HETATM   11  C11 UNL     1      21.977   5.827  23.512  1.00  0.00     0.694 A 
HETATM   12  N7  UNL     1      21.576   6.090  24.755  1.00  0.00    -0.172 N 
ATOM     13  H7  UNL     1      21.914   5.497  25.513  1.00  0.00     0.186 HD
HETATM   14  C19 UNL     1      20.742   7.109  25.054  1.00  0.00     0.182 A 
ENDROOT
BRANCH   8  15
HETATM   15  N4  UNL     1      20.166   8.530  21.786  1.00  0.00    -0.189 N 
ATOM     16  H4  UNL     1      19.404   9.140  22.083  1.00  0.00     0.184 HD
BRANCH  15  17
HETATM   17  C5  UNL     1      20.589   8.647  20.463  1.00  0.00     0.049 A 
HETATM   18  C6  UNL     1      19.937   9.375  19.513  1.00  0.00     0.030 A 
HETATM   19  C7  UNL     1      20.387   9.477  18.182  1.00  0.00     0.002 A 
HETATM   20  C8  UNL     1      21.527   8.828  17.787  1.00  0.00     0.000 A 
HETATM   21  C9  UNL     1      22.206   8.086  18.717  1.00  0.00     0.002 A 
HETATM   22  C10 UNL     1      21.756   7.997  20.008  1.00  0.00     0.030 A 
ENDBRANCH  15  17
ENDBRANCH   8  15
BRANCH  11  23
HETATM   23  N6  UNL     1      22.853   4.746  23.244  1.00  0.00    -0.221 N 
ATOM     24  H6  UNL     1      22.708   3.834  23.677  1.00  0.00     0.178 HD
BRANCH  23  25
HETATM   25  C12 UNL     1      23.958   4.972  22.339  1.00  0.00     0.176 C 
BRANCH  25  26
HETATM   26  C13 UNL     1      24.117   3.935  21.314  1.00  0.00    -0.040 A 
HETATM   27  C14 UNL     1      25.019   2.880  21.445  1.00  0.00     0.010 A 
HETATM   28  C15 UNL     1      25.163   1.908  20.488  1.00  0.00     0.024 A 
HETATM   29  C16 UNL     1      24.390   1.951  19.330  1.00  0.00     0.034 A 
HETATM   30 CL1  UNL     1      24.527   0.746  18.076  1.00  0.00    -0.084 Cl
HETATM   31  C17 UNL     1      23.495   2.988  19.187  1.00  0.00     0.024 A 
HETATM   32  C18 UNL     1      23.356   3.968  20.163  1.00  0.00     0.010 A 
ENDBRANCH  25  26
ENDBRANCH  23  25
ENDBRANCH  11  23
TORSDOF 5
ENDMDL
