MODEL 1
REMARK VINA RESULT: -10.153317466      0.000      0.000
REMARK  5 active torsions:
REMARK  status: ('A' for Active; 'I' for Inactive)
REMARK    1  A    between atoms: C4_8  and  N4_9 
REMARK    2  A    between atoms: N4_9  and  C5_11 
REMARK    3  A    between atoms: C11_19  and  N6_20 
REMARK    4  A    between atoms: N6_20  and  C12_22 
REMARK    5  A    between atoms: C12_22  and  C13_23 
ROOT
HETATM    1  N1  UNL     1      20.540   6.438  28.478  1.00  0.00    -0.191 NA
HETATM    2  C1  UNL     1      20.380   6.907  27.430  1.00  0.00     0.105 C 
HETATM    3  C2  UNL     1      20.194   7.497  26.137  1.00  0.00     0.108 A 
HETATM    4  C3  UNL     1      19.430   8.597  25.822  1.00  0.00     0.135 A 
HETATM    5  N2  UNL     1      19.544   8.793  24.506  1.00  0.00    -0.288 N 
ATOM      6  H2  UNL     1      19.079   9.546  23.998  1.00  0.00     0.187 HD
HETATM    7  N3  UNL     1      20.335   7.889  23.936  1.00  0.00    -0.067 N 
HETATM    8  C4  UNL     1      20.739   7.694  22.629  1.00  0.00     0.720 A 
HETATM    9  N5  UNL     1      21.564   6.647  22.429  1.00  0.00    -0.020 N 
ATOM     10  H5  UNL     1      21.885   6.470  21.478  1.00  0.00     0.203 HD
HETATM   11  C11 UNL     1      21.990   5.824  23.398  1.00  0.00     0.694 A 
HETATM   12  N7  UNL     1      21.563   6.067  24.637  1.00  0.00    -0.172 N 
ATOM     13  H7  UNL     1      21.874   5.454  25.390  1.00  0.00     0.186 HD
HETATM   14  C19 UNL     1      20.735   7.092  24.936  1.00  0.00     0.182 A 
ENDROOT
BRANCH   8  15
HETATM   15  N4  UNL     1      20.258   8.586  21.685  1.00  0.00    -0.189 N 
ATOM     16  H4  UNL     1      19.540   9.242  21.993  1.00  0.00     0.184 HD
BRANCH  15  17
HETATM   17  C5  UNL     1      20.661   8.672  20.353  1.00  0.00     0.049 A 
HETATM   18  C6  UNL     1      21.761   8.049  19.846  1.00  0.00     0.030 A 
HETATM   19  C7  UNL     1      22.146   8.153  18.494  1.00  0.00     0.002 A 
HETATM   20  C8  UNL     1      21.405   8.904  17.621  1.00  0.00     0.000 A 
HETATM   21  C9  UNL     1      20.292   9.544  18.099  1.00  0.00     0.002 A 
HETATM   22  C10 UNL     1      19.930   9.433  19.416  1.00  0.00     0.030 A 
ENDBRANCH  15  17
ENDBRANCH   8  15
BRANCH  11  23
HETATM   23  N6  UNL     1      22.858   4.737  23.129  1.00  0.00    -0.221 N 
ATOM     24  H6  UNL     1      22.678   3.813  23.521  1.00  0.00     0.178 HD
BRANCH  23  25
HETATM   25  C12 UNL     1      24.007   4.974  22.283  1.00  0.00     0.176 C 
BRANCH  25  26
HETATM   26  C13 UNL     1      24.209   3.958  21.245  1.00  0.00    -0.040 A 
HETATM   27  C14 UNL     1      23.366   3.835  20.140  1.00  0.00     0.010 A 
HETATM   28  C15 UNL     1      23.559   2.888  19.167  1.00  0.00     0.024 A 
HETATM   29  C16 UNL     1      24.628   2.001  19.260  1.00  0.00     0.034 A 
HETATM   30 CL1  UNL     1      24.926   0.774  18.056  1.00  0.00    -0.084 Cl
HETATM   31  C17 UNL     1      25.467   2.110  20.347  1.00  0.00     0.024 A 
HETATM   32  C18 UNL     1      25.265   3.074  21.327  1.00  0.00     0.010 A 
ENDBRANCH  25  26
ENDBRANCH  23  25
ENDBRANCH  11  23
TORSDOF 5
ENDMDL
