MODEL 3
REMARK VINA RESULT: -9.906604053      2.512      5.899
REMARK  5 active torsions:
REMARK  status: ('A' for Active; 'I' for Inactive)
REMARK    1  A    between atoms: C4_8  and  N4_9 
REMARK    2  A    between atoms: N4_9  and  C5_11 
REMARK    3  A    between atoms: C11_19  and  N6_20 
REMARK    4  A    between atoms: N6_20  and  C12_22 
REMARK    5  A    between atoms: C12_22  and  C13_23 
ROOT
HETATM    1  N1  UNL     1      22.216   8.877  16.078  1.00  0.00    -0.191 NA
HETATM    2  C1  UNL     1      21.741   8.894  17.135  1.00  0.00     0.105 C 
HETATM    3  C2  UNL     1      21.143   8.906  18.438  1.00  0.00     0.108 A 
HETATM    4  C3  UNL     1      20.089   9.678  18.866  1.00  0.00     0.135 A 
HETATM    5  N2  UNL     1      19.864   9.365  20.145  1.00  0.00    -0.288 N 
ATOM      6  H2  UNL     1      19.134   9.789  20.717  1.00  0.00     0.187 HD
HETATM    7  N3  UNL     1      20.706   8.434  20.583  1.00  0.00    -0.067 N 
HETATM    8  C4  UNL     1      20.853   7.811  21.807  1.00  0.00     0.720 A 
HETATM    9  N5  UNL     1      21.841   6.898  21.876  1.00  0.00    -0.020 N 
ATOM     10  H5  UNL     1      21.983   6.415  22.763  1.00  0.00     0.203 HD
HETATM   11  C11 UNL     1      22.652   6.582  20.855  1.00  0.00     0.694 A 
HETATM   12  N7  UNL     1      22.457   7.221  19.702  1.00  0.00    -0.172 N 
ATOM     13  H7  UNL     1      23.062   6.997  18.912  1.00  0.00     0.186 HD
HETATM   14  C19 UNL     1      21.493   8.152  19.536  1.00  0.00     0.182 A 
ENDROOT
BRANCH   8  15
HETATM   15  N4  UNL     1      19.978   8.190  22.813  1.00  0.00    -0.189 N 
ATOM     16  H4  UNL     1      19.178   8.760  22.538  1.00  0.00     0.184 HD
BRANCH  15  17
HETATM   17  C5  UNL     1      20.087   7.865  24.164  1.00  0.00     0.049 A 
HETATM   18  C6  UNL     1      20.030   6.594  24.652  1.00  0.00     0.030 A 
HETATM   19  C7  UNL     1      20.144   6.294  26.024  1.00  0.00     0.002 A 
HETATM   20  C8  UNL     1      20.319   7.298  26.938  1.00  0.00     0.000 A 
HETATM   21  C9  UNL     1      20.380   8.588  26.481  1.00  0.00     0.002 A 
HETATM   22  C10 UNL     1      20.269   8.864  25.143  1.00  0.00     0.030 A 
ENDBRANCH  15  17
ENDBRANCH   8  15
BRANCH  11  23
HETATM   23  N6  UNL     1      23.677   5.613  20.985  1.00  0.00    -0.221 N 
ATOM     24  H6  UNL     1      24.331   5.436  20.223  1.00  0.00     0.178 HD
BRANCH  23  25
HETATM   25  C12 UNL     1      23.770   4.881  22.230  1.00  0.00     0.176 C 
BRANCH  25  26
HETATM   26  C13 UNL     1      22.746   3.845  22.395  1.00  0.00    -0.040 A 
HETATM   27  C14 UNL     1      22.460   2.906  21.405  1.00  0.00     0.010 A 
HETATM   28  C15 UNL     1      21.505   1.934  21.563  1.00  0.00     0.024 A 
HETATM   29  C16 UNL     1      20.776   1.859  22.748  1.00  0.00     0.034 A 
HETATM   30 CL1  UNL     1      19.548   0.649  23.009  1.00  0.00    -0.084 Cl
HETATM   31  C17 UNL     1      21.048   2.782  23.734  1.00  0.00     0.024 A 
HETATM   32  C18 UNL     1      22.018   3.762  23.565  1.00  0.00     0.010 A 
ENDBRANCH  25  26
ENDBRANCH  23  25
ENDBRANCH  11  23
TORSDOF 5
ENDMDL
