MODEL 4
REMARK VINA RESULT: -9.889973203      2.487      5.933
REMARK  5 active torsions:
REMARK  status: ('A' for Active; 'I' for Inactive)
REMARK    1  A    between atoms: C4_8  and  N4_9 
REMARK    2  A    between atoms: N4_9  and  C5_11 
REMARK    3  A    between atoms: C11_19  and  N6_20 
REMARK    4  A    between atoms: N6_20  and  C12_22 
REMARK    5  A    between atoms: C12_22  and  C13_23 
ROOT
HETATM    1  N1  UNL     1      22.216   8.892  16.110  1.00  0.00    -0.191 NA
HETATM    2  C1  UNL     1      21.739   8.904  17.166  1.00  0.00     0.105 C 
HETATM    3  C2  UNL     1      21.139   8.908  18.468  1.00  0.00     0.108 A 
HETATM    4  C3  UNL     1      20.077   9.671  18.896  1.00  0.00     0.135 A 
HETATM    5  N2  UNL     1      19.852   9.354  20.174  1.00  0.00    -0.288 N 
ATOM      6  H2  UNL     1      19.117   9.771  20.745  1.00  0.00     0.187 HD
HETATM    7  N3  UNL     1      20.702   8.430  20.612  1.00  0.00    -0.067 N 
HETATM    8  C4  UNL     1      20.852   7.807  21.836  1.00  0.00     0.720 A 
HETATM    9  N5  UNL     1      21.849   6.902  21.905  1.00  0.00    -0.020 N 
ATOM     10  H5  UNL     1      21.993   6.419  22.792  1.00  0.00     0.203 HD
HETATM   11  C11 UNL     1      22.664   6.595  20.885  1.00  0.00     0.694 A 
HETATM   12  N7  UNL     1      22.466   7.233  19.733  1.00  0.00    -0.172 N 
ATOM     13  H7  UNL     1      23.073   7.016  18.943  1.00  0.00     0.186 HD
HETATM   14  C19 UNL     1      21.493   8.156  19.566  1.00  0.00     0.182 A 
ENDROOT
BRANCH   8  15
HETATM   15  N4  UNL     1      19.973   8.176  22.840  1.00  0.00    -0.189 N 
ATOM     16  H4  UNL     1      19.167   8.738  22.564  1.00  0.00     0.184 HD
BRANCH  15  17
HETATM   17  C5  UNL     1      20.083   7.853  24.192  1.00  0.00     0.049 A 
HETATM   18  C6  UNL     1      20.261   8.769  25.185  1.00  0.00     0.030 A 
HETATM   19  C7  UNL     1      20.369   8.415  26.544  1.00  0.00     0.002 A 
HETATM   20  C8  UNL     1      20.297   7.101  26.923  1.00  0.00     0.000 A 
HETATM   21  C9  UNL     1      20.119   6.154  25.949  1.00  0.00     0.002 A 
HETATM   22  C10 UNL     1      20.015   6.514  24.631  1.00  0.00     0.030 A 
ENDBRANCH  15  17
ENDBRANCH   8  15
BRANCH  11  23
HETATM   23  N6  UNL     1      23.698   5.635  21.016  1.00  0.00    -0.221 N 
ATOM     24  H6  UNL     1      24.364   5.476  20.261  1.00  0.00     0.178 HD
BRANCH  23  25
HETATM   25  C12 UNL     1      23.781   4.885  22.251  1.00  0.00     0.176 C 
BRANCH  25  26
HETATM   26  C13 UNL     1      22.740   3.863  22.404  1.00  0.00    -0.040 A 
HETATM   27  C14 UNL     1      21.991   3.724  23.572  1.00  0.00     0.010 A 
HETATM   28  C15 UNL     1      21.014   2.772  23.713  1.00  0.00     0.024 A 
HETATM   29  C16 UNL     1      20.739   1.895  22.666  1.00  0.00     0.034 A 
HETATM   30 CL1  UNL     1      19.511   0.662  22.783  1.00  0.00    -0.084 Cl
HETATM   31  C17 UNL     1      21.473   2.021  21.507  1.00  0.00     0.024 A 
HETATM   32  C18 UNL     1      22.460   2.990  21.373  1.00  0.00     0.010 A 
ENDBRANCH  25  26
ENDBRANCH  23  25
ENDBRANCH  11  23
TORSDOF 5
ENDMDL
