MODEL 3
REMARK VINA RESULT: -10.067249338      2.489      6.745
REMARK  4 active torsions:
REMARK  status: ('A' for Active; 'I' for Inactive)
REMARK    1  A    between atoms: C2_2  and  N1_3 
REMARK    2  A    between atoms: N2_6  and  C5_7 
REMARK    3  A    between atoms: C6_10  and  N4_11 
REMARK    4  A    between atoms: N4_11  and  C7_13 
ROOT
HETATM    1  C5  UNL     1      22.313   5.543  21.096  1.00  0.00     0.696 A 
HETATM    2  N3  UNL     1      22.883   6.383  20.229  1.00  0.00    -0.020 N 
ATOM      3  H3  UNL     1      22.735   7.383  20.369  1.00  0.00     0.203 HD
HETATM    4  C6  UNL     1      23.637   6.001  19.187  1.00  0.00     0.720 A 
HETATM    5  N5  UNL     1      23.822   4.642  19.020  1.00  0.00    -0.067 N 
HETATM    6  N6  UNL     1      24.485   3.923  18.132  1.00  0.00    -0.288 N 
ATOM      7  H6  UNL     1      25.013   4.324  17.356  1.00  0.00     0.187 HD
HETATM    8  C13 UNL     1      24.386   2.624  18.363  1.00  0.00     0.135 A 
HETATM    9  C14 UNL     1      23.605   2.467  19.480  1.00  0.00     0.108 A 
HETATM   10  C15 UNL     1      23.207   1.253  20.131  1.00  0.00     0.105 C 
HETATM   11  N7  UNL     1      22.872   0.274  20.644  1.00  0.00    -0.191 NA
HETATM   12  C16 UNL     1      23.267   3.771  19.867  1.00  0.00     0.182 A 
HETATM   13  N8  UNL     1      22.528   4.235  20.883  1.00  0.00    -0.172 N 
ATOM     14  H8  UNL     1      22.108   3.562  21.525  1.00  0.00     0.186 HD
ENDROOT
BRANCH   4  15
HETATM   15  N4  UNL     1      24.258   6.827  18.250  1.00  0.00    -0.189 N 
ATOM     16  H4  UNL     1      25.239   7.056  18.410  1.00  0.00     0.184 HD
BRANCH  15  17
HETATM   17  C7  UNL     1      23.653   7.370  17.105  1.00  0.00     0.049 A 
HETATM   18  C8  UNL     1      22.667   8.312  17.201  1.00  0.00     0.030 A 
HETATM   19  C9  UNL     1      22.080   8.817  16.050  1.00  0.00     0.002 A 
HETATM   20  C10 UNL     1      22.501   8.363  14.821  1.00  0.00     0.000 A 
HETATM   21  C11 UNL     1      23.490   7.420  14.704  1.00  0.00     0.002 A 
HETATM   22  C12 UNL     1      24.053   6.935  15.830  1.00  0.00     0.030 A 
ENDBRANCH  15  17
ENDBRANCH   4  15
BRANCH   1  23
HETATM   23  N2  UNL     1      21.515   6.011  22.193  1.00  0.00    -0.214 N 
HETATM   24  C4  UNL     1      21.350   7.422  22.329  1.00  0.00     0.171 C 
HETATM   25  C3  UNL     1      20.581   7.858  23.524  1.00  0.00     0.292 C 
HETATM   26  N1  UNL     1      20.678   7.030  24.673  1.00  0.00     0.091 N 
HETATM   27  C18 UNL     1      20.942   5.657  24.506  1.00  0.00     0.292 C 
HETATM   28  C17 UNL     1      20.906   5.111  23.114  1.00  0.00     0.171 C 
BRANCH  26  29
HETATM   29  C2  UNL     1      19.497   7.251  25.528  1.00  0.00     0.268 C 
HETATM   30  C1  UNL     1      19.220   8.697  25.748  1.00  0.00     0.037 C 
ENDBRANCH  26  29
ENDBRANCH   1  23
TORSDOF 4
ENDMDL
