MODEL 2
REMARK VINA RESULT: -10.078730450      2.386      6.668
REMARK  4 active torsions:
REMARK  status: ('A' for Active; 'I' for Inactive)
REMARK    1  A    between atoms: C2_2  and  N1_3 
REMARK    2  A    between atoms: N2_6  and  C5_7 
REMARK    3  A    between atoms: C6_10  and  N4_11 
REMARK    4  A    between atoms: N4_11  and  C7_13 
ROOT
HETATM    1  C5  UNL     1      22.531   5.519  21.070  1.00  0.00     0.696 A 
HETATM    2  N3  UNL     1      23.088   6.303  20.144  1.00  0.00    -0.020 N 
ATOM      3  H3  UNL     1      23.007   7.312  20.265  1.00  0.00     0.203 HD
HETATM    4  C6  UNL     1      23.744   5.852  19.064  1.00  0.00     0.720 A 
HETATM    5  N5  UNL     1      23.839   4.481  18.923  1.00  0.00    -0.067 N 
HETATM    6  N6  UNL     1      24.398   3.703  18.012  1.00  0.00    -0.288 N 
ATOM      7  H6  UNL     1      24.893   4.054  17.192  1.00  0.00     0.187 HD
HETATM    8  C13 UNL     1      24.240   2.418  18.286  1.00  0.00     0.135 A 
HETATM    9  C14 UNL     1      23.531   2.335  19.457  1.00  0.00     0.108 A 
HETATM   10  C15 UNL     1      23.110   1.162  20.167  1.00  0.00     0.105 C 
HETATM   11  N7  UNL     1      22.756   0.217  20.729  1.00  0.00    -0.191 NA
HETATM   12  C16 UNL     1      23.296   3.665  19.830  1.00  0.00     0.182 A 
HETATM   13  N8  UNL     1      22.656   4.195  20.880  1.00  0.00    -0.172 N 
ATOM     14  H8  UNL     1      22.244   3.564  21.568  1.00  0.00     0.186 HD
ENDROOT
BRANCH   4  15
HETATM   15  N4  UNL     1      24.346   6.617  18.064  1.00  0.00    -0.189 N 
ATOM     16  H4  UNL     1      25.361   6.709  18.097  1.00  0.00     0.184 HD
BRANCH  15  17
HETATM   17  C7  UNL     1      23.678   7.271  17.016  1.00  0.00     0.049 A 
HETATM   18  C8  UNL     1      22.726   8.221  17.263  1.00  0.00     0.030 A 
HETATM   19  C9  UNL     1      22.075   8.838  16.204  1.00  0.00     0.002 A 
HETATM   20  C10 UNL     1      22.396   8.483  14.915  1.00  0.00     0.000 A 
HETATM   21  C11 UNL     1      23.348   7.533  14.647  1.00  0.00     0.002 A 
HETATM   22  C12 UNL     1      23.975   6.940  15.683  1.00  0.00     0.030 A 
ENDBRANCH  15  17
ENDBRANCH   4  15
BRANCH   1  23
HETATM   23  N2  UNL     1      21.840   6.059  22.205  1.00  0.00    -0.214 N 
HETATM   24  C4  UNL     1      21.509   5.160  23.262  1.00  0.00     0.171 C 
HETATM   25  C3  UNL     1      20.725   5.752  24.377  1.00  0.00     0.292 C 
HETATM   26  N1  UNL     1      19.849   6.816  24.037  1.00  0.00     0.091 N 
HETATM   27  C18 UNL     1      20.155   7.624  22.924  1.00  0.00     0.292 C 
HETATM   28  C17 UNL     1      21.493   7.439  22.283  1.00  0.00     0.171 C 
BRANCH  26  29
HETATM   29  C2  UNL     1      19.590   7.631  25.239  1.00  0.00     0.268 C 
HETATM   30  C1  UNL     1      20.062   9.034  25.084  1.00  0.00     0.037 C 
ENDBRANCH  26  29
ENDBRANCH   1  23
TORSDOF 4
ENDMDL
