MODEL 1
REMARK VINA RESULT: -10.084023992      0.000      0.000
REMARK  4 active torsions:
REMARK  status: ('A' for Active; 'I' for Inactive)
REMARK    1  A    between atoms: C2_2  and  N1_3 
REMARK    2  A    between atoms: N2_6  and  C5_7 
REMARK    3  A    between atoms: C6_10  and  N4_11 
REMARK    4  A    between atoms: N4_11  and  C7_13 
ROOT
HETATM    1  C5  UNL     1      24.639   3.057  18.482  1.00  0.00     0.696 A 
HETATM    2  N3  UNL     1      24.894   4.246  17.932  1.00  0.00    -0.020 N 
ATOM      3  H3  UNL     1      25.528   4.274  17.133  1.00  0.00     0.203 HD
HETATM    4  C6  UNL     1      24.375   5.407  18.359  1.00  0.00     0.720 A 
HETATM    5  N5  UNL     1      23.520   5.342  19.443  1.00  0.00    -0.067 N 
HETATM    6  N6  UNL     1      22.842   6.257  20.114  1.00  0.00    -0.288 N 
ATOM      7  H6  UNL     1      22.862   7.254  19.896  1.00  0.00     0.187 HD
HETATM    8  C13 UNL     1      22.135   5.731  21.102  1.00  0.00     0.135 A 
HETATM    9  C14 UNL     1      22.356   4.378  21.087  1.00  0.00     0.108 A 
HETATM   10  C15 UNL     1      21.817   3.373  21.956  1.00  0.00     0.105 C 
HETATM   11  N7  UNL     1      21.396   2.566  22.668  1.00  0.00    -0.191 NA
HETATM   12  C16 UNL     1      23.240   4.171  20.019  1.00  0.00     0.182 A 
HETATM   13  N8  UNL     1      23.802   3.057  19.532  1.00  0.00    -0.172 N 
ATOM     14  H8  UNL     1      23.582   2.166  19.979  1.00  0.00     0.186 HD
ENDROOT
BRANCH   4  15
HETATM   15  N4  UNL     1      24.601   6.678  17.828  1.00  0.00    -0.189 N 
ATOM     16  H4  UNL     1      25.384   7.207  18.210  1.00  0.00     0.184 HD
BRANCH  15  17
HETATM   17  C7  UNL     1      23.845   7.291  16.816  1.00  0.00     0.049 A 
HETATM   18  C8  UNL     1      22.865   8.197  17.111  1.00  0.00     0.030 A 
HETATM   19  C9  UNL     1      22.127   8.774  16.087  1.00  0.00     0.002 A 
HETATM   20  C10 UNL     1      22.394   8.427  14.783  1.00  0.00     0.000 A 
HETATM   21  C11 UNL     1      23.374   7.521  14.468  1.00  0.00     0.002 A 
HETATM   22  C12 UNL     1      24.085   6.966  15.470  1.00  0.00     0.030 A 
ENDBRANCH  15  17
ENDBRANCH   4  15
BRANCH   1  23
HETATM   23  N2  UNL     1      25.226   1.848  17.981  1.00  0.00    -0.214 N 
HETATM   24  C4  UNL     1      26.561   1.924  17.483  1.00  0.00     0.171 C 
HETATM   25  C3  UNL     1      27.095   0.663  16.904  1.00  0.00     0.292 C 
HETATM   26  N1  UNL     1      26.149  -0.202  16.296  1.00  0.00     0.091 N 
HETATM   27  C18 UNL     1      24.814  -0.179  16.746  1.00  0.00     0.292 C 
HETATM   28  C17 UNL     1      24.513   0.614  17.977  1.00  0.00     0.171 C 
BRANCH  26  29
HETATM   29  C2  UNL     1      26.688  -1.575  16.283  1.00  0.00     0.268 C 
HETATM   30  C1  UNL     1      28.176  -1.599  16.333  1.00  0.00     0.037 C 
ENDBRANCH  26  29
ENDBRANCH   1  23
TORSDOF 4
ENDMDL
