MODEL 19
REMARK VINA RESULT: -9.018122056      3.146      6.836
REMARK  4 active torsions:
REMARK  status: ('A' for Active; 'I' for Inactive)
REMARK    1  A    between atoms: C2_2  and  N1_3 
REMARK    2  A    between atoms: N2_6  and  C5_7 
REMARK    3  A    between atoms: C6_10  and  N4_11 
REMARK    4  A    between atoms: N4_11  and  C7_13 
ROOT
HETATM    1  C5  UNL     1      22.496   6.434  20.251  1.00  0.00     0.696 A 
HETATM    2  N3  UNL     1      21.764   6.851  21.287  1.00  0.00    -0.020 N 
ATOM      3  H3  UNL     1      21.868   6.356  22.173  1.00  0.00     0.203 HD
HETATM    4  C6  UNL     1      20.900   7.877  21.241  1.00  0.00     0.720 A 
HETATM    5  N5  UNL     1      20.777   8.531  20.030  1.00  0.00    -0.067 N 
HETATM    6  N6  UNL     1      20.046   9.555  19.627  1.00  0.00    -0.288 N 
ATOM      7  H6  UNL     1      19.395  10.061  20.229  1.00  0.00     0.187 HD
HETATM    8  C13 UNL     1      20.255   9.849  18.354  1.00  0.00     0.135 A 
HETATM    9  C14 UNL     1      21.187   8.962  17.878  1.00  0.00     0.108 A 
HETATM   10  C15 UNL     1      21.744   8.870  16.559  1.00  0.00     0.105 C 
HETATM   11  N7  UNL     1      22.179   8.786  15.492  1.00  0.00    -0.191 NA
HETATM   12  C16 UNL     1      21.494   8.143  18.972  1.00  0.00     0.182 A 
HETATM   13  N8  UNL     1      22.334   7.108  19.101  1.00  0.00    -0.172 N 
ATOM     14  H8  UNL     1      22.878   6.819  18.287  1.00  0.00     0.186 HD
ENDROOT
BRANCH   4  15
HETATM   15  N4  UNL     1      20.110   8.359  22.284  1.00  0.00    -0.189 N 
ATOM     16  H4  UNL     1      19.485   9.137  22.072  1.00  0.00     0.184 HD
BRANCH  15  17
HETATM   17  C7  UNL     1      20.097   7.869  23.600  1.00  0.00     0.049 A 
HETATM   18  C8  UNL     1      20.208   6.532  23.862  1.00  0.00     0.030 A 
HETATM   19  C9  UNL     1      20.178   6.080  25.173  1.00  0.00     0.002 A 
HETATM   20  C10 UNL     1      20.036   6.987  26.198  1.00  0.00     0.000 A 
HETATM   21  C11 UNL     1      19.924   8.332  25.955  1.00  0.00     0.002 A 
HETATM   22  C12 UNL     1      19.955   8.761  24.677  1.00  0.00     0.030 A 
ENDBRANCH  15  17
ENDBRANCH   4  15
BRANCH   1  23
HETATM   23  N2  UNL     1      23.404   5.329  20.361  1.00  0.00    -0.214 N 
HETATM   24  C4  UNL     1      23.830   4.706  19.149  1.00  0.00     0.171 C 
HETATM   25  C3  UNL     1      24.707   3.519  19.321  1.00  0.00     0.292 C 
HETATM   26  N1  UNL     1      24.500   2.746  20.492  1.00  0.00     0.091 N 
HETATM   27  C18 UNL     1      23.982   3.373  21.643  1.00  0.00     0.292 C 
HETATM   28  C17 UNL     1      23.869   4.864  21.625  1.00  0.00     0.171 C 
BRANCH  26  29
HETATM   29  C2  UNL     1      25.731   1.993  20.798  1.00  0.00     0.268 C 
HETATM   30  C1  UNL     1      26.574   1.772  19.591  1.00  0.00     0.037 C 
ENDBRANCH  26  29
ENDBRANCH   1  23
TORSDOF 4
ENDMDL
