MODEL 3
REMARK VINA RESULT: -9.640280672      1.528      2.092
REMARK  6 active torsions:
REMARK  status: ('A' for Active; 'I' for Inactive)
REMARK    1  A    between atoms: C4_8  and  N4_9 
REMARK    2  A    between atoms: N4_9  and  C5_11 
REMARK    3  A    between atoms: C5_11  and  C6_12 
REMARK    4  A    between atoms: C6_12  and  C7_13 
REMARK    5  A    between atoms: C10_22  and  N8_23 
REMARK    6  A    between atoms: N8_23  and  C11_25 
ROOT
HETATM    1  N1  UNL     1      20.592   4.402  23.255  1.00  0.00    -0.191 NA
HETATM    2  C1  UNL     1      21.177   3.801  22.453  1.00  0.00     0.105 C 
HETATM    3  C2  UNL     1      21.897   3.038  21.474  1.00  0.00     0.108 A 
HETATM    4  C3  UNL     1      21.889   1.664  21.340  1.00  0.00     0.135 A 
HETATM    5  N2  UNL     1      22.699   1.408  20.303  1.00  0.00    -0.288 N 
ATOM      6  H2  UNL     1      22.908   0.477  19.944  1.00  0.00     0.187 HD
HETATM    7  N3  UNL     1      23.197   2.547  19.804  1.00  0.00    -0.068 N 
HETATM    8  C4  UNL     1      24.039   2.812  18.784  1.00  0.00     0.715 A 
HETATM    9  N7  UNL     1      24.393   4.060  18.476  1.00  0.00    -0.020 N 
ATOM     10  H7  UNL     1      25.032   4.211  17.695  1.00  0.00     0.203 HD
HETATM   11  C10 UNL     1      23.926   5.152  19.174  1.00  0.00     0.699 A 
HETATM   12  N9  UNL     1      23.096   4.832  20.173  1.00  0.00    -0.172 N 
ATOM     13  H9  UNL     1      22.716   5.598  20.729  1.00  0.00     0.186 HD
HETATM   14  C17 UNL     1      22.724   3.587  20.504  1.00  0.00     0.182 A 
ENDROOT
BRANCH   8  15
HETATM   15  N4  UNL     1      24.542   1.718  18.032  1.00  0.00    -0.223 N 
ATOM     16  H4  UNL     1      24.019   1.361  17.232  1.00  0.00     0.177 HD
BRANCH  15  17
HETATM   17  C5  UNL     1      25.787   1.120  18.403  1.00  0.00     0.144 C 
BRANCH  17  18
HETATM   18  C6  UNL     1      26.077  -0.193  17.751  1.00  0.00     0.078 C 
BRANCH  18  19
HETATM   19  C7  UNL     1      26.208  -0.040  16.279  1.00  0.00     0.027 A 
HETATM   20  C8  UNL     1      25.365  -0.644  15.358  1.00  0.00     0.114 A 
HETATM   21  N5  UNL     1      25.730  -0.323  14.112  1.00  0.00    -0.360 N 
HETATM   22  C9  UNL     1      26.798   0.480  14.239  1.00  0.00     0.180 A 
ATOM     23  H5  UNL     1      25.288  -0.625  13.245  1.00  0.00     0.166 HD
HETATM   24  N6  UNL     1      27.093   0.655  15.554  1.00  0.00    -0.355 N 
ATOM     25  H6  UNL     1      27.857   1.220  15.924  1.00  0.00     0.166 HD
ENDBRANCH  18  19
ENDBRANCH  17  18
ENDBRANCH  15  17
ENDBRANCH   8  15
BRANCH  11  26
HETATM   26  N8  UNL     1      24.344   6.436  18.800  1.00  0.00    -0.191 N 
ATOM     27  H8  UNL     1      25.324   6.664  18.969  1.00  0.00     0.184 HD
BRANCH  26  28
HETATM   28  C11 UNL     1      23.560   7.442  18.219  1.00  0.00     0.049 A 
HETATM   29  C12 UNL     1      22.500   8.012  18.916  1.00  0.00     0.030 A 
HETATM   30  C13 UNL     1      21.750   8.996  18.344  1.00  0.00     0.002 A 
HETATM   31  C14 UNL     1      22.008   9.454  17.073  1.00  0.00     0.000 A 
HETATM   32  C15 UNL     1      23.034   8.921  16.363  1.00  0.00     0.002 A 
HETATM   33  C16 UNL     1      23.803   7.910  16.954  1.00  0.00     0.030 A 
ENDBRANCH  26  28
ENDBRANCH  11  26
TORSDOF 6
ENDMDL
