MODEL 2
REMARK VINA RESULT: -9.677026848      1.416      1.725
REMARK  6 active torsions:
REMARK  status: ('A' for Active; 'I' for Inactive)
REMARK    1  A    between atoms: C4_8  and  N4_9 
REMARK    2  A    between atoms: N4_9  and  C5_11 
REMARK    3  A    between atoms: C5_11  and  C6_12 
REMARK    4  A    between atoms: C6_12  and  C7_13 
REMARK    5  A    between atoms: C10_22  and  N8_23 
REMARK    6  A    between atoms: N8_23  and  C11_25 
ROOT
HETATM    1  N1  UNL     1      20.826   4.832  23.667  1.00  0.00    -0.191 NA
HETATM    2  C1  UNL     1      21.213   4.165  22.800  1.00  0.00     0.105 C 
HETATM    3  C2  UNL     1      21.690   3.321  21.742  1.00  0.00     0.108 A 
HETATM    4  C3  UNL     1      21.474   1.963  21.619  1.00  0.00     0.135 A 
HETATM    5  N2  UNL     1      22.101   1.610  20.488  1.00  0.00    -0.288 N 
ATOM      6  H2  UNL     1      22.131   0.663  20.111  1.00  0.00     0.187 HD
HETATM    7  N3  UNL     1      22.684   2.674  19.922  1.00  0.00    -0.068 N 
HETATM    8  C4  UNL     1      23.417   2.831  18.801  1.00  0.00     0.715 A 
HETATM    9  N7  UNL     1      23.898   4.022  18.441  1.00  0.00    -0.020 N 
ATOM     10  H7  UNL     1      24.447   4.092  17.584  1.00  0.00     0.203 HD
HETATM   11  C10 UNL     1      23.680   5.160  19.186  1.00  0.00     0.699 A 
HETATM   12  N9  UNL     1      22.949   4.946  20.286  1.00  0.00    -0.172 N 
ATOM     13  H9  UNL     1      22.754   5.752  20.881  1.00  0.00     0.186 HD
HETATM   14  C17 UNL     1      22.453   3.761  20.670  1.00  0.00     0.182 A 
ENDROOT
BRANCH   8  15
HETATM   15  N4  UNL     1      23.663   1.687  17.997  1.00  0.00    -0.223 N 
ATOM     16  H4  UNL     1      23.086   1.502  17.177  1.00  0.00     0.177 HD
BRANCH  15  17
HETATM   17  C5  UNL     1      24.725   0.796  18.346  1.00  0.00     0.144 C 
BRANCH  17  18
HETATM   18  C6  UNL     1      24.773  -0.470  17.553  1.00  0.00     0.078 C 
BRANCH  18  19
HETATM   19  C7  UNL     1      25.416  -0.249  16.232  1.00  0.00     0.027 A 
HETATM   20  C8  UNL     1      26.766   0.020  16.061  1.00  0.00     0.114 A 
HETATM   21  N5  UNL     1      27.050   0.172  14.763  1.00  0.00    -0.360 N 
HETATM   22  C9  UNL     1      25.889   0.001  14.112  1.00  0.00     0.180 A 
ATOM     23  H5  UNL     1      27.960   0.375  14.353  1.00  0.00     0.166 HD
HETATM   24  N6  UNL     1      24.892  -0.255  15.000  1.00  0.00    -0.355 N 
ATOM     25  H6  UNL     1      23.914  -0.423  14.767  1.00  0.00     0.166 HD
ENDBRANCH  18  19
ENDBRANCH  17  18
ENDBRANCH  15  17
ENDBRANCH   8  15
BRANCH  11  26
HETATM   26  N8  UNL     1      24.221   6.378  18.753  1.00  0.00    -0.191 N 
ATOM     27  H8  UNL     1      25.216   6.522  18.926  1.00  0.00     0.184 HD
BRANCH  26  28
HETATM   28  C11 UNL     1      23.541   7.421  18.108  1.00  0.00     0.049 A 
HETATM   29  C12 UNL     1      23.840   7.761  16.794  1.00  0.00     0.030 A 
HETATM   30  C13 UNL     1      23.166   8.770  16.174  1.00  0.00     0.002 A 
HETATM   31  C14 UNL     1      22.179   9.482  16.817  1.00  0.00     0.000 A 
HETATM   32  C15 UNL     1      21.861   9.177  18.101  1.00  0.00     0.002 A 
HETATM   33  C16 UNL     1      22.557   8.139  18.735  1.00  0.00     0.030 A 
ENDBRANCH  26  28
ENDBRANCH  11  26
TORSDOF 6
ENDMDL
