MODEL 1
REMARK VINA RESULT: -9.686573030      0.000      0.000
REMARK  6 active torsions:
REMARK  status: ('A' for Active; 'I' for Inactive)
REMARK    1  A    between atoms: C4_8  and  N4_9 
REMARK    2  A    between atoms: N4_9  and  C5_11 
REMARK    3  A    between atoms: C5_11  and  C6_12 
REMARK    4  A    between atoms: C6_12  and  C7_13 
REMARK    5  A    between atoms: C10_22  and  N8_23 
REMARK    6  A    between atoms: N8_23  and  C11_25 
ROOT
HETATM    1  N1  UNL     1      20.675   4.787  23.947  1.00  0.00    -0.191 NA
HETATM    2  C1  UNL     1      21.064   4.157  23.053  1.00  0.00     0.105 C 
HETATM    3  C2  UNL     1      21.543   3.359  21.961  1.00  0.00     0.108 A 
HETATM    4  C3  UNL     1      21.335   2.006  21.785  1.00  0.00     0.135 A 
HETATM    5  N2  UNL     1      21.961   1.701  20.639  1.00  0.00    -0.288 N 
ATOM      6  H2  UNL     1      21.996   0.770  20.225  1.00  0.00     0.187 HD
HETATM    7  N3  UNL     1      22.535   2.792  20.113  1.00  0.00    -0.068 N 
HETATM    8  C4  UNL     1      23.261   2.998  18.997  1.00  0.00     0.715 A 
HETATM    9  N7  UNL     1      23.732   4.206  18.683  1.00  0.00    -0.020 N 
ATOM     10  H7  UNL     1      24.277   4.314  17.827  1.00  0.00     0.203 HD
HETATM   11  C10 UNL     1      23.509   5.312  19.473  1.00  0.00     0.699 A 
HETATM   12  N9  UNL     1      22.784   5.050  20.566  1.00  0.00    -0.172 N 
ATOM     13  H9  UNL     1      22.585   5.829  21.193  1.00  0.00     0.186 HD
HETATM   14  C17 UNL     1      22.298   3.847  20.905  1.00  0.00     0.182 A 
ENDROOT
BRANCH   8  15
HETATM   15  N4  UNL     1      23.513   1.888  18.148  1.00  0.00    -0.223 N 
ATOM     16  H4  UNL     1      23.087   1.844  17.222  1.00  0.00     0.177 HD
BRANCH  15  17
HETATM   17  C5  UNL     1      24.366   0.834  18.600  1.00  0.00     0.144 C 
BRANCH  17  18
HETATM   18  C6  UNL     1      25.580   1.281  19.348  1.00  0.00     0.078 C 
BRANCH  18  19
HETATM   19  C7  UNL     1      26.667   1.676  18.416  1.00  0.00     0.027 A 
HETATM   20  C8  UNL     1      27.542   2.729  18.644  1.00  0.00     0.114 A 
HETATM   21  N5  UNL     1      28.408   2.841  17.632  1.00  0.00    -0.360 N 
HETATM   22  C9  UNL     1      28.087   1.869  16.765  1.00  0.00     0.180 A 
ATOM     23  H5  UNL     1      29.158   3.526  17.538  1.00  0.00     0.166 HD
HETATM   24  N6  UNL     1      27.030   1.157  17.236  1.00  0.00    -0.355 N 
ATOM     25  H6  UNL     1      26.589   0.364  16.771  1.00  0.00     0.166 HD
ENDBRANCH  18  19
ENDBRANCH  17  18
ENDBRANCH  15  17
ENDBRANCH   8  15
BRANCH  11  26
HETATM   26  N8  UNL     1      24.040   6.550  19.086  1.00  0.00    -0.191 N 
ATOM     27  H8  UNL     1      24.982   6.765  19.414  1.00  0.00     0.184 HD
BRANCH  26  28
HETATM   28  C11 UNL     1      23.414   7.526  18.298  1.00  0.00     0.049 A 
HETATM   29  C12 UNL     1      23.841   7.772  16.998  1.00  0.00     0.030 A 
HETATM   30  C13 UNL     1      23.219   8.717  16.237  1.00  0.00     0.002 A 
HETATM   31  C14 UNL     1      22.162   9.454  16.721  1.00  0.00     0.000 A 
HETATM   32  C15 UNL     1      21.719   9.240  17.987  1.00  0.00     0.002 A 
HETATM   33  C16 UNL     1      22.361   8.267  18.765  1.00  0.00     0.030 A 
ENDBRANCH  26  28
ENDBRANCH  11  26
TORSDOF 6
ENDMDL
