MODEL 1
REMARK VINA RESULT: -11.476925918      0.000      0.000
REMARK  10 active torsions:
REMARK  status: ('A' for Active; 'I' for Inactive)
REMARK    1  A    between atoms: C4_5  and  S1_6 
REMARK    2  A    between atoms: S1_6  and  N2_9 
REMARK    3  A    between atoms: N2_9  and  C5_10 
REMARK    4  A    between atoms: N2_9  and  C12_17 
REMARK    5  A    between atoms: C5_10  and  C6_11 
REMARK    6  A    between atoms: C15_23  and  N4_24 
REMARK    7  A    between atoms: N4_24  and  C16_25 
REMARK    8  A    between atoms: N4_24  and  S2_32 
REMARK    9  A    between atoms: C16_25  and  C17_26 
REMARK   10  A    between atoms: S2_32  and  C23_35 
ROOT
HETATM    1  C12 UNL     1     -16.711  20.085  -5.337  1.00  0.00     0.152 C 
HETATM    2  C13 UNL     1     -15.408  19.625  -4.723  1.00  0.00     0.260 C 
HETATM    3  N3  UNL     1     -15.346  18.207  -4.793  1.00  0.00    -0.071 N 
ATOM      4  H31 UNL     1     -15.312  17.778  -3.868  1.00  0.00     0.277 HD
ATOM      5  H32 UNL     1     -14.444  17.879  -5.141  1.00  0.00     0.277 HD
HETATM    6  C14 UNL     1     -16.432  17.714  -5.572  1.00  0.00     0.260 C 
HETATM    7  C15 UNL     1     -17.292  18.876  -6.006  1.00  0.00     0.152 C 
ENDROOT
BRANCH   1   8
HETATM    8  N2  UNL     1     -17.618  20.687  -4.413  1.00  0.00    -0.273 N 
BRANCH   8   9
HETATM    9  S1  UNL     1     -17.716  22.377  -4.447  1.00  0.00     0.265 S 
HETATM   10  O1  UNL     1     -17.930  22.833  -5.870  1.00  0.00    -0.200 OA
HETATM   11  O2  UNL     1     -18.867  22.907  -3.625  1.00  0.00    -0.200 OA
BRANCH   9  12
HETATM   12  C4  UNL     1     -16.259  23.160  -3.867  1.00  0.00     0.080 A 
HETATM   13  C3  UNL     1     -15.350  23.790  -4.691  1.00  0.00     0.027 A 
HETATM   14  C2  UNL     1     -14.211  24.399  -4.211  1.00  0.00     0.028 A 
HETATM   15  C1  UNL     1     -13.940  24.399  -2.853  1.00  0.00     0.046 A 
HETATM   16  N1  UNL     1     -12.758  25.029  -2.339  1.00  0.00    -0.102 NA
HETATM   17  C30 UNL     1     -14.838  23.773  -2.012  1.00  0.00     0.028 A 
HETATM   18  C29 UNL     1     -15.971  23.169  -2.513  1.00  0.00     0.027 A 
ENDBRANCH   9  12
ENDBRANCH   8   9
BRANCH   8  19
HETATM   19  C5  UNL     1     -17.742  20.114  -3.131  1.00  0.00     0.115 C 
BRANCH  19  20
HETATM   20  C6  UNL     1     -19.050  19.371  -3.002  1.00  0.00    -0.020 A 
HETATM   21  C7  UNL     1     -19.248  18.445  -2.003  1.00  0.00     0.013 A 
HETATM   22  C8  UNL     1     -20.451  17.754  -1.878  1.00  0.00     0.001 A 
HETATM   23  C9  UNL     1     -21.475  17.986  -2.759  1.00  0.00     0.000 A 
HETATM   24  C10 UNL     1     -21.299  18.899  -3.755  1.00  0.00     0.001 A 
HETATM   25  C11 UNL     1     -20.092  19.590  -3.878  1.00  0.00     0.013 A 
ENDBRANCH  19  20
ENDBRANCH   8  19
ENDBRANCH   1   8
BRANCH   7  26
HETATM   26  N4  UNL     1     -17.574  18.968  -7.351  1.00  0.00    -0.273 N 
BRANCH  26  27
HETATM   27  C16 UNL     1     -18.913  18.864  -7.746  1.00  0.00     0.115 C 
BRANCH  27  28
HETATM   28  C17 UNL     1     -19.543  17.555  -7.785  1.00  0.00    -0.020 A 
HETATM   29  C18 UNL     1     -20.070  16.997  -6.654  1.00  0.00     0.013 A 
HETATM   30  C19 UNL     1     -20.678  15.757  -6.626  1.00  0.00     0.001 A 
HETATM   31  C20 UNL     1     -20.765  15.040  -7.778  1.00  0.00     0.000 A 
HETATM   32  C21 UNL     1     -20.251  15.558  -8.941  1.00  0.00     0.001 A 
HETATM   33  C22 UNL     1     -19.636  16.824  -8.942  1.00  0.00     0.013 A 
ENDBRANCH  27  28
ENDBRANCH  26  27
BRANCH  26  34
HETATM   34  S2  UNL     1     -16.475  18.866  -8.571  1.00  0.00     0.265 S 
HETATM   35  O3  UNL     1     -17.064  18.842  -9.971  1.00  0.00    -0.200 OA
HETATM   36  O4  UNL     1     -15.785  17.503  -8.488  1.00  0.00    -0.200 OA
BRANCH  34  37
HETATM   37  C23 UNL     1     -15.152  20.032  -8.545  1.00  0.00     0.080 A 
HETATM   38  C24 UNL     1     -15.356  21.241  -9.186  1.00  0.00     0.027 A 
HETATM   39  C25 UNL     1     -14.333  22.159  -9.178  1.00  0.00     0.028 A 
HETATM   40  C26 UNL     1     -13.119  21.907  -8.551  1.00  0.00     0.046 A 
HETATM   41  N5  UNL     1     -12.097  22.911  -8.584  1.00  0.00    -0.102 NA
HETATM   42  C27 UNL     1     -12.931  20.703  -7.918  1.00  0.00     0.028 A 
HETATM   43  C28 UNL     1     -13.945  19.772  -7.917  1.00  0.00     0.027 A 
ENDBRANCH  34  37
ENDBRANCH  26  34
ENDBRANCH   7  26
TORSDOF 10
ENDMDL
