MODEL 5
REMARK VINA RESULT: -10.958896557      1.276      7.167
REMARK  10 active torsions:
REMARK  status: ('A' for Active; 'I' for Inactive)
REMARK    1  A    between atoms: C4_5  and  S1_6 
REMARK    2  A    between atoms: S1_6  and  N2_9 
REMARK    3  A    between atoms: N2_9  and  C5_10 
REMARK    4  A    between atoms: N2_9  and  C12_17 
REMARK    5  A    between atoms: C5_10  and  C6_11 
REMARK    6  A    between atoms: C15_23  and  N4_24 
REMARK    7  A    between atoms: N4_24  and  C16_25 
REMARK    8  A    between atoms: N4_24  and  S2_32 
REMARK    9  A    between atoms: C16_25  and  C17_26 
REMARK   10  A    between atoms: S2_32  and  C23_35 
ROOT
HETATM    1  C12 UNL     1     -17.066  18.936  -6.289  1.00  0.00     0.152 C 
HETATM    2  C13 UNL     1     -16.418  17.711  -5.685  1.00  0.00     0.260 C 
HETATM    3  N3  UNL     1     -15.468  18.129  -4.713  1.00  0.00    -0.071 N 
ATOM      4  H31 UNL     1     -14.519  17.850  -4.960  1.00  0.00     0.277 HD
ATOM      5  H32 UNL     1     -15.555  17.605  -3.842  1.00  0.00     0.277 HD
HETATM    6  C14 UNL     1     -15.577  19.534  -4.506  1.00  0.00     0.260 C 
HETATM    7  C15 UNL     1     -16.633  20.087  -5.433  1.00  0.00     0.152 C 
ENDROOT
BRANCH   1   8
HETATM    8  N2  UNL     1     -16.770  19.140  -7.670  1.00  0.00    -0.273 N 
BRANCH   8   9
HETATM    9  S1  UNL     1     -18.031  18.851  -8.762  1.00  0.00     0.265 S 
HETATM   10  O1  UNL     1     -18.933  20.059  -8.811  1.00  0.00    -0.200 OA
HETATM   11  O2  UNL     1     -17.534  18.601 -10.167  1.00  0.00    -0.200 OA
BRANCH   9  12
HETATM   12  C4  UNL     1     -19.027  17.480  -8.311  1.00  0.00     0.080 A 
HETATM   13  C3  UNL     1     -18.885  16.222  -8.856  1.00  0.00     0.027 A 
HETATM   14  C2  UNL     1     -19.681  15.159  -8.485  1.00  0.00     0.028 A 
HETATM   15  C1  UNL     1     -20.669  15.328  -7.529  1.00  0.00     0.046 A 
HETATM   16  N1  UNL     1     -21.504  14.232  -7.134  1.00  0.00    -0.102 NA
HETATM   17  C30 UNL     1     -20.826  16.582  -6.973  1.00  0.00     0.028 A 
HETATM   18  C29 UNL     1     -20.019  17.631  -7.358  1.00  0.00     0.027 A 
ENDBRANCH   9  12
ENDBRANCH   8   9
BRANCH   8  19
HETATM   19  C5  UNL     1     -15.490  18.780  -8.138  1.00  0.00     0.115 C 
BRANCH  19  20
HETATM   20  C6  UNL     1     -14.599  19.994  -8.248  1.00  0.00    -0.020 A 
HETATM   21  C7  UNL     1     -15.012  21.122  -8.918  1.00  0.00     0.013 A 
HETATM   22  C8  UNL     1     -14.195  22.246  -9.025  1.00  0.00     0.001 A 
HETATM   23  C9  UNL     1     -12.948  22.250  -8.458  1.00  0.00     0.000 A 
HETATM   24  C10 UNL     1     -12.520  21.142  -7.789  1.00  0.00     0.001 A 
HETATM   25  C11 UNL     1     -13.341  20.018  -7.683  1.00  0.00     0.013 A 
ENDBRANCH  19  20
ENDBRANCH   8  19
ENDBRANCH   1   8
BRANCH   7  26
HETATM   26  N4  UNL     1     -17.619  20.858  -4.856  1.00  0.00    -0.273 N 
BRANCH  26  27
HETATM   27  C16 UNL     1     -18.940  20.405  -4.952  1.00  0.00     0.115 C 
BRANCH  27  28
HETATM   28  C17 UNL     1     -19.493  19.592  -3.881  1.00  0.00    -0.020 A 
HETATM   29  C18 UNL     1     -20.771  19.116  -3.952  1.00  0.00     0.013 A 
HETATM   30  C19 UNL     1     -21.354  18.342  -2.968  1.00  0.00     0.001 A 
HETATM   31  C20 UNL     1     -20.630  18.029  -1.861  1.00  0.00     0.000 A 
HETATM   32  C21 UNL     1     -19.340  18.483  -1.743  1.00  0.00     0.001 A 
HETATM   33  C22 UNL     1     -18.769  19.270  -2.761  1.00  0.00     0.013 A 
ENDBRANCH  27  28
ENDBRANCH  26  27
BRANCH  26  34
HETATM   34  S2  UNL     1     -17.447  22.413  -4.346  1.00  0.00     0.265 S 
HETATM   35  O3  UNL     1     -18.338  22.813  -3.183  1.00  0.00    -0.200 OA
HETATM   36  O4  UNL     1     -17.933  23.343  -5.460  1.00  0.00    -0.200 OA
BRANCH  34  37
HETATM   37  C23 UNL     1     -15.806  22.957  -4.003  1.00  0.00     0.080 A 
HETATM   38  C24 UNL     1     -15.489  23.234  -2.686  1.00  0.00     0.027 A 
HETATM   39  C25 UNL     1     -14.214  23.663  -2.402  1.00  0.00     0.028 A 
HETATM   40  C26 UNL     1     -13.251  23.823  -3.391  1.00  0.00     0.046 A 
HETATM   41  N5  UNL     1     -11.942  24.275  -3.021  1.00  0.00    -0.102 NA
HETATM   42  C27 UNL     1     -13.579  23.544  -4.695  1.00  0.00     0.028 A 
HETATM   43  C28 UNL     1     -14.852  23.113  -4.996  1.00  0.00     0.027 A 
ENDBRANCH  34  37
ENDBRANCH  26  34
ENDBRANCH   7  26
TORSDOF 10
ENDMDL
