MODEL 2
REMARK VINA RESULT: -11.195378688      1.434      7.062
REMARK  10 active torsions:
REMARK  status: ('A' for Active; 'I' for Inactive)
REMARK    1  A    between atoms: C4_5  and  S1_6 
REMARK    2  A    between atoms: S1_6  and  N2_9 
REMARK    3  A    between atoms: N2_9  and  C5_10 
REMARK    4  A    between atoms: N2_9  and  C12_17 
REMARK    5  A    between atoms: C5_10  and  C6_11 
REMARK    6  A    between atoms: C15_23  and  N4_24 
REMARK    7  A    between atoms: N4_24  and  C16_25 
REMARK    8  A    between atoms: N4_24  and  S2_32 
REMARK    9  A    between atoms: C16_25  and  C17_26 
REMARK   10  A    between atoms: S2_32  and  C23_35 
ROOT
HETATM    1  C12 UNL     1     -17.260  18.506  -6.289  1.00  0.00     0.152 C 
HETATM    2  C13 UNL     1     -16.448  17.483  -5.527  1.00  0.00     0.260 C 
HETATM    3  N3  UNL     1     -15.480  18.163  -4.739  1.00  0.00    -0.071 N 
ATOM      4  H31 UNL     1     -14.527  17.925  -5.013  1.00  0.00     0.277 HD
ATOM      5  H32 UNL     1     -15.451  17.813  -3.781  1.00  0.00     0.277 HD
HETATM    6  C14 UNL     1     -15.717  19.567  -4.790  1.00  0.00     0.260 C 
HETATM    7  C15 UNL     1     -16.887  19.835  -5.706  1.00  0.00     0.152 C 
ENDROOT
BRANCH   1   8
HETATM    8  N2  UNL     1     -17.084  18.462  -7.705  1.00  0.00    -0.273 N 
BRANCH   8   9
HETATM    9  S1  UNL     1     -18.265  17.626  -8.585  1.00  0.00     0.265 S 
HETATM   10  O1  UNL     1     -18.783  18.514  -9.689  1.00  0.00    -0.200 OA
HETATM   11  O2  UNL     1     -17.726  16.371  -9.230  1.00  0.00    -0.200 OA
BRANCH   9  12
HETATM   12  C4  UNL     1     -19.644  17.157  -7.609  1.00  0.00     0.080 A 
HETATM   13  C3  UNL     1     -19.559  16.311  -6.524  1.00  0.00     0.027 A 
HETATM   14  C2  UNL     1     -20.659  15.957  -5.771  1.00  0.00     0.028 A 
HETATM   15  C1  UNL     1     -21.911  16.455  -6.089  1.00  0.00     0.046 A 
HETATM   16  N1  UNL     1     -23.063  16.096  -5.315  1.00  0.00    -0.102 NA
HETATM   17  C30 UNL     1     -22.015  17.305  -7.173  1.00  0.00     0.028 A 
HETATM   18  C29 UNL     1     -20.903  17.646  -7.912  1.00  0.00     0.027 A 
ENDBRANCH   9  12
ENDBRANCH   8   9
BRANCH   8  19
HETATM   19  C5  UNL     1     -15.774  18.340  -8.211  1.00  0.00     0.115 C 
BRANCH  19  20
HETATM   20  C6  UNL     1     -15.257  19.676  -8.684  1.00  0.00    -0.020 A 
HETATM   21  C7  UNL     1     -15.750  20.269  -9.824  1.00  0.00     0.013 A 
HETATM   22  C8  UNL     1     -15.277  21.502 -10.268  1.00  0.00     0.001 A 
HETATM   23  C9  UNL     1     -14.297  22.158  -9.569  1.00  0.00     0.000 A 
HETATM   24  C10 UNL     1     -13.795  21.588  -8.438  1.00  0.00     0.001 A 
HETATM   25  C11 UNL     1     -14.272  20.352  -7.995  1.00  0.00     0.013 A 
ENDBRANCH  19  20
ENDBRANCH   8  19
ENDBRANCH   1   8
BRANCH   7  26
HETATM   26  N4  UNL     1     -17.903  20.614  -5.198  1.00  0.00    -0.273 N 
BRANCH  26  27
HETATM   27  C16 UNL     1     -19.204  20.098  -5.239  1.00  0.00     0.115 C 
BRANCH  27  28
HETATM   28  C17 UNL     1     -19.737  19.418  -4.071  1.00  0.00    -0.020 A 
HETATM   29  C18 UNL     1     -21.069  19.128  -3.976  1.00  0.00     0.013 A 
HETATM   30  C19 UNL     1     -21.636  18.488  -2.892  1.00  0.00     0.001 A 
HETATM   31  C20 UNL     1     -20.839  18.119  -1.854  1.00  0.00     0.000 A 
HETATM   32  C21 UNL     1     -19.494  18.387  -1.902  1.00  0.00     0.001 A 
HETATM   33  C22 UNL     1     -18.941  19.041  -3.019  1.00  0.00     0.013 A 
ENDBRANCH  27  28
ENDBRANCH  26  27
BRANCH  26  34
HETATM   34  S2  UNL     1     -17.798  22.217  -4.842  1.00  0.00     0.265 S 
HETATM   35  O3  UNL     1     -18.855  22.737  -3.883  1.00  0.00    -0.200 OA
HETATM   36  O4  UNL     1     -18.094  23.016  -6.113  1.00  0.00    -0.200 OA
BRANCH  34  37
HETATM   37  C23 UNL     1     -16.225  22.808  -4.308  1.00  0.00     0.080 A 
HETATM   38  C24 UNL     1     -16.035  22.974  -2.948  1.00  0.00     0.027 A 
HETATM   39  C25 UNL     1     -14.815  23.438  -2.515  1.00  0.00     0.028 A 
HETATM   40  C26 UNL     1     -13.783  23.737  -3.397  1.00  0.00     0.046 A 
HETATM   41  N5  UNL     1     -12.539  24.217  -2.874  1.00  0.00    -0.102 NA
HETATM   42  C27 UNL     1     -13.986  23.567  -4.745  1.00  0.00     0.028 A 
HETATM   43  C28 UNL     1     -15.202  23.104  -5.194  1.00  0.00     0.027 A 
ENDBRANCH  34  37
ENDBRANCH  26  34
ENDBRANCH   7  26
TORSDOF 10
ENDMDL
