MODEL 18
REMARK VINA RESULT: -10.010944024      1.953      7.241
REMARK  10 active torsions:
REMARK  status: ('A' for Active; 'I' for Inactive)
REMARK    1  A    between atoms: C4_5  and  S1_6 
REMARK    2  A    between atoms: S1_6  and  N2_9 
REMARK    3  A    between atoms: N2_9  and  C5_10 
REMARK    4  A    between atoms: N2_9  and  C12_17 
REMARK    5  A    between atoms: C5_10  and  C6_11 
REMARK    6  A    between atoms: C15_23  and  N4_24 
REMARK    7  A    between atoms: N4_24  and  C16_25 
REMARK    8  A    between atoms: N4_24  and  S2_32 
REMARK    9  A    between atoms: C16_25  and  C17_26 
REMARK   10  A    between atoms: S2_32  and  C23_35 
ROOT
HETATM    1  C12 UNL     1     -15.873  19.892  -6.005  1.00  0.00     0.152 C 
HETATM    2  C13 UNL     1     -15.462  18.521  -5.515  1.00  0.00     0.260 C 
HETATM    3  N3  UNL     1     -14.375  18.666  -4.611  1.00  0.00    -0.071 N 
ATOM      4  H31 UNL     1     -13.529  18.208  -4.951  1.00  0.00     0.277 HD
ATOM      5  H32 UNL     1     -14.508  18.119  -3.761  1.00  0.00     0.277 HD
HETATM    6  C14 UNL     1     -14.160  20.046  -4.332  1.00  0.00     0.260 C 
HETATM    7  C15 UNL     1     -15.137  20.868  -5.138  1.00  0.00     0.152 C 
ENDROOT
BRANCH   1   8
HETATM    8  N2  UNL     1     -15.643  20.115  -7.396  1.00  0.00    -0.273 N 
BRANCH   8   9
HETATM    9  S1  UNL     1     -17.001  20.052  -8.404  1.00  0.00     0.265 S 
HETATM   10  O1  UNL     1     -17.973  21.133  -7.996  1.00  0.00    -0.200 OA
HETATM   11  O2  UNL     1     -16.656  20.280  -9.857  1.00  0.00    -0.200 OA
BRANCH   9  12
HETATM   12  C4  UNL     1     -17.857  18.525  -8.306  1.00  0.00     0.080 A 
HETATM   13  C3  UNL     1     -18.862  18.269  -7.398  1.00  0.00     0.027 A 
HETATM   14  C2  UNL     1     -19.521  17.060  -7.341  1.00  0.00     0.028 A 
HETATM   15  C1  UNL     1     -19.186  16.042  -8.217  1.00  0.00     0.046 A 
HETATM   16  N1  UNL     1     -19.863  14.778  -8.170  1.00  0.00    -0.102 NA
HETATM   17  C30 UNL     1     -18.182  16.279  -9.134  1.00  0.00     0.028 A 
HETATM   18  C29 UNL     1     -17.535  17.496  -9.174  1.00  0.00     0.027 A 
ENDBRANCH   9  12
ENDBRANCH   8   9
BRANCH   8  19
HETATM   19  C5  UNL     1     -14.460  19.602  -7.967  1.00  0.00     0.115 C 
BRANCH  19  20
HETATM   20  C6  UNL     1     -13.491  20.716  -8.281  1.00  0.00    -0.020 A 
HETATM   21  C7  UNL     1     -13.927  21.919  -8.787  1.00  0.00     0.013 A 
HETATM   22  C8  UNL     1     -13.039  22.951  -9.080  1.00  0.00     0.001 A 
HETATM   23  C9  UNL     1     -11.695  22.787  -8.868  1.00  0.00     0.000 A 
HETATM   24  C10 UNL     1     -11.242  21.603  -8.368  1.00  0.00     0.001 A 
HETATM   25  C11 UNL     1     -12.135  20.570  -8.074  1.00  0.00     0.013 A 
ENDBRANCH  19  20
ENDBRANCH   8  19
ENDBRANCH   1   8
BRANCH   7  26
HETATM   26  N4  UNL     1     -15.887  21.793  -4.444  1.00  0.00    -0.273 N 
BRANCH  26  27
HETATM   27  C16 UNL     1     -17.259  21.857  -4.717  1.00  0.00     0.115 C 
BRANCH  27  28
HETATM   28  C17 UNL     1     -18.146  20.860  -4.142  1.00  0.00    -0.020 A 
HETATM   29  C18 UNL     1     -19.342  20.563  -4.732  1.00  0.00     0.013 A 
HETATM   30  C19 UNL     1     -20.229  19.629  -4.233  1.00  0.00     0.001 A 
HETATM   31  C20 UNL     1     -19.909  18.960  -3.094  1.00  0.00     0.000 A 
HETATM   32  C21 UNL     1     -18.718  19.222  -2.464  1.00  0.00     0.001 A 
HETATM   33  C22 UNL     1     -17.832  20.179  -2.993  1.00  0.00     0.013 A 
ENDBRANCH  27  28
ENDBRANCH  26  27
BRANCH  26  34
HETATM   34  S2  UNL     1     -15.289  23.047  -3.563  1.00  0.00     0.265 S 
HETATM   35  O3  UNL     1     -15.136  22.777  -2.076  1.00  0.00    -0.200 OA
HETATM   36  O4  UNL     1     -16.315  24.183  -3.581  1.00  0.00    -0.200 OA
BRANCH  34  37
HETATM   37  C23 UNL     1     -13.801  23.789  -4.150  1.00  0.00     0.080 A 
HETATM   38  C24 UNL     1     -13.606  25.130  -3.872  1.00  0.00     0.027 A 
HETATM   39  C25 UNL     1     -12.452  25.724  -4.326  1.00  0.00     0.028 A 
HETATM   40  C26 UNL     1     -11.492  25.022  -5.045  1.00  0.00     0.046 A 
HETATM   41  N5  UNL     1     -10.314  25.708  -5.487  1.00  0.00    -0.102 NA
HETATM   42  C27 UNL     1     -11.700  23.691  -5.313  1.00  0.00     0.028 A 
HETATM   43  C28 UNL     1     -12.850  23.081  -4.866  1.00  0.00     0.027 A 
ENDBRANCH  34  37
ENDBRANCH  26  34
ENDBRANCH   7  26
TORSDOF 10
ENDMDL
