MODEL 4
REMARK VINA RESULT: -11.025492610      1.366      4.917
REMARK  10 active torsions:
REMARK  status: ('A' for Active; 'I' for Inactive)
REMARK    1  A    between atoms: C4_5  and  S1_6 
REMARK    2  A    between atoms: S1_6  and  N2_9 
REMARK    3  A    between atoms: N2_9  and  C5_10 
REMARK    4  A    between atoms: N2_9  and  C12_17 
REMARK    5  A    between atoms: C5_10  and  C6_11 
REMARK    6  A    between atoms: C15_23  and  N4_24 
REMARK    7  A    between atoms: N4_24  and  C16_25 
REMARK    8  A    between atoms: N4_24  and  S2_32 
REMARK    9  A    between atoms: C16_25  and  C17_26 
REMARK   10  A    between atoms: S2_32  and  C23_35 
ROOT
HETATM    1  C12 UNL     1     -16.647  20.061  -5.295  1.00  0.00     0.152 C 
HETATM    2  C13 UNL     1     -15.378  19.603  -4.610  1.00  0.00     0.260 C 
HETATM    3  N3  UNL     1     -15.300  18.187  -4.693  1.00  0.00    -0.071 N 
ATOM      4  H31 UNL     1     -15.318  17.747  -3.773  1.00  0.00     0.277 HD
ATOM      5  H32 UNL     1     -14.377  17.871  -4.991  1.00  0.00     0.277 HD
HETATM    6  C14 UNL     1     -16.334  17.696  -5.541  1.00  0.00     0.260 C 
HETATM    7  C15 UNL     1     -17.177  18.856  -6.011  1.00  0.00     0.152 C 
ENDROOT
BRANCH   1   8
HETATM    8  N2  UNL     1     -17.612  20.645  -4.420  1.00  0.00    -0.273 N 
BRANCH   8   9
HETATM    9  S1  UNL     1     -17.745  22.332  -4.464  1.00  0.00     0.265 S 
HETATM   10  O1  UNL     1     -17.971  22.776  -5.888  1.00  0.00    -0.200 OA
HETATM   11  O2  UNL     1     -18.906  22.843  -3.643  1.00  0.00    -0.200 OA
BRANCH   9  12
HETATM   12  C4  UNL     1     -16.304  23.149  -3.891  1.00  0.00     0.080 A 
HETATM   13  C3  UNL     1     -15.445  23.849  -4.711  1.00  0.00     0.027 A 
HETATM   14  C2  UNL     1     -14.317  24.484  -4.237  1.00  0.00     0.028 A 
HETATM   15  C1  UNL     1     -14.007  24.437  -2.888  1.00  0.00     0.046 A 
HETATM   16  N1  UNL     1     -12.837  25.092  -2.380  1.00  0.00    -0.102 NA
HETATM   17  C30 UNL     1     -14.854  23.740  -2.050  1.00  0.00     0.028 A 
HETATM   18  C29 UNL     1     -15.977  23.112  -2.546  1.00  0.00     0.027 A 
ENDBRANCH   9  12
ENDBRANCH   8   9
BRANCH   8  19
HETATM   19  C5  UNL     1     -17.788  20.072  -3.144  1.00  0.00     0.115 C 
BRANCH  19  20
HETATM   20  C6  UNL     1     -19.119  19.365  -3.054  1.00  0.00    -0.020 A 
HETATM   21  C7  UNL     1     -19.393  18.488  -2.030  1.00  0.00     0.013 A 
HETATM   22  C8  UNL     1     -20.618  17.830  -1.941  1.00  0.00     0.001 A 
HETATM   23  C9  UNL     1     -21.587  18.046  -2.885  1.00  0.00     0.000 A 
HETATM   24  C10 UNL     1     -21.336  18.910  -3.909  1.00  0.00     0.001 A 
HETATM   25  C11 UNL     1     -20.107  19.568  -3.994  1.00  0.00     0.013 A 
ENDBRANCH  19  20
ENDBRANCH   8  19
ENDBRANCH   1   8
BRANCH   7  26
HETATM   26  N4  UNL     1     -17.379  18.962  -7.370  1.00  0.00    -0.273 N 
BRANCH  26  27
HETATM   27  C16 UNL     1     -17.040  20.172  -7.987  1.00  0.00     0.115 C 
BRANCH  27  28
HETATM   28  C17 UNL     1     -15.642  20.560  -8.071  1.00  0.00    -0.020 A 
HETATM   29  C18 UNL     1     -15.271  21.871  -7.963  1.00  0.00     0.013 A 
HETATM   30  C19 UNL     1     -13.962  22.304  -8.037  1.00  0.00     0.001 A 
HETATM   31  C20 UNL     1     -12.975  21.387  -8.227  1.00  0.00     0.000 A 
HETATM   32  C21 UNL     1     -13.297  20.057  -8.340  1.00  0.00     0.001 A 
HETATM   33  C22 UNL     1     -14.640  19.643  -8.262  1.00  0.00     0.013 A 
ENDBRANCH  27  28
ENDBRANCH  26  27
BRANCH  26  34
HETATM   34  S2  UNL     1     -18.276  17.934  -8.291  1.00  0.00     0.265 S 
HETATM   35  O3  UNL     1     -17.503  16.786  -8.916  1.00  0.00    -0.200 OA
HETATM   36  O4  UNL     1     -18.773  18.696  -9.521  1.00  0.00    -0.200 OA
BRANCH  34  37
HETATM   37  C23 UNL     1     -19.740  17.283  -7.554  1.00  0.00     0.080 A 
HETATM   38  C24 UNL     1     -20.951  17.660  -8.105  1.00  0.00     0.027 A 
HETATM   39  C25 UNL     1     -22.102  17.164  -7.540  1.00  0.00     0.028 A 
HETATM   40  C26 UNL     1     -22.079  16.306  -6.447  1.00  0.00     0.046 A 
HETATM   41  N5  UNL     1     -23.319  15.829  -5.910  1.00  0.00    -0.102 NA
HETATM   42  C27 UNL     1     -20.868  15.941  -5.911  1.00  0.00     0.028 A 
HETATM   43  C28 UNL     1     -19.707  16.429  -6.464  1.00  0.00     0.027 A 
ENDBRANCH  34  37
ENDBRANCH  26  34
ENDBRANCH   7  26
TORSDOF 10
ENDMDL
