MODEL 17
REMARK VINA RESULT: -10.044174414      1.707      5.065
REMARK  10 active torsions:
REMARK  status: ('A' for Active; 'I' for Inactive)
REMARK    1  A    between atoms: C4_5  and  S1_6 
REMARK    2  A    between atoms: S1_6  and  N2_9 
REMARK    3  A    between atoms: N2_9  and  C5_10 
REMARK    4  A    between atoms: N2_9  and  C12_17 
REMARK    5  A    between atoms: C5_10  and  C6_11 
REMARK    6  A    between atoms: C15_23  and  N4_24 
REMARK    7  A    between atoms: N4_24  and  C16_25 
REMARK    8  A    between atoms: N4_24  and  S2_32 
REMARK    9  A    between atoms: C16_25  and  C17_26 
REMARK   10  A    between atoms: S2_32  and  C23_35 
ROOT
HETATM    1  C12 UNL     1     -15.484  20.873  -5.075  1.00  0.00     0.152 C 
HETATM    2  C13 UNL     1     -14.417  20.203  -4.239  1.00  0.00     0.260 C 
HETATM    3  N3  UNL     1     -14.168  18.908  -4.769  1.00  0.00    -0.071 N 
ATOM      4  H31 UNL     1     -14.395  18.170  -4.103  1.00  0.00     0.277 HD
ATOM      5  H32 UNL     1     -13.170  18.719  -4.865  1.00  0.00     0.277 HD
HETATM    6  C14 UNL     1     -14.863  18.750  -6.002  1.00  0.00     0.260 C 
HETATM    7  C15 UNL     1     -15.660  20.002  -6.281  1.00  0.00     0.152 C 
ENDROOT
BRANCH   1   8
HETATM    8  N2  UNL     1     -16.712  21.107  -4.386  1.00  0.00    -0.273 N 
BRANCH   8   9
HETATM    9  S1  UNL     1     -17.042  22.712  -3.959  1.00  0.00     0.265 S 
HETATM   10  O1  UNL     1     -17.572  23.449  -5.164  1.00  0.00    -0.200 OA
HETATM   11  O2  UNL     1     -18.084  22.819  -2.870  1.00  0.00    -0.200 OA
BRANCH   9  12
HETATM   12  C4  UNL     1     -15.622  23.580  -3.406  1.00  0.00     0.080 A 
HETATM   13  C3  UNL     1     -14.994  24.563  -4.141  1.00  0.00     0.027 A 
HETATM   14  C2  UNL     1     -13.878  25.232  -3.684  1.00  0.00     0.028 A 
HETATM   15  C1  UNL     1     -13.343  24.929  -2.443  1.00  0.00     0.046 A 
HETATM   16  N1  UNL     1     -12.183  25.617  -1.955  1.00  0.00    -0.102 NA
HETATM   17  C30 UNL     1     -13.959  23.947  -1.693  1.00  0.00     0.028 A 
HETATM   18  C29 UNL     1     -15.074  23.290  -2.169  1.00  0.00     0.027 A 
ENDBRANCH   9  12
ENDBRANCH   8   9
BRANCH   8  19
HETATM   19  C5  UNL     1     -17.146  20.146  -3.451  1.00  0.00     0.115 C 
BRANCH  19  20
HETATM   20  C6  UNL     1     -18.302  19.347  -4.003  1.00  0.00    -0.020 A 
HETATM   21  C7  UNL     1     -19.592  19.821  -3.937  1.00  0.00     0.013 A 
HETATM   22  C8  UNL     1     -20.664  19.088  -4.443  1.00  0.00     0.001 A 
HETATM   23  C9  UNL     1     -20.452  17.865  -5.023  1.00  0.00     0.000 A 
HETATM   24  C10 UNL     1     -19.181  17.377  -5.098  1.00  0.00     0.001 A 
HETATM   25  C11 UNL     1     -18.109  18.114  -4.590  1.00  0.00     0.013 A 
ENDBRANCH  19  20
ENDBRANCH   8  19
ENDBRANCH   1   8
BRANCH   7  26
HETATM   26  N4  UNL     1     -15.483  20.584  -7.517  1.00  0.00    -0.273 N 
BRANCH  26  27
HETATM   27  C16 UNL     1     -15.023  21.905  -7.556  1.00  0.00     0.115 C 
BRANCH  27  28
HETATM   28  C17 UNL     1     -13.747  22.196  -8.187  1.00  0.00    -0.020 A 
HETATM   29  C18 UNL     1     -12.596  21.611  -7.742  1.00  0.00     0.013 A 
HETATM   30  C19 UNL     1     -11.353  21.848  -8.296  1.00  0.00     0.001 A 
HETATM   31  C20 UNL     1     -11.253  22.710  -9.343  1.00  0.00     0.000 A 
HETATM   32  C21 UNL     1     -12.382  23.323  -9.828  1.00  0.00     0.001 A 
HETATM   33  C22 UNL     1     -13.636  23.064  -9.244  1.00  0.00     0.013 A 
ENDBRANCH  27  28
ENDBRANCH  26  27
BRANCH  26  34
HETATM   34  S2  UNL     1     -16.059  20.001  -8.944  1.00  0.00     0.265 S 
HETATM   35  O3  UNL     1     -15.031  19.309  -9.822  1.00  0.00    -0.200 OA
HETATM   36  O4  UNL     1     -16.482  21.187  -9.815  1.00  0.00    -0.200 OA
BRANCH  34  37
HETATM   37  C23 UNL     1     -17.496  18.982  -8.861  1.00  0.00     0.080 A 
HETATM   38  C24 UNL     1     -17.350  17.648  -9.194  1.00  0.00     0.027 A 
HETATM   39  C25 UNL     1     -18.462  16.841  -9.139  1.00  0.00     0.028 A 
HETATM   40  C26 UNL     1     -19.708  17.325  -8.760  1.00  0.00     0.046 A 
HETATM   41  N5  UNL     1     -20.823  16.425  -8.726  1.00  0.00    -0.102 NA
HETATM   42  C27 UNL     1     -19.838  18.652  -8.432  1.00  0.00     0.028 A 
HETATM   43  C28 UNL     1     -18.735  19.474  -8.483  1.00  0.00     0.027 A 
ENDBRANCH  34  37
ENDBRANCH  26  34
ENDBRANCH   7  26
TORSDOF 10
ENDMDL
