MODEL 3
REMARK VINA RESULT: -11.096816913      0.882      1.249
REMARK  10 active torsions:
REMARK  status: ('A' for Active; 'I' for Inactive)
REMARK    1  A    between atoms: C4_5  and  S1_6 
REMARK    2  A    between atoms: S1_6  and  N2_9 
REMARK    3  A    between atoms: N2_9  and  C5_10 
REMARK    4  A    between atoms: N2_9  and  C12_17 
REMARK    5  A    between atoms: C5_10  and  C6_11 
REMARK    6  A    between atoms: C15_23  and  N4_24 
REMARK    7  A    between atoms: N4_24  and  C16_25 
REMARK    8  A    between atoms: N4_24  and  S2_32 
REMARK    9  A    between atoms: C16_25  and  C17_26 
REMARK   10  A    between atoms: S2_32  and  C23_35 
ROOT
HETATM    1  C12 UNL     1     -16.440  20.235  -5.247  1.00  0.00     0.152 C 
HETATM    2  C13 UNL     1     -15.088  19.985  -4.617  1.00  0.00     0.260 C 
HETATM    3  N3  UNL     1     -14.841  18.585  -4.607  1.00  0.00    -0.071 N 
ATOM      4  H31 UNL     1     -14.752  18.217  -3.660  1.00  0.00     0.277 HD
ATOM      5  H32 UNL     1     -13.904  18.359  -4.942  1.00  0.00     0.277 HD
HETATM    6  C14 UNL     1     -15.852  17.912  -5.350  1.00  0.00     0.260 C 
HETATM    7  C15 UNL     1     -16.857  18.925  -5.844  1.00  0.00     0.152 C 
ENDROOT
BRANCH   1   8
HETATM    8  N2  UNL     1     -17.419  20.765  -4.353  1.00  0.00    -0.273 N 
BRANCH   8   9
HETATM    9  S1  UNL     1     -17.576  22.450  -4.323  1.00  0.00     0.265 S 
HETATM   10  O1  UNL     1     -17.792  22.955  -5.728  1.00  0.00    -0.200 OA
HETATM   11  O2  UNL     1     -18.755  22.906  -3.494  1.00  0.00    -0.200 OA
BRANCH   9  12
HETATM   12  C4  UNL     1     -16.154  23.261  -3.695  1.00  0.00     0.080 A 
HETATM   13  C3  UNL     1     -15.648  23.044  -2.431  1.00  0.00     0.027 A 
HETATM   14  C2  UNL     1     -14.527  23.694  -1.960  1.00  0.00     0.028 A 
HETATM   15  C1  UNL     1     -13.860  24.605  -2.762  1.00  0.00     0.046 A 
HETATM   16  N1  UNL     1     -12.693  25.288  -2.285  1.00  0.00    -0.102 NA
HETATM   17  C30 UNL     1     -14.353  24.835  -4.031  1.00  0.00     0.028 A 
HETATM   18  C29 UNL     1     -15.476  24.174  -4.483  1.00  0.00     0.027 A 
ENDBRANCH   9  12
ENDBRANCH   8   9
BRANCH   8  19
HETATM   19  C5  UNL     1     -17.594  20.133  -3.106  1.00  0.00     0.115 C 
BRANCH  19  20
HETATM   20  C6  UNL     1     -18.919  19.411  -3.053  1.00  0.00    -0.020 A 
HETATM   21  C7  UNL     1     -19.221  18.549  -2.024  1.00  0.00     0.013 A 
HETATM   22  C8  UNL     1     -20.440  17.878  -1.970  1.00  0.00     0.001 A 
HETATM   23  C9  UNL     1     -21.377  18.066  -2.952  1.00  0.00     0.000 A 
HETATM   24  C10 UNL     1     -21.098  18.917  -3.980  1.00  0.00     0.001 A 
HETATM   25  C11 UNL     1     -19.874  19.588  -4.032  1.00  0.00     0.013 A 
ENDBRANCH  19  20
ENDBRANCH   8  19
ENDBRANCH   1   8
BRANCH   7  26
HETATM   26  N4  UNL     1     -17.147  18.903  -7.190  1.00  0.00    -0.273 N 
BRANCH  26  27
HETATM   27  C16 UNL     1     -17.658  17.716  -7.728  1.00  0.00     0.115 C 
BRANCH  27  28
HETATM   28  C17 UNL     1     -19.062  17.395  -7.538  1.00  0.00    -0.020 A 
HETATM   29  C18 UNL     1     -19.457  16.534  -6.553  1.00  0.00     0.013 A 
HETATM   30  C19 UNL     1     -20.773  16.187  -6.324  1.00  0.00     0.001 A 
HETATM   31  C20 UNL     1     -21.743  16.723  -7.113  1.00  0.00     0.000 A 
HETATM   32  C21 UNL     1     -21.397  17.595  -8.116  1.00  0.00     0.001 A 
HETATM   33  C22 UNL     1     -20.047  17.932  -8.328  1.00  0.00     0.013 A 
ENDBRANCH  27  28
ENDBRANCH  26  27
BRANCH  26  34
HETATM   34  S2  UNL     1     -16.656  20.018  -8.296  1.00  0.00     0.265 S 
HETATM   35  O3  UNL     1     -17.557  21.234  -8.432  1.00  0.00    -0.200 OA
HETATM   36  O4  UNL     1     -16.748  19.391  -9.689  1.00  0.00    -0.200 OA
BRANCH  34  37
HETATM   37  C23 UNL     1     -14.987  20.575  -8.173  1.00  0.00     0.080 A 
HETATM   38  C24 UNL     1     -14.765  21.939  -8.227  1.00  0.00     0.027 A 
HETATM   39  C25 UNL     1     -13.470  22.389  -8.137  1.00  0.00     0.028 A 
HETATM   40  C26 UNL     1     -12.394  21.521  -7.993  1.00  0.00     0.046 A 
HETATM   41  N5  UNL     1     -11.070  22.061  -7.905  1.00  0.00    -0.102 NA
HETATM   42  C27 UNL     1     -12.630  20.168  -7.940  1.00  0.00     0.028 A 
HETATM   43  C28 UNL     1     -13.921  19.702  -8.030  1.00  0.00     0.027 A 
ENDBRANCH  34  37
ENDBRANCH  26  34
ENDBRANCH   7  26
TORSDOF 10
ENDMDL
