MODEL 1
REMARK VINA RESULT: -6.430611220      0.000      0.000
REMARK  5 active torsions:
REMARK  status: ('A' for Active; 'I' for Inactive)
REMARK    1  A    between atoms: O1_1  and  C1_3 
REMARK    2  A    between atoms: C1_3  and  C2_4 
REMARK    3  A    between atoms: C4_8  and  O2_9 
REMARK    4  A    between atoms: C5_11  and  O3_12 
REMARK    5  A    between atoms: C6_14  and  O4_15 
ROOT
HETATM    1  C2  UNL     1       7.647   5.598   3.859  1.00  0.00     0.131 C 
HETATM    2  N1  UNL     1       7.725   4.191   4.118  1.00  0.00    -0.410 N 
ATOM      3  H1  UNL     1       7.713   3.806   5.064  1.00  0.00     0.153 HD
HETATM    4  C3  UNL     1       7.819   3.369   2.959  1.00  0.00     0.148 C 
HETATM    5  C4  UNL     1       6.700   3.704   1.970  1.00  0.00     0.166 C 
HETATM    6  C5  UNL     1       6.961   5.165   1.576  1.00  0.00     0.179 C 
HETATM    7  C6  UNL     1       6.623   5.962   2.820  1.00  0.00     0.173 C 
ENDROOT
BRANCH   1   8
HETATM    8  C1  UNL     1       7.468   6.338   5.154  1.00  0.00     0.191 C 
BRANCH   8   9
HETATM    9  O1  UNL     1       8.369   7.407   5.153  1.00  0.00    -0.399 OA
ATOM     10  H1  UNL     1       8.279   7.855   5.986  1.00  0.00     0.209 HD
ENDBRANCH   8   9
ENDBRANCH   1   8
BRANCH   7  11
HETATM   11  O4  UNL     1       6.655   7.325   2.615  1.00  0.00    -0.391 OA
ATOM     12  H4  UNL     1       5.766   7.659   2.619  1.00  0.00     0.210 HD
ENDBRANCH   7  11
BRANCH   6  13
HETATM   13  O3  UNL     1       6.245   5.546   0.475  1.00  0.00    -0.390 OA
ATOM     14  H3  UNL     1       6.094   6.483   0.446  1.00  0.00     0.210 HD
ENDBRANCH   6  13
BRANCH   5  15
HETATM   15  O2  UNL     1       6.693   2.866   0.886  1.00  0.00    -0.391 OA
ATOM     16  H2  UNL     1       5.875   2.906   0.404  1.00  0.00     0.210 HD
ENDBRANCH   5  15
TORSDOF 5
ENDMDL
