MODEL 4
REMARK VINA RESULT: -5.760846201      2.881      4.428
REMARK  5 active torsions:
REMARK  status: ('A' for Active; 'I' for Inactive)
REMARK    1  A    between atoms: O1_1  and  C1_3 
REMARK    2  A    between atoms: C1_3  and  C2_4 
REMARK    3  A    between atoms: C4_8  and  O2_9 
REMARK    4  A    between atoms: C5_11  and  O3_12 
REMARK    5  A    between atoms: C6_14  and  O4_15 
ROOT
HETATM    1  C2  UNL     1       8.315   3.584  -0.537  1.00  0.00     0.131 C 
HETATM    2  N1  UNL     1       9.227   2.851   0.291  1.00  0.00    -0.410 N 
ATOM      3  H1  UNL     1      10.210   2.726   0.047  1.00  0.00     0.153 HD
HETATM    4  C3  UNL     1       8.659   2.310   1.480  1.00  0.00     0.148 C 
HETATM    5  C4  UNL     1       7.923   3.397   2.267  1.00  0.00     0.166 C 
HETATM    6  C5  UNL     1       6.795   3.853   1.331  1.00  0.00     0.179 C 
HETATM    7  C6  UNL     1       7.502   4.599   0.217  1.00  0.00     0.173 C 
ENDROOT
BRANCH   1   8
HETATM    8  C1  UNL     1       9.056   4.167  -1.706  1.00  0.00     0.191 C 
BRANCH   8   9
HETATM    9  O1  UNL     1       8.294   3.918  -2.851  1.00  0.00    -0.399 OA
ATOM     10  H1  UNL     1       8.796   4.223  -3.598  1.00  0.00     0.209 HD
ENDBRANCH   8   9
ENDBRANCH   1   8
BRANCH   7  11
HETATM   11  O4  UNL     1       6.633   5.217  -0.656  1.00  0.00    -0.391 OA
ATOM     12  H4  UNL     1       5.816   4.733  -0.676  1.00  0.00     0.210 HD
ENDBRANCH   7  11
BRANCH   6  13
HETATM   13  O3  UNL     1       5.851   4.603   1.976  1.00  0.00    -0.390 OA
ATOM     14  H3  UNL     1       5.163   4.901   1.392  1.00  0.00     0.210 HD
ENDBRANCH   6  13
BRANCH   5  15
HETATM   15  O2  UNL     1       7.450   2.941   3.469  1.00  0.00    -0.391 OA
ATOM     16  H2  UNL     1       7.180   3.648   4.044  1.00  0.00     0.210 HD
ENDBRANCH   5  15
TORSDOF 5
ENDMDL
