MODEL 3
REMARK VINA RESULT: -5.790095624      3.991      4.807
REMARK  5 active torsions:
REMARK  status: ('A' for Active; 'I' for Inactive)
REMARK    1  A    between atoms: O1_1  and  C1_3 
REMARK    2  A    between atoms: C1_3  and  C2_4 
REMARK    3  A    between atoms: C4_8  and  O2_9 
REMARK    4  A    between atoms: C5_11  and  O3_12 
REMARK    5  A    between atoms: C6_14  and  O4_15 
ROOT
HETATM    1  C2  UNL     1       8.694   3.330   0.313  1.00  0.00     0.131 C 
HETATM    2  N1  UNL     1       9.967   3.499  -0.324  1.00  0.00    -0.410 N 
ATOM      3  H1  UNL     1      10.806   3.009  -0.012  1.00  0.00     0.153 HD
HETATM    4  C3  UNL     1       9.973   4.402  -1.425  1.00  0.00     0.148 C 
HETATM    5  C4  UNL     1       8.878   4.034  -2.429  1.00  0.00     0.166 C 
HETATM    6  C5  UNL     1       7.567   4.201  -1.647  1.00  0.00     0.179 C 
HETATM    7  C6  UNL     1       7.571   3.060  -0.649  1.00  0.00     0.173 C 
ENDROOT
BRANCH   1   8
HETATM    8  C1  UNL     1       8.809   2.295   1.397  1.00  0.00     0.191 C 
BRANCH   8   9
HETATM    9  O1  UNL     1       7.856   2.603   2.372  1.00  0.00    -0.399 OA
ATOM     10  H1  UNL     1       7.249   3.224   1.990  1.00  0.00     0.209 HD
ENDBRANCH   8   9
ENDBRANCH   1   8
BRANCH   7  11
HETATM   11  O4  UNL     1       6.391   2.953   0.056  1.00  0.00    -0.391 OA
ATOM     12  H4  UNL     1       5.674   3.241  -0.496  1.00  0.00     0.210 HD
ENDBRANCH   7  11
BRANCH   6  13
HETATM   13  O3  UNL     1       6.469   4.207  -2.462  1.00  0.00    -0.390 OA
ATOM     14  H3  UNL     1       5.662   4.055  -1.984  1.00  0.00     0.210 HD
ENDBRANCH   6  13
BRANCH   5  15
HETATM   15  O2  UNL     1       8.917   4.816  -3.553  1.00  0.00    -0.391 OA
ATOM     16  H2  UNL     1       8.352   4.486  -4.242  1.00  0.00     0.210 HD
ENDBRANCH   5  15
TORSDOF 5
ENDMDL
