MODEL 9
REMARK VINA RESULT: -5.526303397      1.486      3.822
REMARK  4 active torsions:
REMARK  status: ('A' for Active; 'I' for Inactive)
REMARK    1  A    between atoms: O1_1  and  C1_3 
REMARK    2  A    between atoms: C5_8  and  O2_9 
REMARK    3  A    between atoms: C7_12  and  O3_13 
REMARK    4  A    between atoms: C8_15  and  O4_16 
ROOT
HETATM    1  C1  UNL     1      20.730  35.828 114.405  1.00  0.00     0.177 C 
HETATM    2  C2  UNL     1      19.995  36.860 113.595  1.00  0.00     0.307 C 
HETATM    3  N1  UNL     1      19.163  37.668 114.453  1.00  0.00     0.101 N 
HETATM    4  C3  UNL     1      18.387  38.620 113.719  1.00  0.00     0.276 C 
HETATM    5  C4  UNL     1      18.969  39.981 113.947  1.00  0.00     0.064 C 
HETATM    6  C5  UNL     1      19.766  39.828 115.223  1.00  0.00     0.155 C 
HETATM    7  C6  UNL     1      19.870  38.347 115.488  1.00  0.00     0.282 C 
HETATM    8  C7  UNL     1      21.303  37.886 115.645  1.00  0.00     0.185 C 
HETATM    9  C8  UNL     1      21.287  36.369 115.689  1.00  0.00     0.179 C 
ENDROOT
BRANCH   1  10
HETATM   10  O1  UNL     1      19.886  34.750 114.729  1.00  0.00    -0.391 OA
ATOM     11  H1  UNL     1      20.142  33.967 114.257  1.00  0.00     0.210 HD
ENDBRANCH   1  10
BRANCH   9  12
HETATM   12  O4  UNL     1      22.566  35.850 115.906  1.00  0.00    -0.390 OA
ATOM     13  H4  UNL     1      23.042  36.406 116.512  1.00  0.00     0.210 HD
ENDBRANCH   9  12
BRANCH   8  14
HETATM   14  O3  UNL     1      21.784  38.307 116.897  1.00  0.00    -0.391 OA
ATOM     15  H3  UNL     1      22.251  39.127 116.789  1.00  0.00     0.210 HD
ENDBRANCH   8  14
BRANCH   6  16
HETATM   16  O2  UNL     1      21.004  40.452 115.148  1.00  0.00    -0.393 OA
ATOM     17  H2  UNL     1      21.722  39.847 115.290  1.00  0.00     0.210 HD
ENDBRANCH   6  16
TORSDOF 4
ENDMDL
