MODEL 6
REMARK VINA RESULT: -6.113822059      2.403      4.225
REMARK  4 active torsions:
REMARK  status: ('A' for Active; 'I' for Inactive)
REMARK    1  A    between atoms: O1_1  and  C1_3 
REMARK    2  A    between atoms: C5_8  and  O2_9 
REMARK    3  A    between atoms: C7_12  and  O3_13 
REMARK    4  A    between atoms: C8_15  and  O4_16 
ROOT
HETATM    1  C1  UNL     1      20.887  34.898 111.188  1.00  0.00     0.177 C 
HETATM    2  C2  UNL     1      20.032  34.874 112.424  1.00  0.00     0.307 C 
HETATM    3  N1  UNL     1      20.794  34.391 113.550  1.00  0.00     0.101 N 
HETATM    4  C3  UNL     1      20.003  34.282 114.736  1.00  0.00     0.276 C 
HETATM    5  C4  UNL     1      20.393  35.388 115.668  1.00  0.00     0.064 C 
HETATM    6  C5  UNL     1      21.766  35.802 115.188  1.00  0.00     0.155 C 
HETATM    7  C6  UNL     1      21.962  35.156 113.840  1.00  0.00     0.282 C 
HETATM    8  C7  UNL     1      22.312  36.159 112.762  1.00  0.00     0.185 C 
HETATM    9  C8  UNL     1      22.269  35.428 111.433  1.00  0.00     0.179 C 
ENDROOT
BRANCH   1  10
HETATM   10  O1  UNL     1      21.017  33.607 110.643  1.00  0.00    -0.391 OA
ATOM     11  H1  UNL     1      20.246  33.083 110.826  1.00  0.00     0.210 HD
ENDBRANCH   1  10
BRANCH   9  12
HETATM   12  O4  UNL     1      22.652  36.261 110.379  1.00  0.00    -0.390 OA
ATOM     13  H4  UNL     1      23.487  36.669 110.576  1.00  0.00     0.210 HD
ENDBRANCH   9  12
BRANCH   8  14
HETATM   14  O3  UNL     1      23.645  36.572 112.937  1.00  0.00    -0.391 OA
ATOM     15  H3  UNL     1      24.215  35.816 112.859  1.00  0.00     0.210 HD
ENDBRANCH   8  14
BRANCH   6  16
HETATM   16  O2  UNL     1      21.918  37.182 115.154  1.00  0.00    -0.393 OA
ATOM     17  H2  UNL     1      21.136  37.623 114.843  1.00  0.00     0.210 HD
ENDBRANCH   6  16
TORSDOF 4
ENDMDL
