MODEL 12
REMARK VINA RESULT: -5.189943661      2.396      3.534
REMARK  4 active torsions:
REMARK  status: ('A' for Active; 'I' for Inactive)
REMARK    1  A    between atoms: O1_1  and  C1_3 
REMARK    2  A    between atoms: C5_8  and  O2_9 
REMARK    3  A    between atoms: C7_12  and  O3_13 
REMARK    4  A    between atoms: C8_15  and  O4_16 
ROOT
HETATM    1  C1  UNL     1      19.141  40.174 115.691  1.00  0.00     0.177 C 
HETATM    2  C2  UNL     1      20.425  39.393 115.707  1.00  0.00     0.307 C 
HETATM    3  N1  UNL     1      20.152  37.980 115.601  1.00  0.00     0.101 N 
HETATM    4  C3  UNL     1      21.340  37.188 115.684  1.00  0.00     0.276 C 
HETATM    5  C4  UNL     1      21.649  36.656 114.318  1.00  0.00     0.064 C 
HETATM    6  C5  UNL     1      20.331  36.748 113.584  1.00  0.00     0.155 C 
HETATM    7  C6  UNL     1      19.427  37.607 114.431  1.00  0.00     0.282 C 
HETATM    8  C7  UNL     1      18.864  38.786 113.667  1.00  0.00     0.185 C 
HETATM    9  C8  UNL     1      18.159  39.680 114.670  1.00  0.00     0.179 C 
ENDROOT
BRANCH   1  10
HETATM   10  O1  UNL     1      18.509  40.126 116.947  1.00  0.00    -0.391 OA
ATOM     11  H1  UNL     1      18.961  39.528 117.531  1.00  0.00     0.210 HD
ENDBRANCH   1  10
BRANCH   9  12
HETATM   12  O4  UNL     1      17.541  40.765 114.042  1.00  0.00    -0.390 OA
ATOM     13  H4  UNL     1      17.459  40.596 113.111  1.00  0.00     0.210 HD
ENDBRANCH   9  12
BRANCH   8  14
HETATM   14  O3  UNL     1      17.869  38.327 112.786  1.00  0.00    -0.391 OA
ATOM     15  H3  UNL     1      17.325  39.061 112.525  1.00  0.00     0.210 HD
ENDBRANCH   8  14
BRANCH   6  16
HETATM   16  O2  UNL     1      20.481  37.233 112.291  1.00  0.00    -0.393 OA
ATOM     17  H2  UNL     1      19.894  37.955 112.106  1.00  0.00     0.210 HD
ENDBRANCH   6  16
TORSDOF 4
ENDMDL
