MODEL 10
REMARK VINA RESULT: -5.326225055      1.840      2.898
REMARK  4 active torsions:
REMARK  status: ('A' for Active; 'I' for Inactive)
REMARK    1  A    between atoms: O1_1  and  C1_3 
REMARK    2  A    between atoms: C5_8  and  O2_9 
REMARK    3  A    between atoms: C7_12  and  O3_13 
REMARK    4  A    between atoms: C8_15  and  O4_16 
ROOT
HETATM    1  C1  UNL     1      20.544  39.150 115.599  1.00  0.00     0.177 C 
HETATM    2  C2  UNL     1      21.125  37.820 115.987  1.00  0.00     0.307 C 
HETATM    3  N1  UNL     1      20.222  36.755 115.623  1.00  0.00     0.101 N 
HETATM    4  C3  UNL     1      20.699  35.471 116.037  1.00  0.00     0.276 C 
HETATM    5  C4  UNL     1      21.167  34.728 114.824  1.00  0.00     0.064 C 
HETATM    6  C5  UNL     1      20.469  35.423 113.677  1.00  0.00     0.155 C 
HETATM    7  C6  UNL     1      19.903  36.705 114.234  1.00  0.00     0.282 C 
HETATM    8  C7  UNL     1      20.361  37.924 113.463  1.00  0.00     0.185 C 
HETATM    9  C8  UNL     1      19.908  39.147 114.240  1.00  0.00     0.179 C 
ENDROOT
BRANCH   1  10
HETATM   10  O1  UNL     1      19.567  39.560 116.525  1.00  0.00    -0.391 OA
ATOM     11  H1  UNL     1      19.258  40.436 116.325  1.00  0.00     0.210 HD
ENDBRANCH   1  10
BRANCH   9  12
HETATM   12  O4  UNL     1      20.224  40.328 113.565  1.00  0.00    -0.390 OA
ATOM     13  H4  UNL     1      20.801  40.862 114.099  1.00  0.00     0.210 HD
ENDBRANCH   9  12
BRANCH   8  14
HETATM   14  O3  UNL     1      19.681  37.970 112.233  1.00  0.00    -0.391 OA
ATOM     15  H3  UNL     1      20.302  38.171 111.544  1.00  0.00     0.210 HD
ENDBRANCH   8  14
BRANCH   6  16
HETATM   16  O2  UNL     1      21.314  35.631 112.594  1.00  0.00    -0.393 OA
ATOM     17  H2  UNL     1      21.640  34.817 112.231  1.00  0.00     0.210 HD
ENDBRANCH   6  16
TORSDOF 4
ENDMDL
