MODEL 1
REMARK VINA RESULT: -12.124649264      0.000      0.000
REMARK  12 active torsions:
REMARK  status: ('A' for Active; 'I' for Inactive)
REMARK    1  A    between atoms: C1_2  and  C2_4 
REMARK    2  A    between atoms: C5_7  and  S1_8 
REMARK    3  A    between atoms: S1_8  and  N2_11 
REMARK    4  A    between atoms: N2_11  and  C6_12 
REMARK    5  A    between atoms: N2_11  and  C13_19 
REMARK    6  A    between atoms: C6_12  and  C7_13 
REMARK    7  A    between atoms: C16_25  and  N4_26 
REMARK    8  A    between atoms: N4_26  and  C17_27 
REMARK    9  A    between atoms: N4_26  and  S2_34 
REMARK   10  A    between atoms: C17_27  and  C18_28 
REMARK   11  A    between atoms: S2_34  and  C24_37 
REMARK   12  A    between atoms: C27_40  and  C28_41 
ROOT
HETATM    1  C13 UNL     1      11.196 -18.719 -16.783  1.00  0.00     0.152 C 
HETATM    2  C14 UNL     1      11.975 -17.432 -16.892  1.00  0.00     0.260 C 
HETATM    3  N3  UNL     1      12.516 -17.503 -18.257  1.00  0.00    -0.071 N 
ATOM      4  H31 UNL     1      13.204 -16.790 -18.498  1.00  0.00     0.277 HD
ATOM      5  H32 UNL     1      11.869 -17.251 -19.004  1.00  0.00     0.277 HD
HETATM    6  C15 UNL     1      12.986 -18.847 -18.271  1.00  0.00     0.260 C 
HETATM    7  C16 UNL     1      11.891 -19.664 -17.738  1.00  0.00     0.152 C 
ENDROOT
BRANCH   1   8
HETATM    8  N2  UNL     1      10.928 -19.168 -15.496  1.00  0.00    -0.273 N 
BRANCH   8   9
HETATM    9  S1  UNL     1      11.967 -18.932 -14.223  1.00  0.00     0.265 S 
HETATM   10  O2  UNL     1      12.542 -17.561 -14.053  1.00  0.00    -0.200 OA
HETATM   11  O3  UNL     1      11.358 -19.273 -12.861  1.00  0.00    -0.200 OA
BRANCH   9  12
HETATM   12  C5  UNL     1      13.338 -20.020 -14.358  1.00  0.00     0.080 A 
HETATM   13  C4  UNL     1      13.321 -21.268 -13.783  1.00  0.00     0.026 A 
HETATM   14  C3  UNL     1      14.435 -22.084 -13.906  1.00  0.00     0.018 A 
HETATM   15  C2  UNL     1      15.566 -21.693 -14.585  1.00  0.00     0.029 A 
HETATM   16  C32 UNL     1      15.593 -20.429 -15.172  1.00  0.00     0.018 A 
HETATM   17  C31 UNL     1      14.487 -19.645 -15.037  1.00  0.00     0.026 A 
BRANCH  15  18
HETATM   18  C1  UNL     1      16.738 -22.540 -14.722  1.00  0.00     0.264 C 
HETATM   19  N1  UNL     1      17.455 -22.968 -13.585  1.00  0.00    -0.057 NA
HETATM   20  O1  UNL     1      17.124 -22.900 -15.853  1.00  0.00    -0.271 OA
ENDBRANCH  15  18
ENDBRANCH   9  12
ENDBRANCH   8   9
BRANCH   8  21
HETATM   21  C6  UNL     1       9.573 -18.915 -15.118  1.00  0.00     0.115 C 
BRANCH  21  22
HETATM   22  C7  UNL     1       9.097 -17.547 -15.166  1.00  0.00    -0.020 A 
HETATM   23  C8  UNL     1       9.324 -16.652 -14.157  1.00  0.00     0.013 A 
HETATM   24  C9  UNL     1       8.841 -15.339 -14.221  1.00  0.00     0.001 A 
HETATM   25  C10 UNL     1       8.117 -14.953 -15.339  1.00  0.00     0.000 A 
HETATM   26  C11 UNL     1       7.884 -15.856 -16.361  1.00  0.00     0.001 A 
HETATM   27  C12 UNL     1       8.376 -17.124 -16.257  1.00  0.00     0.013 A 
ENDBRANCH  21  22
ENDBRANCH   8  21
ENDBRANCH   1   8
BRANCH   7  28
HETATM   28  N4  UNL     1      11.020 -20.312 -18.603  1.00  0.00    -0.273 N 
BRANCH  28  29
HETATM   29  C17 UNL     1      10.697 -19.868 -19.878  1.00  0.00     0.115 C 
BRANCH  29  30
HETATM   30  C18 UNL     1       9.375 -19.149 -19.971  1.00  0.00    -0.020 A 
HETATM   31  C19 UNL     1       8.380 -19.412 -19.051  1.00  0.00     0.013 A 
HETATM   32  C20 UNL     1       7.151 -18.790 -19.091  1.00  0.00     0.001 A 
HETATM   33  C21 UNL     1       6.867 -17.866 -20.068  1.00  0.00     0.000 A 
HETATM   34  C22 UNL     1       7.854 -17.592 -20.996  1.00  0.00     0.001 A 
HETATM   35  C23 UNL     1       9.100 -18.226 -20.953  1.00  0.00     0.013 A 
ENDBRANCH  29  30
ENDBRANCH  28  29
BRANCH  28  36
HETATM   36  S2  UNL     1      11.132 -22.027 -18.483  1.00  0.00     0.265 S 
HETATM   37  O4  UNL     1      10.810 -22.440 -17.052  1.00  0.00    -0.200 OA
HETATM   38  O5  UNL     1      10.092 -22.717 -19.319  1.00  0.00    -0.200 OA
BRANCH  36  39
HETATM   39  C24 UNL     1      12.704 -22.641 -18.921  1.00  0.00     0.080 A 
HETATM   40  C25 UNL     1      13.661 -22.811 -17.951  1.00  0.00     0.026 A 
HETATM   41  C26 UNL     1      14.907 -23.289 -18.299  1.00  0.00     0.018 A 
HETATM   42  C27 UNL     1      15.244 -23.614 -19.608  1.00  0.00     0.029 A 
HETATM   43  C29 UNL     1      14.279 -23.440 -20.568  1.00  0.00     0.018 A 
HETATM   44  C30 UNL     1      13.017 -22.956 -20.223  1.00  0.00     0.026 A 
BRANCH  42  45
HETATM   45  C28 UNL     1      16.576 -24.112 -19.941  1.00  0.00     0.264 C 
HETATM   46  N5  UNL     1      17.545 -24.509 -19.016  1.00  0.00    -0.057 NA
HETATM   47  O6  UNL     1      16.838 -24.174 -21.197  1.00  0.00    -0.271 OA
ENDBRANCH  42  45
ENDBRANCH  36  39
ENDBRANCH  28  36
ENDBRANCH   7  28
TORSDOF 12
ENDMDL
