MODEL 5
REMARK VINA RESULT: -10.784574052      3.315      8.061
REMARK  12 active torsions:
REMARK  status: ('A' for Active; 'I' for Inactive)
REMARK    1  A    between atoms: C1_2  and  C2_4 
REMARK    2  A    between atoms: C5_7  and  S1_8 
REMARK    3  A    between atoms: S1_8  and  N2_11 
REMARK    4  A    between atoms: N2_11  and  C6_12 
REMARK    5  A    between atoms: N2_11  and  C13_19 
REMARK    6  A    between atoms: C6_12  and  C7_13 
REMARK    7  A    between atoms: C16_25  and  N4_26 
REMARK    8  A    between atoms: N4_26  and  C17_27 
REMARK    9  A    between atoms: N4_26  and  S2_34 
REMARK   10  A    between atoms: C17_27  and  C18_28 
REMARK   11  A    between atoms: S2_34  and  C24_37 
REMARK   12  A    between atoms: C27_40  and  C28_41 
ROOT
HETATM    1  C13 UNL     1      10.355 -19.285 -18.733  1.00  0.00     0.152 C 
HETATM    2  C14 UNL     1      10.304 -19.548 -20.216  1.00  0.00     0.260 C 
HETATM    3  N3  UNL     1       9.209 -18.672 -20.657  1.00  0.00    -0.071 N 
ATOM      4  H31 UNL     1       8.901 -18.797 -21.621  1.00  0.00     0.277 HD
ATOM      5  H32 UNL     1       9.448 -17.687 -20.773  1.00  0.00     0.277 HD
HETATM    6  C15 UNL     1       8.239 -18.959 -19.654  1.00  0.00     0.260 C 
HETATM    7  C16 UNL     1       8.946 -18.873 -18.372  1.00  0.00     0.152 C 
ENDROOT
BRANCH   1   8
HETATM    8  N2  UNL     1      10.972 -20.259 -17.957  1.00  0.00    -0.273 N 
BRANCH   8   9
HETATM    9  S1  UNL     1      10.736 -21.885 -18.194  1.00  0.00     0.265 S 
HETATM   10  O2  UNL     1      10.371 -22.707 -16.997  1.00  0.00    -0.200 OA
HETATM   11  O3  UNL     1       9.659 -22.205 -19.233  1.00  0.00    -0.200 OA
BRANCH   9  12
HETATM   12  C5  UNL     1      12.191 -22.612 -18.855  1.00  0.00     0.080 A 
HETATM   13  C4  UNL     1      12.546 -22.435 -20.171  1.00  0.00     0.026 A 
HETATM   14  C3  UNL     1      13.697 -23.042 -20.649  1.00  0.00     0.018 A 
HETATM   15  C2  UNL     1      14.505 -23.821 -19.854  1.00  0.00     0.029 A 
HETATM   16  C32 UNL     1      14.154 -24.007 -18.518  1.00  0.00     0.018 A 
HETATM   17  C31 UNL     1      13.019 -23.401 -18.072  1.00  0.00     0.026 A 
BRANCH  15  18
HETATM   18  C1  UNL     1      15.714 -24.460 -20.343  1.00  0.00     0.264 C 
HETATM   19  N1  UNL     1      16.235 -24.142 -21.615  1.00  0.00    -0.057 NA
HETATM   20  O1  UNL     1      16.309 -25.301 -19.638  1.00  0.00    -0.271 OA
ENDBRANCH  15  18
ENDBRANCH   9  12
ENDBRANCH   8   9
BRANCH   8  21
HETATM   21  C6  UNL     1      12.351 -19.960 -17.728  1.00  0.00     0.115 C 
BRANCH  21  22
HETATM   22  C7  UNL     1      12.875 -20.143 -16.389  1.00  0.00    -0.020 A 
HETATM   23  C8  UNL     1      12.076 -20.441 -15.320  1.00  0.00     0.013 A 
HETATM   24  C9  UNL     1      12.604 -20.600 -14.033  1.00  0.00     0.001 A 
HETATM   25  C10 UNL     1      13.971 -20.446 -13.855  1.00  0.00     0.000 A 
HETATM   26  C11 UNL     1      14.783 -20.143 -14.933  1.00  0.00     0.001 A 
HETATM   27  C12 UNL     1      14.224 -20.001 -16.170  1.00  0.00     0.013 A 
ENDBRANCH  21  22
ENDBRANCH   8  21
ENDBRANCH   1   8
BRANCH   7  28
HETATM   28  N4  UNL     1       8.888 -17.707 -17.620  1.00  0.00    -0.273 N 
BRANCH  28  29
HETATM   29  C17 UNL     1       9.982 -17.107 -17.010  1.00  0.00     0.115 C 
BRANCH  29  30
HETATM   30  C18 UNL     1      10.116 -17.406 -15.539  1.00  0.00    -0.020 A 
HETATM   31  C19 UNL     1      11.235 -16.987 -14.848  1.00  0.00     0.013 A 
HETATM   32  C20 UNL     1      11.414 -17.237 -13.505  1.00  0.00     0.001 A 
HETATM   33  C21 UNL     1      10.463 -17.928 -12.791  1.00  0.00     0.000 A 
HETATM   34  C22 UNL     1       9.337 -18.353 -13.468  1.00  0.00     0.001 A 
HETATM   35  C23 UNL     1       9.159 -18.098 -14.832  1.00  0.00     0.013 A 
ENDBRANCH  29  30
ENDBRANCH  28  29
BRANCH  28  36
HETATM   36  S2  UNL     1       7.748 -16.578 -18.247  1.00  0.00     0.265 S 
HETATM   37  O4  UNL     1       8.167 -15.174 -17.826  1.00  0.00    -0.200 OA
HETATM   38  O5  UNL     1       7.761 -16.542 -19.749  1.00  0.00    -0.200 OA
BRANCH  36  39
HETATM   39  C24 UNL     1       6.118 -16.880 -17.706  1.00  0.00     0.080 A 
HETATM   40  C25 UNL     1       5.203 -17.420 -18.577  1.00  0.00     0.026 A 
HETATM   41  C26 UNL     1       3.913 -17.653 -18.151  1.00  0.00     0.018 A 
HETATM   42  C27 UNL     1       3.487 -17.361 -16.861  1.00  0.00     0.029 A 
HETATM   43  C29 UNL     1       4.410 -16.821 -16.000  1.00  0.00     0.018 A 
HETATM   44  C30 UNL     1       5.718 -16.584 -16.424  1.00  0.00     0.026 A 
BRANCH  42  45
HETATM   45  C28 UNL     1       2.110 -17.614 -16.446  1.00  0.00     0.264 C 
HETATM   46  N5  UNL     1       1.093 -18.100 -17.273  1.00  0.00    -0.057 NA
HETATM   47  O6  UNL     1       1.853 -17.355 -15.214  1.00  0.00    -0.271 OA
ENDBRANCH  42  45
ENDBRANCH  36  39
ENDBRANCH  28  36
ENDBRANCH   7  28
TORSDOF 12
ENDMDL
