MODEL 6
REMARK VINA RESULT: -9.896638477      2.766      7.121
REMARK  12 active torsions:
REMARK  status: ('A' for Active; 'I' for Inactive)
REMARK    1  A    between atoms: C1_2  and  C2_4 
REMARK    2  A    between atoms: C5_7  and  S1_8 
REMARK    3  A    between atoms: S1_8  and  N2_11 
REMARK    4  A    between atoms: N2_11  and  C6_12 
REMARK    5  A    between atoms: N2_11  and  C13_19 
REMARK    6  A    between atoms: C6_12  and  C7_13 
REMARK    7  A    between atoms: C16_25  and  N4_26 
REMARK    8  A    between atoms: N4_26  and  C17_27 
REMARK    9  A    between atoms: N4_26  and  S2_34 
REMARK   10  A    between atoms: C17_27  and  C18_28 
REMARK   11  A    between atoms: S2_34  and  C24_37 
REMARK   12  A    between atoms: C27_40  and  C28_41 
ROOT
HETATM    1  C13 UNL     1      10.728 -20.813 -17.692  1.00  0.00     0.152 C 
HETATM    2  C14 UNL     1       9.583 -21.122 -18.623  1.00  0.00     0.260 C 
HETATM    3  N3  UNL     1      10.118 -22.229 -19.429  1.00  0.00    -0.071 N 
ATOM      4  H31 UNL     1       9.554 -22.506 -20.232  1.00  0.00     0.277 HD
ATOM      5  H32 UNL     1      10.095 -23.149 -18.990  1.00  0.00     0.277 HD
HETATM    6  C15 UNL     1      11.413 -21.717 -19.729  1.00  0.00     0.260 C 
HETATM    7  C16 UNL     1      11.962 -21.238 -18.456  1.00  0.00     0.152 C 
ENDROOT
BRANCH   1   8
HETATM    8  N2  UNL     1      10.721 -19.554 -17.106  1.00  0.00    -0.273 N 
BRANCH   8   9
HETATM    9  S1  UNL     1      10.636 -18.149 -17.986  1.00  0.00     0.265 S 
HETATM   10  O2  UNL     1      11.645 -17.086 -17.682  1.00  0.00    -0.200 OA
HETATM   11  O3  UNL     1      10.736 -18.363 -19.498  1.00  0.00    -0.200 OA
BRANCH   9  12
HETATM   12  C5  UNL     1       9.062 -17.399 -17.769  1.00  0.00     0.080 A 
HETATM   13  C4  UNL     1       7.966 -17.816 -18.484  1.00  0.00     0.026 A 
HETATM   14  C3  UNL     1       6.749 -17.182 -18.286  1.00  0.00     0.018 A 
HETATM   15  C2  UNL     1       6.593 -16.145 -17.397  1.00  0.00     0.029 A 
HETATM   16  C32 UNL     1       7.699 -15.715 -16.667  1.00  0.00     0.018 A 
HETATM   17  C31 UNL     1       8.884 -16.353 -16.878  1.00  0.00     0.026 A 
BRANCH  15  18
HETATM   18  C1  UNL     1       5.322 -15.475 -17.180  1.00  0.00     0.264 C 
HETATM   19  N1  UNL     1       5.094 -14.722 -16.008  1.00  0.00    -0.057 NA
HETATM   20  O1  UNL     1       4.415 -15.557 -18.033  1.00  0.00    -0.271 OA
ENDBRANCH  15  18
ENDBRANCH   9  12
ENDBRANCH   8   9
BRANCH   8  21
HETATM   21  C6  UNL     1       9.864 -19.505 -15.963  1.00  0.00     0.115 C 
BRANCH  21  22
HETATM   22  C7  UNL     1      10.442 -19.107 -14.694  1.00  0.00    -0.020 A 
HETATM   23  C8  UNL     1       9.824 -18.230 -13.846  1.00  0.00     0.013 A 
HETATM   24  C9  UNL     1      10.409 -17.851 -12.632  1.00  0.00     0.001 A 
HETATM   25  C10 UNL     1      11.645 -18.383 -12.297  1.00  0.00     0.000 A 
HETATM   26  C11 UNL     1      12.274 -19.269 -13.153  1.00  0.00     0.001 A 
HETATM   27  C12 UNL     1      11.665 -19.613 -14.325  1.00  0.00     0.013 A 
ENDBRANCH  21  22
ENDBRANCH   8  21
ENDBRANCH   1   8
BRANCH   7  28
HETATM   28  N4  UNL     1      12.818 -22.044 -17.717  1.00  0.00    -0.273 N 
BRANCH  28  29
HETATM   29  C17 UNL     1      13.004 -23.403 -17.932  1.00  0.00     0.115 C 
BRANCH  29  30
HETATM   30  C18 UNL     1      13.977 -23.731 -19.036  1.00  0.00    -0.020 A 
HETATM   31  C19 UNL     1      15.144 -24.409 -18.747  1.00  0.00     0.013 A 
HETATM   32  C20 UNL     1      16.072 -24.730 -19.715  1.00  0.00     0.001 A 
HETATM   33  C21 UNL     1      15.862 -24.380 -21.027  1.00  0.00     0.000 A 
HETATM   34  C22 UNL     1      14.698 -23.701 -21.331  1.00  0.00     0.001 A 
HETATM   35  C23 UNL     1      13.758 -23.376 -20.347  1.00  0.00     0.013 A 
ENDBRANCH  29  30
ENDBRANCH  28  29
BRANCH  28  36
HETATM   36  S2  UNL     1      14.257 -21.219 -17.252  1.00  0.00     0.265 S 
HETATM   37  O4  UNL     1      15.208 -21.186 -18.443  1.00  0.00    -0.200 OA
HETATM   38  O5  UNL     1      13.998 -19.774 -16.935  1.00  0.00    -0.200 OA
BRANCH  36  39
HETATM   39  C24 UNL     1      15.060 -21.958 -15.893  1.00  0.00     0.080 A 
HETATM   40  C25 UNL     1      16.388 -22.296 -15.989  1.00  0.00     0.026 A 
HETATM   41  C26 UNL     1      17.020 -22.887 -14.917  1.00  0.00     0.018 A 
HETATM   42  C27 UNL     1      16.366 -23.162 -13.721  1.00  0.00     0.029 A 
HETATM   43  C29 UNL     1      15.039 -22.820 -13.637  1.00  0.00     0.018 A 
HETATM   44  C30 UNL     1      14.393 -22.221 -14.718  1.00  0.00     0.026 A 
BRANCH  42  45
HETATM   45  C28 UNL     1      17.066 -23.795 -12.608  1.00  0.00     0.264 C 
HETATM   46  N5  UNL     1      16.686 -24.989 -11.988  1.00  0.00    -0.057 NA
HETATM   47  O6  UNL     1      18.111 -23.173 -12.193  1.00  0.00    -0.271 OA
ENDBRANCH  42  45
ENDBRANCH  36  39
ENDBRANCH  28  36
ENDBRANCH   7  28
TORSDOF 12
ENDMDL
