MODEL 12
REMARK VINA RESULT: -9.545741143      1.863      5.559
REMARK  12 active torsions:
REMARK  status: ('A' for Active; 'I' for Inactive)
REMARK    1  A    between atoms: C1_2  and  C2_4 
REMARK    2  A    between atoms: C5_7  and  S1_8 
REMARK    3  A    between atoms: S1_8  and  N2_11 
REMARK    4  A    between atoms: N2_11  and  C6_12 
REMARK    5  A    between atoms: N2_11  and  C13_19 
REMARK    6  A    between atoms: C6_12  and  C7_13 
REMARK    7  A    between atoms: C16_25  and  N4_26 
REMARK    8  A    between atoms: N4_26  and  C17_27 
REMARK    9  A    between atoms: N4_26  and  S2_34 
REMARK   10  A    between atoms: C17_27  and  C18_28 
REMARK   11  A    between atoms: S2_34  and  C24_37 
REMARK   12  A    between atoms: C27_40  and  C28_41 
ROOT
HETATM    1  C13 UNL     1      11.550 -18.617 -16.525  1.00  0.00     0.152 C 
HETATM    2  C14 UNL     1      11.990 -17.336 -17.188  1.00  0.00     0.260 C 
HETATM    3  N3  UNL     1      11.882 -17.663 -18.617  1.00  0.00    -0.071 N 
ATOM      4  H31 UNL     1      12.272 -16.975 -19.260  1.00  0.00     0.277 HD
ATOM      5  H32 UNL     1      10.942 -17.622 -19.011  1.00  0.00     0.277 HD
HETATM    6  C15 UNL     1      12.503 -18.945 -18.628  1.00  0.00     0.260 C 
HETATM    7  C16 UNL     1      11.895 -19.698 -17.526  1.00  0.00     0.152 C 
ENDROOT
BRANCH   1   8
HETATM    8  N2  UNL     1      11.947 -18.795 -15.206  1.00  0.00    -0.273 N 
BRANCH   8   9
HETATM    9  S1  UNL     1      11.244 -17.989 -13.936  1.00  0.00     0.265 S 
HETATM   10  O2  UNL     1      11.129 -18.723 -12.637  1.00  0.00    -0.200 OA
HETATM   11  O3  UNL     1      11.940 -16.672 -13.582  1.00  0.00    -0.200 OA
BRANCH   9  12
HETATM   12  C5  UNL     1       9.612 -17.502 -14.364  1.00  0.00     0.080 A 
HETATM   13  C4  UNL     1       8.566 -18.392 -14.323  1.00  0.00     0.026 A 
HETATM   14  C3  UNL     1       7.298 -17.962 -14.684  1.00  0.00     0.018 A 
HETATM   15  C2  UNL     1       7.043 -16.672 -15.086  1.00  0.00     0.029 A 
HETATM   16  C32 UNL     1       8.098 -15.762 -15.132  1.00  0.00     0.018 A 
HETATM   17  C31 UNL     1       9.333 -16.208 -14.772  1.00  0.00     0.026 A 
BRANCH  15  18
HETATM   18  C1  UNL     1       5.719 -16.210 -15.465  1.00  0.00     0.264 C 
HETATM   19  N1  UNL     1       4.720 -17.126 -15.858  1.00  0.00    -0.057 NA
HETATM   20  O1  UNL     1       5.449 -14.991 -15.446  1.00  0.00    -0.271 OA
ENDBRANCH  15  18
ENDBRANCH   9  12
ENDBRANCH   8   9
BRANCH   8  21
HETATM   21  C6  UNL     1      12.156 -20.175 -14.896  1.00  0.00     0.115 C 
BRANCH  21  22
HETATM   22  C7  UNL     1      13.521 -20.659 -14.829  1.00  0.00    -0.020 A 
HETATM   23  C8  UNL     1      13.840 -21.896 -14.342  1.00  0.00     0.013 A 
HETATM   24  C9  UNL     1      15.168 -22.336 -14.274  1.00  0.00     0.001 A 
HETATM   25  C10 UNL     1      16.171 -21.484 -14.714  1.00  0.00     0.000 A 
HETATM   26  C11 UNL     1      15.851 -20.231 -15.206  1.00  0.00     0.001 A 
HETATM   27  C12 UNL     1      14.544 -19.846 -15.256  1.00  0.00     0.013 A 
ENDBRANCH  21  22
ENDBRANCH   8  21
ENDBRANCH   1   8
BRANCH   7  28
HETATM   28  N4  UNL     1      10.846 -20.574 -17.774  1.00  0.00    -0.273 N 
BRANCH  28  29
HETATM   29  C17 UNL     1       9.505 -20.276 -17.572  1.00  0.00     0.115 C 
BRANCH  29  30
HETATM   30  C18 UNL     1       8.959 -19.211 -18.487  1.00  0.00    -0.020 A 
HETATM   31  C19 UNL     1       8.400 -18.066 -17.956  1.00  0.00     0.013 A 
HETATM   32  C20 UNL     1       7.880 -17.062 -18.744  1.00  0.00     0.001 A 
HETATM   33  C21 UNL     1       7.900 -17.168 -20.115  1.00  0.00     0.000 A 
HETATM   34  C22 UNL     1       8.458 -18.309 -20.660  1.00  0.00     0.001 A 
HETATM   35  C23 UNL     1       8.984 -19.326 -19.857  1.00  0.00     0.013 A 
ENDBRANCH  29  30
ENDBRANCH  28  29
BRANCH  28  36
HETATM   36  S2  UNL     1      11.129 -21.561 -19.158  1.00  0.00     0.265 S 
HETATM   37  O4  UNL     1       9.988 -22.562 -19.286  1.00  0.00    -0.200 OA
HETATM   38  O5  UNL     1      11.079 -20.766 -20.432  1.00  0.00    -0.200 OA
BRANCH  36  39
HETATM   39  C24 UNL     1      12.645 -22.418 -19.088  1.00  0.00     0.080 A 
HETATM   40  C25 UNL     1      13.213 -22.889 -20.247  1.00  0.00     0.026 A 
HETATM   41  C26 UNL     1      14.408 -23.573 -20.191  1.00  0.00     0.018 A 
HETATM   42  C27 UNL     1      15.077 -23.813 -18.996  1.00  0.00     0.029 A 
HETATM   43  C29 UNL     1      14.500 -23.338 -17.845  1.00  0.00     0.018 A 
HETATM   44  C30 UNL     1      13.290 -22.645 -17.894  1.00  0.00     0.026 A 
BRANCH  42  45
HETATM   45  C28 UNL     1      16.338 -24.548 -18.973  1.00  0.00     0.264 C 
HETATM   46  N5  UNL     1      16.586 -25.705 -18.231  1.00  0.00    -0.057 NA
HETATM   47  O6  UNL     1      17.271 -24.057 -19.709  1.00  0.00    -0.271 OA
ENDBRANCH  42  45
ENDBRANCH  36  39
ENDBRANCH  28  36
ENDBRANCH   7  28
TORSDOF 12
ENDMDL
