MODEL 3
REMARK VINA RESULT: -10.847396477      1.787      7.590
REMARK  12 active torsions:
REMARK  status: ('A' for Active; 'I' for Inactive)
REMARK    1  A    between atoms: C1_2  and  C2_4 
REMARK    2  A    between atoms: C5_7  and  S1_8 
REMARK    3  A    between atoms: S1_8  and  N2_11 
REMARK    4  A    between atoms: N2_11  and  C6_12 
REMARK    5  A    between atoms: N2_11  and  C13_19 
REMARK    6  A    between atoms: C6_12  and  C7_13 
REMARK    7  A    between atoms: C16_25  and  N4_26 
REMARK    8  A    between atoms: N4_26  and  C17_27 
REMARK    9  A    between atoms: N4_26  and  S2_34 
REMARK   10  A    between atoms: C17_27  and  C18_28 
REMARK   11  A    between atoms: S2_34  and  C24_37 
REMARK   12  A    between atoms: C27_40  and  C28_41 
ROOT
HETATM    1  C13 UNL     1      11.725 -19.403 -17.889  1.00  0.00     0.152 C 
HETATM    2  C14 UNL     1      12.431 -18.555 -18.917  1.00  0.00     0.260 C 
HETATM    3  N3  UNL     1      12.999 -17.473 -18.100  1.00  0.00    -0.071 N 
ATOM      4  H31 UNL     1      13.406 -16.694 -18.617  1.00  0.00     0.277 HD
ATOM      5  H32 UNL     1      13.859 -17.699 -17.600  1.00  0.00     0.277 HD
HETATM    6  C15 UNL     1      11.874 -17.156 -17.286  1.00  0.00     0.260 C 
HETATM    7  C16 UNL     1      11.367 -18.436 -16.783  1.00  0.00     0.152 C 
ENDROOT
BRANCH   1   8
HETATM    8  N2  UNL     1      10.732 -20.249 -18.367  1.00  0.00    -0.273 N 
BRANCH   8   9
HETATM    9  S1  UNL     1      10.824 -21.903 -18.253  1.00  0.00     0.265 S 
HETATM   10  O2  UNL     1      10.535 -22.515 -16.918  1.00  0.00    -0.200 OA
HETATM   11  O3  UNL     1       9.904 -22.639 -19.230  1.00  0.00    -0.200 OA
BRANCH   9  12
HETATM   12  C5  UNL     1      12.434 -22.446 -18.697  1.00  0.00     0.080 A 
HETATM   13  C4  UNL     1      12.771 -22.689 -20.006  1.00  0.00     0.026 A 
HETATM   14  C3  UNL     1      14.052 -23.131 -20.303  1.00  0.00     0.018 A 
HETATM   15  C2  UNL     1      15.005 -23.337 -19.333  1.00  0.00     0.029 A 
HETATM   16  C32 UNL     1      14.672 -23.093 -18.002  1.00  0.00     0.018 A 
HETATM   17  C31 UNL     1      13.409 -22.660 -17.736  1.00  0.00     0.026 A 
BRANCH  15  18
HETATM   18  C1  UNL     1      16.350 -23.797 -19.633  1.00  0.00     0.264 C 
HETATM   19  N1  UNL     1      16.691 -24.234 -20.930  1.00  0.00    -0.057 NA
HETATM   20  O1  UNL     1      17.223 -23.809 -18.742  1.00  0.00    -0.271 OA
ENDBRANCH  15  18
ENDBRANCH   9  12
ENDBRANCH   8   9
BRANCH   8  21
HETATM   21  C6  UNL     1       9.425 -19.775 -18.034  1.00  0.00     0.115 C 
BRANCH  21  22
HETATM   22  C7  UNL     1       8.647 -19.134 -19.075  1.00  0.00    -0.020 A 
HETATM   23  C8  UNL     1       9.165 -18.837 -20.305  1.00  0.00     0.013 A 
HETATM   24  C9  UNL     1       8.396 -18.205 -21.290  1.00  0.00     0.001 A 
HETATM   25  C10 UNL     1       7.081 -17.877 -20.995  1.00  0.00     0.000 A 
HETATM   26  C11 UNL     1       6.554 -18.175 -19.751  1.00  0.00     0.001 A 
HETATM   27  C12 UNL     1       7.339 -18.794 -18.824  1.00  0.00     0.013 A 
ENDBRANCH  21  22
ENDBRANCH   8  21
ENDBRANCH   1   8
BRANCH   7  28
HETATM   28  N4  UNL     1      11.732 -18.884 -15.520  1.00  0.00    -0.273 N 
BRANCH  28  29
HETATM   29  C17 UNL     1      12.961 -18.640 -14.922  1.00  0.00     0.115 C 
BRANCH  29  30
HETATM   30  C18 UNL     1      13.836 -19.859 -14.776  1.00  0.00    -0.020 A 
HETATM   31  C19 UNL     1      15.128 -19.843 -15.263  1.00  0.00     0.013 A 
HETATM   32  C20 UNL     1      15.970 -20.929 -15.163  1.00  0.00     0.001 A 
HETATM   33  C21 UNL     1      15.544 -22.090 -14.561  1.00  0.00     0.000 A 
HETATM   34  C22 UNL     1      14.254 -22.120 -14.068  1.00  0.00     0.001 A 
HETATM   35  C23 UNL     1      13.402 -21.016 -14.172  1.00  0.00     0.013 A 
ENDBRANCH  29  30
ENDBRANCH  28  29
BRANCH  28  36
HETATM   36  S2  UNL     1      10.414 -18.867 -14.411  1.00  0.00     0.265 S 
HETATM   37  O4  UNL     1       9.623 -20.159 -14.572  1.00  0.00    -0.200 OA
HETATM   38  O5  UNL     1      10.882 -18.886 -12.983  1.00  0.00    -0.200 OA
BRANCH  36  39
HETATM   39  C24 UNL     1       9.349 -17.506 -14.636  1.00  0.00     0.080 A 
HETATM   40  C25 UNL     1       8.093 -17.705 -15.155  1.00  0.00     0.026 A 
HETATM   41  C26 UNL     1       7.254 -16.627 -15.340  1.00  0.00     0.018 A 
HETATM   42  C27 UNL     1       7.625 -15.326 -15.020  1.00  0.00     0.029 A 
HETATM   43  C29 UNL     1       8.883 -15.140 -14.501  1.00  0.00     0.018 A 
HETATM   44  C30 UNL     1       9.737 -16.226 -14.311  1.00  0.00     0.026 A 
BRANCH  42  45
HETATM   45  C28 UNL     1       6.712 -14.207 -15.235  1.00  0.00     0.264 C 
HETATM   46  N5  UNL     1       5.599 -14.223 -16.079  1.00  0.00    -0.057 NA
HETATM   47  O6  UNL     1       6.990 -13.140 -14.576  1.00  0.00    -0.271 OA
ENDBRANCH  42  45
ENDBRANCH  36  39
ENDBRANCH  28  36
ENDBRANCH   7  28
TORSDOF 12
ENDMDL
