MODEL 3
REMARK VINA RESULT: -8.679902513      1.074      1.360
REMARK  9 active torsions:
REMARK  status: ('A' for Active; 'I' for Inactive)
REMARK    1  A    between atoms: N1_5  and  C4_6 
REMARK    2  A    between atoms: C6_8  and  O2_9 
REMARK    3  A    between atoms: C7_11  and  C8_12 
REMARK    4  A    between atoms: C8_12  and  O3_13 
REMARK    5  A    between atoms: O3_13  and  P1_14 
REMARK    6  A    between atoms: P1_14  and  N2_17 
REMARK    7  A    between atoms: N2_17  and  P2_19 
REMARK    8  A    between atoms: P2_19  and  O8_22 
REMARK    9  A    between atoms: O8_22  and  P3_23 
ROOT
HETATM    1  C4  UNL     1      13.338  11.617  39.693  1.00  0.00     0.235 C 
HETATM    2  C5  UNL     1      13.132  11.873  38.219  1.00  0.00     0.088 C 
HETATM    3  C6  UNL     1      13.911  10.722  37.612  1.00  0.00     0.153 C 
HETATM    4  C7  UNL     1      13.667   9.657  38.670  1.00  0.00     0.177 C 
HETATM    5  O12 UNL     1      13.876  10.359  39.830  1.00  0.00    -0.356 OA
ENDROOT
BRANCH   4   6
HETATM    6  C8  UNL     1      14.592   8.506  38.523  1.00  0.00     0.215 C 
BRANCH   6   7
HETATM    7  O3  UNL     1      15.873   8.759  39.013  1.00  0.00    -0.293 OA
BRANCH   7   8
HETATM    8  P1  UNL     1      16.935   7.643  39.067  1.00  0.00     0.368 P 
HETATM    9  O4  UNL     1      18.030   8.889  38.638  1.00  0.00    -0.629 OA
HETATM   10  O5  UNL     1      18.107   6.691  38.678  1.00  0.00    -0.629 OA
BRANCH   8  11
HETATM   11  N2  UNL     1      16.785   7.223  40.640  1.00  0.00    -0.225 N 
ATOM     12  H2  UNL     1      17.372   7.670  41.345  1.00  0.00     0.178 HD
BRANCH  11  13
HETATM   13  P2  UNL     1      15.655   6.044  41.101  1.00  0.00     0.378 P 
HETATM   14  O6  UNL     1      16.563   4.817  40.871  1.00  0.00    -0.629 OA
HETATM   15  O7  UNL     1      14.462   6.968  41.446  1.00  0.00    -0.629 OA
BRANCH  13  16
HETATM   16  O8  UNL     1      14.717   5.474  39.894  1.00  0.00    -0.178 OA
BRANCH  16  17
HETATM   17  P3  UNL     1      13.820   4.253  39.959  1.00  0.00     0.431 P 
HETATM   18  O9  UNL     1      14.327   3.757  41.381  1.00  0.00    -0.616 OA
HETATM   19  O10 UNL     1      12.479   5.247  39.774  1.00  0.00    -0.616 OA
HETATM   20  O11 UNL     1      14.546   3.653  38.560  1.00  0.00    -0.616 OA
ENDBRANCH  16  17
ENDBRANCH  13  16
ENDBRANCH  11  13
ENDBRANCH   8  11
ENDBRANCH   7   8
ENDBRANCH   6   7
ENDBRANCH   4   6
BRANCH   3  21
HETATM   21  O2  UNL     1      13.395  10.341  36.378  1.00  0.00    -0.393 OA
ATOM     22  H2  UNL     1      13.702  10.903  35.676  1.00  0.00     0.210 HD
ENDBRANCH   3  21
BRANCH   1  23
HETATM   23  N1  UNL     1      14.228  12.655  40.189  1.00  0.00    -0.282 N 
HETATM   24  C3  UNL     1      13.796  13.909  40.419  1.00  0.00     0.104 A 
HETATM   25  C2  UNL     1      14.666  14.869  40.889  1.00  0.00     0.092 A 
HETATM   26  C1  UNL     1      15.993  14.559  41.129  1.00  0.00     0.250 A 
HETATM   27  O1  UNL     1      16.778  15.454  41.560  1.00  0.00    -0.268 OA
HETATM   28  N3  UNL     1      16.394  13.304  40.889  1.00  0.00    -0.275 N 
HETATM   29  C9  UNL     1      15.523  12.397  40.434  1.00  0.00     0.331 A 
ATOM     30  H3  UNL     1      17.365  13.040  41.055  1.00  0.00     0.173 HD
HETATM   31  O13 UNL     1      15.899  11.199  40.204  1.00  0.00    -0.246 OA
ENDBRANCH   1  23
TORSDOF 9
ENDMDL
