MODEL 4
REMARK VINA RESULT: -8.131054331      1.420      2.034
REMARK  9 active torsions:
REMARK  status: ('A' for Active; 'I' for Inactive)
REMARK    1  A    between atoms: N1_5  and  C4_6 
REMARK    2  A    between atoms: C6_8  and  O2_9 
REMARK    3  A    between atoms: C7_11  and  C8_12 
REMARK    4  A    between atoms: C8_12  and  O3_13 
REMARK    5  A    between atoms: O3_13  and  P1_14 
REMARK    6  A    between atoms: P1_14  and  N2_17 
REMARK    7  A    between atoms: N2_17  and  P2_19 
REMARK    8  A    between atoms: P2_19  and  O8_22 
REMARK    9  A    between atoms: O8_22  and  P3_23 
ROOT
HETATM    1  C4  UNL     1      13.309  11.654  39.583  1.00  0.00     0.235 C 
HETATM    2  C5  UNL     1      13.213  11.829  38.086  1.00  0.00     0.088 C 
HETATM    3  C6  UNL     1      13.950  10.597  37.600  1.00  0.00     0.153 C 
HETATM    4  C7  UNL     1      13.570   9.616  38.700  1.00  0.00     0.177 C 
HETATM    5  O12 UNL     1      13.752  10.375  39.828  1.00  0.00    -0.356 OA
ENDROOT
BRANCH   4   6
HETATM    6  C8  UNL     1      14.423   8.403  38.681  1.00  0.00     0.215 C 
BRANCH   6   7
HETATM    7  O3  UNL     1      15.610   8.572  37.969  1.00  0.00    -0.293 OA
BRANCH   7   8
HETATM    8  P1  UNL     1      16.491   7.363  37.600  1.00  0.00     0.368 P 
HETATM    9  O4  UNL     1      17.735   8.530  37.424  1.00  0.00    -0.629 OA
HETATM   10  O5  UNL     1      17.479   6.423  36.842  1.00  0.00    -0.629 OA
BRANCH   8  11
HETATM   11  N2  UNL     1      16.378   6.526  39.000  1.00  0.00    -0.225 N 
ATOM     12  H2  UNL     1      15.624   5.851  39.131  1.00  0.00     0.178 HD
BRANCH  11  13
HETATM   13  P2  UNL     1      17.514   6.780  40.235  1.00  0.00     0.378 P 
HETATM   14  O6  UNL     1      18.330   5.489  40.005  1.00  0.00    -0.629 OA
HETATM   15  O7  UNL     1      16.989   8.131  40.780  1.00  0.00    -0.629 OA
BRANCH  13  16
HETATM   16  O8  UNL     1      17.105   6.165  41.690  1.00  0.00    -0.178 OA
BRANCH  16  17
HETATM   17  P3  UNL     1      15.813   5.447  42.027  1.00  0.00     0.431 P 
HETATM   18  O9  UNL     1      15.852   4.456  40.785  1.00  0.00    -0.616 OA
HETATM   19  O10 UNL     1      16.447   5.040  43.528  1.00  0.00    -0.616 OA
HETATM   20  O11 UNL     1      14.977   6.906  41.902  1.00  0.00    -0.616 OA
ENDBRANCH  16  17
ENDBRANCH  13  16
ENDBRANCH  11  13
ENDBRANCH   8  11
ENDBRANCH   7   8
ENDBRANCH   6   7
ENDBRANCH   4   6
BRANCH   3  21
HETATM   21  O2  UNL     1      13.487  10.173  36.358  1.00  0.00    -0.393 OA
ATOM     22  H2  UNL     1      14.158  10.240  35.689  1.00  0.00     0.210 HD
ENDBRANCH   3  21
BRANCH   1  23
HETATM   23  N1  UNL     1      14.233  12.662  40.076  1.00  0.00    -0.282 N 
HETATM   24  C3  UNL     1      15.546  12.407  40.228  1.00  0.00     0.104 A 
HETATM   25  C2  UNL     1      16.395  13.386  40.699  1.00  0.00     0.092 A 
HETATM   26  C1  UNL     1      15.911  14.641  41.021  1.00  0.00     0.250 A 
HETATM   27  O1  UNL     1      16.705  15.528  41.452  1.00  0.00    -0.268 OA
HETATM   28  N3  UNL     1      14.601  14.866  40.860  1.00  0.00    -0.275 N 
HETATM   29  C9  UNL     1      13.805  13.893  40.400  1.00  0.00     0.331 A 
ATOM     30  H3  UNL     1      14.209  15.780  41.087  1.00  0.00     0.173 HD
HETATM   31  O13 UNL     1      12.555  14.100  40.244  1.00  0.00    -0.246 OA
ENDBRANCH   1  23
TORSDOF 9
ENDMDL
