MODEL 1
REMARK VINA RESULT: -10.116366365      0.000      0.000
REMARK  9 active torsions:
REMARK  status: ('A' for Active; 'I' for Inactive)
REMARK    1  A    between atoms: N1_5  and  C4_6 
REMARK    2  A    between atoms: C6_8  and  O2_9 
REMARK    3  A    between atoms: C7_11  and  C8_12 
REMARK    4  A    between atoms: C8_12  and  O3_13 
REMARK    5  A    between atoms: O3_13  and  P1_14 
REMARK    6  A    between atoms: P1_14  and  N2_17 
REMARK    7  A    between atoms: N2_17  and  P2_19 
REMARK    8  A    between atoms: P2_19  and  O8_22 
REMARK    9  A    between atoms: O8_22  and  P3_23 
ROOT
HETATM    1  C4  UNL     1      13.204  11.955  39.491  1.00  0.00     0.235 C 
HETATM    2  C5  UNL     1      13.308  12.078  37.990  1.00  0.00     0.088 C 
HETATM    3  C6  UNL     1      13.942  10.748  37.632  1.00  0.00     0.153 C 
HETATM    4  C7  UNL     1      13.319   9.866  38.703  1.00  0.00     0.177 C 
HETATM    5  O12 UNL     1      13.456  10.645  39.824  1.00  0.00    -0.356 OA
ENDROOT
BRANCH   4   6
HETATM    6  C8  UNL     1      14.015   8.562  38.823  1.00  0.00     0.215 C 
BRANCH   6   7
HETATM    7  O3  UNL     1      15.012   8.554  39.798  1.00  0.00    -0.293 OA
BRANCH   7   8
HETATM    8  P1  UNL     1      16.462   8.168  39.444  1.00  0.00     0.368 P 
HETATM    9  O4  UNL     1      16.761   9.853  39.538  1.00  0.00    -0.629 OA
HETATM   10  O5  UNL     1      17.855   8.118  38.744  1.00  0.00    -0.629 OA
BRANCH   8  11
HETATM   11  N2  UNL     1      16.800   7.228  40.738  1.00  0.00    -0.225 N 
ATOM     12  H2  UNL     1      17.608   7.439  41.324  1.00  0.00     0.178 HD
BRANCH  11  13
HETATM   13  P2  UNL     1      15.809   5.901  41.106  1.00  0.00     0.378 P 
HETATM   14  O6  UNL     1      16.805   4.801  40.680  1.00  0.00    -0.629 OA
HETATM   15  O7  UNL     1      14.562   6.660  41.622  1.00  0.00    -0.629 OA
BRANCH  13  16
HETATM   16  O8  UNL     1      14.852   5.391  39.887  1.00  0.00    -0.178 OA
BRANCH  16  17
HETATM   17  P3  UNL     1      13.854   4.251  39.949  1.00  0.00     0.431 P 
HETATM   18  O9  UNL     1      14.330   3.698  41.361  1.00  0.00    -0.616 OA
HETATM   19  O10 UNL     1      12.601   5.357  39.787  1.00  0.00    -0.616 OA
HETATM   20  O11 UNL     1      14.514   3.606  38.537  1.00  0.00    -0.616 OA
ENDBRANCH  16  17
ENDBRANCH  13  16
ENDBRANCH  11  13
ENDBRANCH   8  11
ENDBRANCH   7   8
ENDBRANCH   6   7
ENDBRANCH   4   6
BRANCH   3  21
HETATM   21  O2  UNL     1      13.582  10.329  36.355  1.00  0.00    -0.393 OA
ATOM     22  H2  UNL     1      13.131   9.493  36.371  1.00  0.00     0.210 HD
ENDBRANCH   3  21
BRANCH   1  23
HETATM   23  N1  UNL     1      14.178  12.869  40.066  1.00  0.00    -0.282 N 
HETATM   24  C3  UNL     1      15.467  12.518  40.231  1.00  0.00     0.104 A 
HETATM   25  C2  UNL     1      16.366  13.409  40.780  1.00  0.00     0.092 A 
HETATM   26  C1  UNL     1      15.955  14.672  41.168  1.00  0.00     0.250 A 
HETATM   27  O1  UNL     1      16.794  15.477  41.670  1.00  0.00    -0.268 OA
HETATM   28  N3  UNL     1      14.667  14.992  40.992  1.00  0.00    -0.275 N 
HETATM   29  C9  UNL     1      13.822  14.104  40.456  1.00  0.00     0.331 A 
ATOM     30  H3  UNL     1      14.329  15.915  41.266  1.00  0.00     0.173 HD
HETATM   31  O13 UNL     1      12.593  14.402  40.285  1.00  0.00    -0.246 OA
ENDBRANCH   1  23
TORSDOF 9
ENDMDL
