MODEL 9
REMARK VINA RESULT: -7.088221121      3.297      8.057
REMARK  9 active torsions:
REMARK  status: ('A' for Active; 'I' for Inactive)
REMARK    1  A    between atoms: N1_5  and  C4_6 
REMARK    2  A    between atoms: C6_8  and  O2_9 
REMARK    3  A    between atoms: C7_11  and  C8_12 
REMARK    4  A    between atoms: C8_12  and  O3_13 
REMARK    5  A    between atoms: O3_13  and  P1_14 
REMARK    6  A    between atoms: P1_14  and  N2_17 
REMARK    7  A    between atoms: N2_17  and  P2_19 
REMARK    8  A    between atoms: P2_19  and  O8_22 
REMARK    9  A    between atoms: O8_22  and  P3_23 
ROOT
HETATM    1  C4  UNL     1      15.427   8.624  39.557  1.00  0.00     0.235 C 
HETATM    2  C5  UNL     1      15.271   8.729  38.059  1.00  0.00     0.088 C 
HETATM    3  C6  UNL     1      14.046   9.615  37.954  1.00  0.00     0.153 C 
HETATM    4  C7  UNL     1      14.252  10.489  39.183  1.00  0.00     0.177 C 
HETATM    5  O12 UNL     1      14.602   9.562  40.132  1.00  0.00    -0.356 OA
ENDROOT
BRANCH   4   6
HETATM    6  C8  UNL     1      13.025  11.241  39.542  1.00  0.00     0.215 C 
BRANCH   6   7
HETATM    7  O3  UNL     1      13.263  12.303  40.415  1.00  0.00    -0.293 OA
BRANCH   7   8
HETATM    8  P1  UNL     1      13.147  13.763  39.935  1.00  0.00     0.368 P 
HETATM    9  O4  UNL     1      11.534  13.650  40.502  1.00  0.00    -0.629 OA
HETATM   10  O5  UNL     1      12.641  15.054  39.221  1.00  0.00    -0.629 OA
BRANCH   8  11
HETATM   11  N2  UNL     1      14.282  14.440  40.897  1.00  0.00    -0.225 N 
ATOM     12  H2  UNL     1      14.139  15.379  41.271  1.00  0.00     0.178 HD
BRANCH  11  13
HETATM   13  P2  UNL     1      15.698  13.583  41.274  1.00  0.00     0.378 P 
HETATM   14  O6  UNL     1      15.396  13.376  42.774  1.00  0.00    -0.629 OA
HETATM   15  O7  UNL     1      16.359  13.572  39.874  1.00  0.00    -0.629 OA
BRANCH  13  16
HETATM   16  O8  UNL     1      16.962  14.502  41.739  1.00  0.00    -0.178 OA
BRANCH  16  17
HETATM   17  P3  UNL     1      16.886  15.898  42.325  1.00  0.00     0.431 P 
HETATM   18  O9  UNL     1      15.944  16.496  41.193  1.00  0.00    -0.616 OA
HETATM   19  O10 UNL     1      16.285  15.251  43.754  1.00  0.00    -0.616 OA
HETATM   20  O11 UNL     1      18.560  16.044  42.177  1.00  0.00    -0.616 OA
ENDBRANCH  16  17
ENDBRANCH  13  16
ENDBRANCH  11  13
ENDBRANCH   8  11
ENDBRANCH   7   8
ENDBRANCH   6   7
ENDBRANCH   4   6
BRANCH   3  21
HETATM   21  O2  UNL     1      14.051  10.371  36.786  1.00  0.00    -0.393 OA
ATOM     22  H2  UNL     1      13.192  10.726  36.590  1.00  0.00     0.210 HD
ENDBRANCH   3  21
BRANCH   1  23
HETATM   23  N1  UNL     1      15.067   7.266  39.933  1.00  0.00    -0.282 N 
HETATM   24  C3  UNL     1      13.945   6.678  39.477  1.00  0.00     0.104 A 
HETATM   25  C2  UNL     1      13.633   5.389  39.853  1.00  0.00     0.092 A 
HETATM   26  C1  UNL     1      14.465   4.684  40.705  1.00  0.00     0.250 A 
HETATM   27  O1  UNL     1      14.163   3.501  41.040  1.00  0.00    -0.268 OA
HETATM   28  N3  UNL     1      15.573   5.295  41.143  1.00  0.00    -0.275 N 
HETATM   29  C9  UNL     1      15.846   6.547  40.757  1.00  0.00     0.331 A 
ATOM     30  H3  UNL     1      16.210   4.806  41.772  1.00  0.00     0.173 HD
HETATM   31  O13 UNL     1      16.901   7.135  41.171  1.00  0.00    -0.246 OA
ENDBRANCH   1  23
TORSDOF 9
ENDMDL
