MODEL 11
REMARK VINA RESULT: -10.038089637      2.110      9.413
REMARK  12 active torsions:
REMARK  status: ('A' for Active; 'I' for Inactive)
REMARK    1  A    between atoms: C3_3  and  O1_4 
REMARK    2  A    between atoms: C7_9  and  C8_10 
REMARK       I    between atoms: C8_10  and  N1_12 
REMARK    3  A    between atoms: N1_12  and  C9_14 
REMARK    4  A    between atoms: C9_14  and  C10_15 
REMARK    5  A    between atoms: C9_14  and  C17_23 
REMARK    6  A    between atoms: C10_15  and  S1_16 
REMARK    7  A    between atoms: S1_16  and  C11_17 
REMARK    8  A    between atoms: C17_23  and  O3_24 
REMARK    9  A    between atoms: C17_23  and  C18_26 
REMARK   10  A    between atoms: C18_26  and  N2_27 
REMARK   11  A    between atoms: C27_36  and  C28_37 
REMARK       I    between atoms: C28_37  and  N3_39 
REMARK   12  A    between atoms: N3_39  and  C29_41 
ROOT
HETATM    1  C9  UNL     1      -7.782  15.498  27.315  1.00  0.00     0.124 C 
ENDROOT
BRANCH   1   2
HETATM    2  N1  UNL     1      -8.248  15.563  25.969  1.00  0.00    -0.349 N 
HETATM    3  C8  UNL     1      -8.457  14.452  25.119  1.00  0.00     0.252 C 
HETATM    4  O2  UNL     1      -8.210  13.290  25.571  1.00  0.00    -0.268 OA
ATOM      5  H1  UNL     1      -8.449  16.488  25.588  1.00  0.00     0.163 HD
BRANCH   3   6
HETATM    6  C7  UNL     1      -8.945  14.621  23.746  1.00  0.00     0.040 A 
HETATM    7  C2  UNL     1      -8.098  15.185  22.824  1.00  0.00    -0.013 A 
HETATM    8  C1  UNL     1      -6.721  15.613  23.137  1.00  0.00     0.052 C 
HETATM    9  C3  UNL     1      -8.581  15.344  21.528  1.00  0.00     0.072 A 
HETATM   10  C4  UNL     1      -9.856  14.961  21.153  1.00  0.00     0.037 A 
HETATM   11  C5  UNL     1     -10.676  14.403  22.087  1.00  0.00     0.004 A 
HETATM   12  C6  UNL     1     -10.216  14.234  23.395  1.00  0.00     0.018 A 
BRANCH   9  13
HETATM   13  O1  UNL     1      -7.788  15.901  20.556  1.00  0.00    -0.360 OA
ATOM     14  H1  UNL     1      -8.074  15.911  19.651  1.00  0.00     0.217 HD
ENDBRANCH   9  13
ENDBRANCH   3   6
ENDBRANCH   1   2
BRANCH   1  15
HETATM   15  C10 UNL     1      -6.275  15.786  27.359  1.00  0.00     0.107 C 
BRANCH  15  16
HETATM   16  S1  UNL     1      -5.873  17.389  26.621  1.00  0.00    -0.128 SA
BRANCH  16  17
HETATM   17  C11 UNL     1      -4.488  17.181  25.521  1.00  0.00     0.000 A 
HETATM   18  C12 UNL     1      -3.720  16.016  25.548  1.00  0.00     0.018 A 
HETATM   19  C13 UNL     1      -2.646  15.825  24.712  1.00  0.00     0.001 A 
HETATM   20  C14 UNL     1      -2.293  16.799  23.804  1.00  0.00     0.000 A 
HETATM   21  C15 UNL     1      -3.035  17.955  23.760  1.00  0.00     0.001 A 
HETATM   22  C16 UNL     1      -4.128  18.141  24.617  1.00  0.00     0.018 A 
ENDBRANCH  16  17
ENDBRANCH  15  16
ENDBRANCH   1  15
BRANCH   1  23
HETATM   23  C17 UNL     1      -8.512  16.491  28.202  1.00  0.00     0.170 C 
BRANCH  23  24
HETATM   24  O3  UNL     1      -7.819  16.812  29.337  1.00  0.00    -0.392 OA
ATOM     25  H3  UNL     1      -7.591  17.733  29.390  1.00  0.00     0.210 HD
ENDBRANCH  23  24
BRANCH  23  26
HETATM   26  C18 UNL     1      -9.961  16.194  28.411  1.00  0.00     0.307 C 
BRANCH  26  27
HETATM   27  N2  UNL     1     -10.355  14.817  28.212  1.00  0.00     0.105 N 
HETATM   28  C19 UNL     1     -11.493  14.818  27.331  1.00  0.00     0.278 C 
HETATM   29  C20 UNL     1     -12.390  13.652  27.354  1.00  0.00     0.018 C 
HETATM   30  C21 UNL     1     -11.987  12.678  26.236  1.00  0.00     0.007 C 
HETATM   31  C25 UNL     1     -12.523  12.953  28.666  1.00  0.00    -0.006 C 
HETATM   32  C22 UNL     1     -13.068  11.618  26.203  1.00  0.00     0.000 C 
HETATM   33  C23 UNL     1     -12.863  10.772  27.463  1.00  0.00     0.000 C 
HETATM   34  C24 UNL     1     -13.221  11.655  28.626  1.00  0.00     0.005 C 
HETATM   35  C26 UNL     1     -11.138  12.837  29.293  1.00  0.00     0.050 C 
HETATM   36  C27 UNL     1     -10.726  14.304  29.503  1.00  0.00     0.314 C 
BRANCH  36  37
HETATM   37  C28 UNL     1      -9.701  14.299  30.526  1.00  0.00     0.252 C 
HETATM   38  O4  UNL     1      -8.557  13.821  30.369  1.00  0.00    -0.271 OA
HETATM   39  N3  UNL     1      -9.969  14.865  31.820  1.00  0.00    -0.351 N 
ATOM     40  H3  UNL     1     -10.889  15.268  32.000  1.00  0.00     0.163 HD
BRANCH  39  41
HETATM   41  C29 UNL     1      -8.983  14.883  32.873  1.00  0.00     0.022 C 
HETATM   42  C30 UNL     1      -9.681  15.229  34.172  1.00  0.00     0.037 C 
HETATM   43  C31 UNL     1      -8.332  13.528  33.068  1.00  0.00     0.037 C 
HETATM   44  C32 UNL     1      -7.907  15.920  32.652  1.00  0.00     0.037 C 
ENDBRANCH  39  41
ENDBRANCH  36  37
ENDBRANCH  26  27
ENDBRANCH  23  26
ENDBRANCH   1  23
TORSDOF 12
ENDMDL
