MODEL 2
REMARK VINA RESULT: -10.535351423      1.941      9.784
REMARK  12 active torsions:
REMARK  status: ('A' for Active; 'I' for Inactive)
REMARK    1  A    between atoms: C3_3  and  O1_4 
REMARK    2  A    between atoms: C7_9  and  C8_10 
REMARK       I    between atoms: C8_10  and  N1_12 
REMARK    3  A    between atoms: N1_12  and  C9_14 
REMARK    4  A    between atoms: C9_14  and  C10_15 
REMARK    5  A    between atoms: C9_14  and  C17_23 
REMARK    6  A    between atoms: C10_15  and  S1_16 
REMARK    7  A    between atoms: S1_16  and  C11_17 
REMARK    8  A    between atoms: C17_23  and  O3_24 
REMARK    9  A    between atoms: C17_23  and  C18_26 
REMARK   10  A    between atoms: C18_26  and  N2_27 
REMARK   11  A    between atoms: C27_36  and  C28_37 
REMARK       I    between atoms: C28_37  and  N3_39 
REMARK   12  A    between atoms: N3_39  and  C29_41 
ROOT
HETATM    1  C9  UNL     1      -8.083  16.281  26.485  1.00  0.00     0.124 C 
ENDROOT
BRANCH   1   2
HETATM    2  N1  UNL     1      -7.787  16.598  25.127  1.00  0.00    -0.349 N 
HETATM    3  C8  UNL     1      -7.480  15.659  24.114  1.00  0.00     0.252 C 
HETATM    4  O2  UNL     1      -7.457  14.426  24.420  1.00  0.00    -0.268 OA
ATOM      5  H1  UNL     1      -7.797  17.584  24.863  1.00  0.00     0.163 HD
BRANCH   3   6
HETATM    6  C7  UNL     1      -7.193  16.084  22.740  1.00  0.00     0.040 A 
HETATM    7  C2  UNL     1      -8.132  15.822  21.773  1.00  0.00    -0.013 A 
HETATM    8  C1  UNL     1      -9.417  15.151  22.047  1.00  0.00     0.052 C 
HETATM    9  C3  UNL     1      -7.840  16.225  20.473  1.00  0.00     0.072 A 
HETATM   10  C4  UNL     1      -6.662  16.867  20.137  1.00  0.00     0.037 A 
HETATM   11  C5  UNL     1      -5.747  17.117  21.115  1.00  0.00     0.004 A 
HETATM   12  C6  UNL     1      -6.016  16.720  22.427  1.00  0.00     0.018 A 
BRANCH   9  13
HETATM   13  O1  UNL     1      -8.733  15.994  19.458  1.00  0.00    -0.360 OA
ATOM     14  H1  UNL     1      -8.481  16.137  18.554  1.00  0.00     0.217 HD
ENDBRANCH   9  13
ENDBRANCH   3   6
ENDBRANCH   1   2
BRANCH   1  15
HETATM   15  C10 UNL     1      -7.157  17.073  27.419  1.00  0.00     0.107 C 
BRANCH  15  16
HETATM   16  S1  UNL     1      -5.511  16.329  27.526  1.00  0.00    -0.128 SA
BRANCH  16  17
HETATM   17  C11 UNL     1      -4.524  16.928  26.169  1.00  0.00     0.000 A 
HETATM   18  C12 UNL     1      -4.638  18.246  25.727  1.00  0.00     0.018 A 
HETATM   19  C13 UNL     1      -3.890  18.738  24.684  1.00  0.00     0.001 A 
HETATM   20  C14 UNL     1      -2.987  17.925  24.035  1.00  0.00     0.000 A 
HETATM   21  C15 UNL     1      -2.859  16.622  24.453  1.00  0.00     0.001 A 
HETATM   22  C16 UNL     1      -3.626  16.129  25.518  1.00  0.00     0.018 A 
ENDBRANCH  16  17
ENDBRANCH  15  16
ENDBRANCH   1  15
BRANCH   1  23
HETATM   23  C17 UNL     1      -9.530  16.596  26.823  1.00  0.00     0.170 C 
BRANCH  23  24
HETATM   24  O3  UNL     1      -9.865  17.902  26.590  1.00  0.00    -0.392 OA
ATOM     25  H3  UNL     1     -10.278  18.322  27.337  1.00  0.00     0.210 HD
ENDBRANCH  23  24
BRANCH  23  26
HETATM   26  C18 UNL     1     -10.000  16.047  28.130  1.00  0.00     0.307 C 
BRANCH  26  27
HETATM   27  N2  UNL     1     -10.465  14.678  28.105  1.00  0.00     0.105 N 
HETATM   28  C19 UNL     1     -11.695  14.655  27.359  1.00  0.00     0.278 C 
HETATM   29  C20 UNL     1     -12.627  13.540  27.590  1.00  0.00     0.018 C 
HETATM   30  C21 UNL     1     -12.391  12.452  26.531  1.00  0.00     0.007 C 
HETATM   31  C25 UNL     1     -12.634  12.967  28.969  1.00  0.00    -0.006 C 
HETATM   32  C22 UNL     1     -13.506  11.446  26.716  1.00  0.00     0.000 C 
HETATM   33  C23 UNL     1     -13.190  10.706  28.019  1.00  0.00     0.000 C 
HETATM   34  C24 UNL     1     -13.380  11.705  29.127  1.00  0.00     0.005 C 
HETATM   35  C26 UNL     1     -11.192  12.841  29.447  1.00  0.00     0.050 C 
HETATM   36  C27 UNL     1     -10.705  14.301  29.472  1.00  0.00     0.314 C 
BRANCH  36  37
HETATM   37  C28 UNL     1      -9.571  14.337  30.372  1.00  0.00     0.252 C 
HETATM   38  O4  UNL     1      -8.475  13.784  30.140  1.00  0.00    -0.271 OA
HETATM   39  N3  UNL     1      -9.663  15.040  31.622  1.00  0.00    -0.351 N 
ATOM     40  H3  UNL     1     -10.537  15.510  31.859  1.00  0.00     0.163 HD
BRANCH  39  41
HETATM   41  C29 UNL     1      -8.563  15.106  32.553  1.00  0.00     0.022 C 
HETATM   42  C30 UNL     1      -9.085  15.642  33.869  1.00  0.00     0.037 C 
HETATM   43  C31 UNL     1      -7.974  13.738  32.836  1.00  0.00     0.037 C 
HETATM   44  C32 UNL     1      -7.461  16.033  32.097  1.00  0.00     0.037 C 
ENDBRANCH  39  41
ENDBRANCH  36  37
ENDBRANCH  26  27
ENDBRANCH  23  26
ENDBRANCH   1  23
TORSDOF 12
ENDMDL
