MODEL 5
REMARK VINA RESULT: -10.239286911      0.658      1.306
REMARK  12 active torsions:
REMARK  status: ('A' for Active; 'I' for Inactive)
REMARK    1  A    between atoms: C3_3  and  O1_4 
REMARK    2  A    between atoms: C7_9  and  C8_10 
REMARK       I    between atoms: C8_10  and  N1_12 
REMARK    3  A    between atoms: N1_12  and  C9_14 
REMARK    4  A    between atoms: C9_14  and  C10_15 
REMARK    5  A    between atoms: C9_14  and  C17_23 
REMARK    6  A    between atoms: C10_15  and  S1_16 
REMARK    7  A    between atoms: S1_16  and  C11_17 
REMARK    8  A    between atoms: C17_23  and  O3_24 
REMARK    9  A    between atoms: C17_23  and  C18_26 
REMARK   10  A    between atoms: C18_26  and  N2_27 
REMARK   11  A    between atoms: C27_36  and  C28_37 
REMARK       I    between atoms: C28_37  and  N3_39 
REMARK   12  A    between atoms: N3_39  and  C29_41 
ROOT
HETATM    1  C9  UNL     1     -10.065  15.280  27.909  1.00  0.00     0.124 C 
ENDROOT
BRANCH   1   2
HETATM    2  N1  UNL     1     -10.039  15.388  29.330  1.00  0.00    -0.349 N 
HETATM    3  C8  UNL     1      -9.261  14.589  30.199  1.00  0.00     0.252 C 
HETATM    4  O2  UNL     1      -8.519  13.690  29.692  1.00  0.00    -0.268 OA
ATOM      5  H1  UNL     1     -10.631  16.102  29.756  1.00  0.00     0.163 HD
BRANCH   3   6
HETATM    6  C7  UNL     1      -9.298  14.780  31.653  1.00  0.00     0.040 A 
HETATM    7  C2  UNL     1     -10.339  14.221  32.352  1.00  0.00    -0.013 A 
HETATM    8  C1  UNL     1     -11.410  13.426  31.721  1.00  0.00     0.052 C 
HETATM    9  C3  UNL     1     -10.363  14.418  33.730  1.00  0.00     0.072 A 
HETATM   10  C4  UNL     1      -9.392  15.143  34.397  1.00  0.00     0.037 A 
HETATM   11  C5  UNL     1      -8.368  15.687  33.680  1.00  0.00     0.004 A 
HETATM   12  C6  UNL     1      -8.323  15.504  32.297  1.00  0.00     0.018 A 
BRANCH   9  13
HETATM   13  O1  UNL     1     -11.375  13.889  34.489  1.00  0.00    -0.360 OA
ATOM     14  H1  UNL     1     -11.946  14.457  34.992  1.00  0.00     0.217 HD
ENDBRANCH   9  13
ENDBRANCH   3   6
ENDBRANCH   1   2
BRANCH   1  15
HETATM   15  C10 UNL     1     -11.464  14.848  27.445  1.00  0.00     0.107 C 
BRANCH  15  16
HETATM   16  S1  UNL     1     -11.500  13.112  26.935  1.00  0.00    -0.128 SA
BRANCH  16  17
HETATM   17  C11 UNL     1     -12.428  12.183  28.138  1.00  0.00     0.000 A 
HETATM   18  C12 UNL     1     -13.556  12.729  28.751  1.00  0.00     0.018 A 
HETATM   19  C13 UNL     1     -14.293  12.036  29.681  1.00  0.00     0.001 A 
HETATM   20  C14 UNL     1     -13.931  10.756  30.040  1.00  0.00     0.000 A 
HETATM   21  C15 UNL     1     -12.823  10.199  29.449  1.00  0.00     0.001 A 
HETATM   22  C16 UNL     1     -12.076  10.912  28.501  1.00  0.00     0.018 A 
ENDBRANCH  16  17
ENDBRANCH  15  16
ENDBRANCH   1  15
BRANCH   1  23
HETATM   23  C17 UNL     1      -9.698  16.596  27.247  1.00  0.00     0.170 C 
BRANCH  23  24
HETATM   24  O3  UNL     1     -10.697  17.530  27.313  1.00  0.00    -0.392 OA
ATOM     25  H3  UNL     1     -10.517  18.228  27.932  1.00  0.00     0.210 HD
ENDBRANCH  23  24
BRANCH  23  26
HETATM   26  C18 UNL     1      -9.047  16.463  25.909  1.00  0.00     0.307 C 
BRANCH  26  27
HETATM   27  N2  UNL     1      -7.621  16.225  25.926  1.00  0.00     0.105 N 
HETATM   28  C19 UNL     1      -7.023  17.259  26.729  1.00  0.00     0.278 C 
HETATM   29  C20 UNL     1      -5.599  17.566  26.519  1.00  0.00     0.018 C 
HETATM   30  C21 UNL     1      -4.755  16.790  27.542  1.00  0.00     0.007 C 
HETATM   31  C25 UNL     1      -5.086  17.375  25.130  1.00  0.00    -0.006 C 
HETATM   32  C22 UNL     1      -3.341  17.309  27.388  1.00  0.00     0.000 C 
HETATM   33  C23 UNL     1      -2.833  16.750  26.055  1.00  0.00     0.000 C 
HETATM   34  C24 UNL     1      -3.621  17.445  24.980  1.00  0.00     0.005 C 
HETATM   35  C26 UNL     1      -5.654  16.070  24.581  1.00  0.00     0.050 C 
HETATM   36  C27 UNL     1      -7.171  16.330  24.565  1.00  0.00     0.314 C 
BRANCH  36  37
HETATM   37  C28 UNL     1      -7.735  15.397  23.613  1.00  0.00     0.252 C 
HETATM   38  O4  UNL     1      -7.829  14.166  23.810  1.00  0.00    -0.271 OA
HETATM   39  N3  UNL     1      -8.230  15.865  22.348  1.00  0.00    -0.351 N 
ATOM     40  H3  UNL     1      -8.177  16.862  22.137  1.00  0.00     0.163 HD
BRANCH  39  41
HETATM   41  C29 UNL     1      -8.800  14.975  21.365  1.00  0.00     0.022 C 
HETATM   42  C30 UNL     1      -9.005  15.752  20.082  1.00  0.00     0.037 C 
HETATM   43  C31 UNL     1      -7.876  13.819  21.038  1.00  0.00     0.037 C 
HETATM   44  C32 UNL     1     -10.147  14.429  21.779  1.00  0.00     0.037 C 
ENDBRANCH  39  41
ENDBRANCH  36  37
ENDBRANCH  26  27
ENDBRANCH  23  26
ENDBRANCH   1  23
TORSDOF 12
ENDMDL
