MODEL 3
REMARK VINA RESULT: -10.265647370      1.870      9.745
REMARK  12 active torsions:
REMARK  status: ('A' for Active; 'I' for Inactive)
REMARK    1  A    between atoms: C3_3  and  O1_4 
REMARK    2  A    between atoms: C7_9  and  C8_10 
REMARK       I    between atoms: C8_10  and  N1_12 
REMARK    3  A    between atoms: N1_12  and  C9_14 
REMARK    4  A    between atoms: C9_14  and  C10_15 
REMARK    5  A    between atoms: C9_14  and  C17_23 
REMARK    6  A    between atoms: C10_15  and  S1_16 
REMARK    7  A    between atoms: S1_16  and  C11_17 
REMARK    8  A    between atoms: C17_23  and  O3_24 
REMARK    9  A    between atoms: C17_23  and  C18_26 
REMARK   10  A    between atoms: C18_26  and  N2_27 
REMARK   11  A    between atoms: C27_36  and  C28_37 
REMARK       I    between atoms: C28_37  and  N3_39 
REMARK   12  A    between atoms: N3_39  and  C29_41 
ROOT
HETATM    1  C9  UNL     1      -8.513  16.072  26.574  1.00  0.00     0.124 C 
ENDROOT
BRANCH   1   2
HETATM    2  N1  UNL     1      -8.683  16.161  25.161  1.00  0.00    -0.349 N 
HETATM    3  C8  UNL     1      -8.399  15.130  24.235  1.00  0.00     0.252 C 
HETATM    4  O2  UNL     1      -7.951  14.026  24.677  1.00  0.00    -0.268 OA
ATOM      5  H1  UNL     1      -9.039  17.041  24.787  1.00  0.00     0.163 HD
BRANCH   3   6
HETATM    6  C7  UNL     1      -8.613  15.316  22.796  1.00  0.00     0.040 A 
HETATM    7  C2  UNL     1      -7.700  16.070  22.100  1.00  0.00    -0.013 A 
HETATM    8  C1  UNL     1      -6.511  16.687  22.719  1.00  0.00     0.052 C 
HETATM    9  C3  UNL     1      -7.921  16.242  20.736  1.00  0.00     0.072 A 
HETATM   10  C4  UNL     1      -9.006  15.689  20.080  1.00  0.00     0.037 A 
HETATM   11  C5  UNL     1      -9.897  14.945  20.793  1.00  0.00     0.004 A 
HETATM   12  C6  UNL     1      -9.697  14.758  22.163  1.00  0.00     0.018 A 
BRANCH   9  13
HETATM   13  O1  UNL     1      -7.050  16.984  19.980  1.00  0.00    -0.360 OA
ATOM     14  H1  UNL     1      -7.346  17.773  19.542  1.00  0.00     0.217 HD
ENDBRANCH   9  13
ENDBRANCH   3   6
ENDBRANCH   1   2
BRANCH   1  15
HETATM   15  C10 UNL     1      -7.501  17.126  27.044  1.00  0.00     0.107 C 
BRANCH  15  16
HETATM   16  S1  UNL     1      -5.857  16.416  27.303  1.00  0.00    -0.128 SA
BRANCH  16  17
HETATM   17  C11 UNL     1      -4.768  17.018  26.028  1.00  0.00     0.000 A 
HETATM   18  C12 UNL     1      -3.809  16.185  25.451  1.00  0.00     0.018 A 
HETATM   19  C13 UNL     1      -2.956  16.620  24.465  1.00  0.00     0.001 A 
HETATM   20  C14 UNL     1      -3.028  17.918  24.010  1.00  0.00     0.000 A 
HETATM   21  C15 UNL     1      -3.965  18.756  24.564  1.00  0.00     0.001 A 
HETATM   22  C16 UNL     1      -4.831  18.304  25.569  1.00  0.00     0.018 A 
ENDBRANCH  16  17
ENDBRANCH  15  16
ENDBRANCH   1  15
BRANCH   1  23
HETATM   23  C17 UNL     1      -9.829  16.275  27.303  1.00  0.00     0.170 C 
BRANCH  23  24
HETATM   24  O3  UNL     1     -10.291  17.561  27.233  1.00  0.00    -0.392 OA
ATOM     25  H3  UNL     1      -9.596  18.208  27.197  1.00  0.00     0.210 HD
ENDBRANCH  23  24
BRANCH  23  26
HETATM   26  C18 UNL     1      -9.894  15.655  28.661  1.00  0.00     0.307 C 
BRANCH  26  27
HETATM   27  N2  UNL     1     -10.503  14.345  28.724  1.00  0.00     0.105 N 
HETATM   28  C19 UNL     1     -11.401  14.234  27.605  1.00  0.00     0.278 C 
HETATM   29  C20 UNL     1     -12.497  13.256  27.689  1.00  0.00     0.018 C 
HETATM   30  C21 UNL     1     -12.066  11.949  27.004  1.00  0.00     0.007 C 
HETATM   31  C25 UNL     1     -13.046  13.001  29.054  1.00  0.00    -0.006 C 
HETATM   32  C22 UNL     1     -13.304  11.079  26.960  1.00  0.00     0.000 C 
HETATM   33  C23 UNL     1     -13.548  10.626  28.402  1.00  0.00     0.000 C 
HETATM   34  C24 UNL     1     -13.964  11.853  29.165  1.00  0.00     0.005 C 
HETATM   35  C26 UNL     1     -11.880  12.896  30.031  1.00  0.00     0.050 C 
HETATM   36  C27 UNL     1     -11.238  14.293  29.959  1.00  0.00     0.314 C 
BRANCH  36  37
HETATM   37  C28 UNL     1     -10.480  14.457  31.181  1.00  0.00     0.252 C 
HETATM   38  O4  UNL     1     -10.826  15.200  32.125  1.00  0.00    -0.271 OA
HETATM   39  N3  UNL     1      -9.246  13.744  31.368  1.00  0.00    -0.351 N 
ATOM     40  H3  UNL     1      -8.918  13.124  30.627  1.00  0.00     0.163 HD
BRANCH  39  41
HETATM   41  C29 UNL     1      -8.454  13.874  32.567  1.00  0.00     0.022 C 
HETATM   42  C30 UNL     1      -7.239  12.981  32.434  1.00  0.00     0.037 C 
HETATM   43  C31 UNL     1      -7.943  15.288  32.763  1.00  0.00     0.037 C 
HETATM   44  C32 UNL     1      -9.195  13.441  33.811  1.00  0.00     0.037 C 
ENDBRANCH  39  41
ENDBRANCH  36  37
ENDBRANCH  26  27
ENDBRANCH  23  26
ENDBRANCH   1  23
TORSDOF 12
ENDMDL
