MODEL 4
REMARK VINA RESULT: -10.253647356      2.487      7.401
REMARK  12 active torsions:
REMARK  status: ('A' for Active; 'I' for Inactive)
REMARK    1  A    between atoms: C3_3  and  O1_4 
REMARK    2  A    between atoms: C7_9  and  C8_10 
REMARK       I    between atoms: C8_10  and  N1_12 
REMARK    3  A    between atoms: N1_12  and  C9_14 
REMARK    4  A    between atoms: C9_14  and  C10_15 
REMARK    5  A    between atoms: C9_14  and  C17_23 
REMARK    6  A    between atoms: C10_15  and  S1_16 
REMARK    7  A    between atoms: S1_16  and  C11_17 
REMARK    8  A    between atoms: C17_23  and  O3_24 
REMARK    9  A    between atoms: C17_23  and  C18_26 
REMARK   10  A    between atoms: C18_26  and  N2_27 
REMARK   11  A    between atoms: C27_36  and  C28_37 
REMARK       I    between atoms: C28_37  and  N3_39 
REMARK   12  A    between atoms: N3_39  and  C29_41 
ROOT
HETATM    1  C9  UNL     1      -6.814  15.230  28.587  1.00  0.00     0.124 C 
ENDROOT
BRANCH   1   2
HETATM    2  N1  UNL     1      -6.123  15.770  27.462  1.00  0.00    -0.349 N 
HETATM    3  C8  UNL     1      -4.866  16.417  27.506  1.00  0.00     0.252 C 
HETATM    4  O2  UNL     1      -4.288  16.541  28.631  1.00  0.00    -0.268 OA
ATOM      5  H1  UNL     1      -6.573  15.683  26.551  1.00  0.00     0.163 HD
BRANCH   3   6
HETATM    6  C7  UNL     1      -4.232  16.937  26.289  1.00  0.00     0.040 A 
HETATM    7  C2  UNL     1      -4.821  18.008  25.662  1.00  0.00    -0.013 A 
HETATM    8  C1  UNL     1      -6.044  18.670  26.155  1.00  0.00     0.052 C 
HETATM    9  C3  UNL     1      -4.210  18.485  24.505  1.00  0.00     0.072 A 
HETATM   10  C4  UNL     1      -3.057  17.925  23.984  1.00  0.00     0.037 A 
HETATM   11  C5  UNL     1      -2.493  16.864  24.626  1.00  0.00     0.004 A 
HETATM   12  C6  UNL     1      -3.088  16.367  25.788  1.00  0.00     0.018 A 
BRANCH   9  13
HETATM   13  O1  UNL     1      -4.744  19.551  23.827  1.00  0.00    -0.360 OA
ATOM     14  H1  UNL     1      -5.013  19.458  22.921  1.00  0.00     0.217 HD
ENDBRANCH   9  13
ENDBRANCH   3   6
ENDBRANCH   1   2
BRANCH   1  15
HETATM   15  C10 UNL     1      -7.504  16.358  29.366  1.00  0.00     0.107 C 
BRANCH  15  16
HETATM   16  S1  UNL     1      -7.128  16.287  31.134  1.00  0.00    -0.128 SA
BRANCH  16  17
HETATM   17  C11 UNL     1      -8.524  15.583  31.988  1.00  0.00     0.000 A 
HETATM   18  C12 UNL     1      -8.595  15.601  33.381  1.00  0.00     0.018 A 
HETATM   19  C13 UNL     1      -9.660  15.068  34.068  1.00  0.00     0.001 A 
HETATM   20  C14 UNL     1     -10.708  14.490  33.384  1.00  0.00     0.000 A 
HETATM   21  C15 UNL     1     -10.658  14.462  32.011  1.00  0.00     0.001 A 
HETATM   22  C16 UNL     1      -9.568  15.008  31.319  1.00  0.00     0.018 A 
ENDBRANCH  16  17
ENDBRANCH  15  16
ENDBRANCH   1  15
BRANCH   1  23
HETATM   23  C17 UNL     1      -7.848  14.204  28.160  1.00  0.00     0.170 C 
BRANCH  23  24
HETATM   24  O3  UNL     1      -7.295  13.058  27.656  1.00  0.00    -0.392 OA
ATOM     25  H3  UNL     1      -6.883  12.517  28.320  1.00  0.00     0.210 HD
ENDBRANCH  23  24
BRANCH  23  26
HETATM   26  C18 UNL     1      -8.985  14.758  27.364  1.00  0.00     0.307 C 
BRANCH  26  27
HETATM   27  N2  UNL     1      -9.062  14.316  25.989  1.00  0.00     0.105 N 
HETATM   28  C19 UNL     1      -8.566  15.387  25.165  1.00  0.00     0.278 C 
HETATM   29  C20 UNL     1      -8.982  15.427  23.754  1.00  0.00     0.018 C 
HETATM   30  C21 UNL     1      -7.907  14.752  22.888  1.00  0.00     0.007 C 
HETATM   31  C25 UNL     1     -10.341  14.888  23.456  1.00  0.00    -0.006 C 
HETATM   32  C22 UNL     1      -8.312  15.009  21.452  1.00  0.00     0.000 C 
HETATM   33  C23 UNL     1      -9.537  14.126  21.199  1.00  0.00     0.000 C 
HETATM   34  C24 UNL     1     -10.652  14.704  22.026  1.00  0.00     0.005 C 
HETATM   35  C26 UNL     1     -10.536  13.601  24.251  1.00  0.00     0.050 C 
HETATM   36  C27 UNL     1     -10.453  14.078  25.712  1.00  0.00     0.314 C 
BRANCH  36  37
HETATM   37  C28 UNL     1     -11.119  13.070  26.509  1.00  0.00     0.252 C 
HETATM   38  O4  UNL     1     -10.759  11.874  26.569  1.00  0.00    -0.271 OA
HETATM   39  N3  UNL     1     -12.269  13.416  27.297  1.00  0.00    -0.351 N 
ATOM     40  H3  UNL     1     -12.604  14.379  27.284  1.00  0.00     0.163 HD
BRANCH  39  41
HETATM   41  C29 UNL     1     -12.968  12.448  28.108  1.00  0.00     0.022 C 
HETATM   42  C30 UNL     1     -14.236  13.091  28.629  1.00  0.00     0.037 C 
HETATM   43  C31 UNL     1     -13.387  11.230  27.308  1.00  0.00     0.037 C 
HETATM   44  C32 UNL     1     -12.168  11.998  29.308  1.00  0.00     0.037 C 
ENDBRANCH  39  41
ENDBRANCH  36  37
ENDBRANCH  26  27
ENDBRANCH  23  26
ENDBRANCH   1  23
TORSDOF 12
ENDMDL
