MODEL 1
REMARK VINA RESULT: -10.588766138      0.000      0.000
REMARK  12 active torsions:
REMARK  status: ('A' for Active; 'I' for Inactive)
REMARK    1  A    between atoms: C3_3  and  O1_4 
REMARK    2  A    between atoms: C7_9  and  C8_10 
REMARK       I    between atoms: C8_10  and  N1_12 
REMARK    3  A    between atoms: N1_12  and  C9_14 
REMARK    4  A    between atoms: C9_14  and  C10_15 
REMARK    5  A    between atoms: C9_14  and  C17_23 
REMARK    6  A    between atoms: C10_15  and  S1_16 
REMARK    7  A    between atoms: S1_16  and  C11_17 
REMARK    8  A    between atoms: C17_23  and  O3_24 
REMARK    9  A    between atoms: C17_23  and  C18_26 
REMARK   10  A    between atoms: C18_26  and  N2_27 
REMARK   11  A    between atoms: C27_36  and  C28_37 
REMARK       I    between atoms: C28_37  and  N3_39 
REMARK   12  A    between atoms: N3_39  and  C29_41 
ROOT
HETATM    1  C9  UNL     1     -10.101  15.128  27.516  1.00  0.00     0.124 C 
ENDROOT
BRANCH   1   2
HETATM    2  N1  UNL     1     -10.542  15.008  28.868  1.00  0.00    -0.349 N 
HETATM    3  C8  UNL     1      -9.958  14.174  29.849  1.00  0.00     0.252 C 
HETATM    4  O2  UNL     1      -8.960  13.460  29.520  1.00  0.00    -0.268 OA
ATOM      5  H1  UNL     1     -11.344  15.572  29.149  1.00  0.00     0.163 HD
BRANCH   3   6
HETATM    6  C7  UNL     1     -10.482  14.123  31.218  1.00  0.00     0.040 A 
HETATM    7  C2  UNL     1      -9.795  14.797  32.198  1.00  0.00    -0.013 A 
HETATM    8  C1  UNL     1      -8.570  15.580  31.943  1.00  0.00     0.052 C 
HETATM    9  C3  UNL     1     -10.302  14.733  33.493  1.00  0.00     0.072 A 
HETATM   10  C4  UNL     1     -11.449  14.028  33.812  1.00  0.00     0.037 A 
HETATM   11  C5  UNL     1     -12.112  13.369  32.821  1.00  0.00     0.004 A 
HETATM   12  C6  UNL     1     -11.623  13.417  31.514  1.00  0.00     0.018 A 
BRANCH   9  13
HETATM   13  O1  UNL     1      -9.665  15.382  34.520  1.00  0.00    -0.360 OA
ATOM     14  H1  UNL     1      -9.930  15.233  35.420  1.00  0.00     0.217 HD
ENDBRANCH   9  13
ENDBRANCH   3   6
ENDBRANCH   1   2
BRANCH   1  15
HETATM   15  C10 UNL     1     -11.214  14.671  26.563  1.00  0.00     0.107 C 
BRANCH  15  16
HETATM   16  S1  UNL     1     -11.304  12.868  26.446  1.00  0.00    -0.128 SA
BRANCH  16  17
HETATM   17  C11 UNL     1     -12.370  12.264  27.740  1.00  0.00     0.000 A 
HETATM   18  C12 UNL     1     -13.498  12.985  28.134  1.00  0.00     0.018 A 
HETATM   19  C13 UNL     1     -14.340  12.544  29.127  1.00  0.00     0.001 A 
HETATM   20  C14 UNL     1     -14.088  11.354  29.773  1.00  0.00     0.000 A 
HETATM   21  C15 UNL     1     -12.982  10.628  29.401  1.00  0.00     0.001 A 
HETATM   22  C16 UNL     1     -12.129  11.085  28.387  1.00  0.00     0.018 A 
ENDBRANCH  16  17
ENDBRANCH  15  16
ENDBRANCH   1  15
BRANCH   1  23
HETATM   23  C17 UNL     1      -9.710  16.558  27.188  1.00  0.00     0.170 C 
BRANCH  23  24
HETATM   24  O3  UNL     1     -10.710  17.460  27.429  1.00  0.00    -0.392 OA
ATOM     25  H3  UNL     1     -10.452  18.156  28.022  1.00  0.00     0.210 HD
ENDBRANCH  23  24
BRANCH  23  26
HETATM   26  C18 UNL     1      -9.010  16.729  25.879  1.00  0.00     0.307 C 
BRANCH  26  27
HETATM   27  N2  UNL     1      -7.600  16.406  25.874  1.00  0.00     0.105 N 
HETATM   28  C19 UNL     1      -6.919  17.447  26.598  1.00  0.00     0.278 C 
HETATM   29  C20 UNL     1      -5.486  17.653  26.333  1.00  0.00     0.018 C 
HETATM   30  C21 UNL     1      -4.660  16.890  27.379  1.00  0.00     0.007 C 
HETATM   31  C25 UNL     1      -5.025  17.349  24.946  1.00  0.00    -0.006 C 
HETATM   32  C22 UNL     1      -3.223  17.310  27.159  1.00  0.00     0.000 C 
HETATM   33  C23 UNL     1      -2.788  16.644  25.850  1.00  0.00     0.000 C 
HETATM   34  C24 UNL     1      -3.564  17.321  24.754  1.00  0.00     0.005 C 
HETATM   35  C26 UNL     1      -5.686  16.052  24.491  1.00  0.00     0.050 C 
HETATM   36  C27 UNL     1      -7.184  16.403  24.498  1.00  0.00     0.314 C 
BRANCH  36  37
HETATM   37  C28 UNL     1      -7.830  15.450  23.619  1.00  0.00     0.252 C 
HETATM   38  O4  UNL     1      -8.059  14.260  23.924  1.00  0.00    -0.271 OA
HETATM   39  N3  UNL     1      -8.251  15.850  22.305  1.00  0.00    -0.351 N 
ATOM     40  H3  UNL     1      -8.088  16.812  22.007  1.00  0.00     0.163 HD
BRANCH  39  41
HETATM   41  C29 UNL     1      -8.898  14.939  21.392  1.00  0.00     0.022 C 
HETATM   42  C30 UNL     1      -9.074  15.644  20.063  1.00  0.00     0.037 C 
HETATM   43  C31 UNL     1      -8.060  13.704  21.129  1.00  0.00     0.037 C 
HETATM   44  C32 UNL     1     -10.271  14.514  21.859  1.00  0.00     0.037 C 
ENDBRANCH  39  41
ENDBRANCH  36  37
ENDBRANCH  26  27
ENDBRANCH  23  26
ENDBRANCH   1  23
TORSDOF 12
ENDMDL
