MODEL 3
REMARK VINA RESULT: -10.454083638      1.985      9.711
REMARK  12 active torsions:
REMARK  status: ('A' for Active; 'I' for Inactive)
REMARK    1  A    between atoms: C3_3  and  O1_4 
REMARK    2  A    between atoms: C7_9  and  C8_10 
REMARK       I    between atoms: C8_10  and  N1_12 
REMARK    3  A    between atoms: N1_12  and  C9_14 
REMARK    4  A    between atoms: C9_14  and  C10_15 
REMARK    5  A    between atoms: C9_14  and  C17_23 
REMARK    6  A    between atoms: C10_15  and  S1_16 
REMARK    7  A    between atoms: S1_16  and  C11_17 
REMARK    8  A    between atoms: C17_23  and  O3_24 
REMARK    9  A    between atoms: C17_23  and  C18_26 
REMARK   10  A    between atoms: C18_26  and  N2_27 
REMARK   11  A    between atoms: C27_36  and  C28_37 
REMARK       I    between atoms: C28_37  and  N3_39 
REMARK   12  A    between atoms: N3_39  and  C29_41 
ROOT
HETATM    1  C9  UNL     1     -10.317  15.938  27.970  1.00  0.00     0.124 C 
ENDROOT
BRANCH   1   2
HETATM    2  N1  UNL     1     -10.146  15.893  29.385  1.00  0.00    -0.349 N 
HETATM    3  C8  UNL     1      -9.681  14.777  30.119  1.00  0.00     0.252 C 
HETATM    4  O2  UNL     1      -9.390  13.715  29.485  1.00  0.00    -0.268 OA
ATOM      5  H1  UNL     1     -10.378  16.736  29.911  1.00  0.00     0.163 HD
BRANCH   3   6
HETATM    6  C7  UNL     1      -9.535  14.829  31.578  1.00  0.00     0.040 A 
HETATM    7  C2  UNL     1     -10.675  14.818  32.342  1.00  0.00    -0.013 A 
HETATM    8  C1  UNL     1     -12.035  14.741  31.776  1.00  0.00     0.052 C 
HETATM    9  C3  UNL     1     -10.518  14.876  33.725  1.00  0.00     0.072 A 
HETATM   10  C4  UNL     1      -9.277  14.941  34.333  1.00  0.00     0.037 A 
HETATM   11  C5  UNL     1      -8.161  14.949  33.551  1.00  0.00     0.004 A 
HETATM   12  C6  UNL     1      -8.293  14.893  32.162  1.00  0.00     0.018 A 
BRANCH   9  13
HETATM   13  O1  UNL     1     -11.614  14.870  34.549  1.00  0.00    -0.360 OA
ATOM     14  H1  UNL     1     -11.506  14.861  35.492  1.00  0.00     0.217 HD
ENDBRANCH   9  13
ENDBRANCH   3   6
ENDBRANCH   1   2
BRANCH   1  15
HETATM   15  C10 UNL     1     -11.783  15.658  27.613  1.00  0.00     0.107 C 
BRANCH  15  16
HETATM   16  S1  UNL     1     -12.045  13.932  27.139  1.00  0.00    -0.128 SA
BRANCH  16  17
HETATM   17  C11 UNL     1     -12.922  13.106  28.451  1.00  0.00     0.000 A 
HETATM   18  C12 UNL     1     -14.159  13.577  28.893  1.00  0.00     0.018 A 
HETATM   19  C13 UNL     1     -14.860  12.961  29.902  1.00  0.00     0.001 A 
HETATM   20  C14 UNL     1     -14.350  11.837  30.516  1.00  0.00     0.000 A 
HETATM   21  C15 UNL     1     -13.133  11.357  30.096  1.00  0.00     0.001 A 
HETATM   22  C16 UNL     1     -12.425  11.991  29.067  1.00  0.00     0.018 A 
ENDBRANCH  16  17
ENDBRANCH  15  16
ENDBRANCH   1  15
BRANCH   1  23
HETATM   23  C17 UNL     1      -9.909  17.288  27.407  1.00  0.00     0.170 C 
BRANCH  23  24
HETATM   24  O3  UNL     1     -10.904  18.224  27.476  1.00  0.00    -0.392 OA
ATOM     25  H3  UNL     1     -11.774  17.844  27.531  1.00  0.00     0.210 HD
ENDBRANCH  23  24
BRANCH  23  26
HETATM   26  C18 UNL     1      -9.188  17.228  26.100  1.00  0.00     0.307 C 
BRANCH  26  27
HETATM   27  N2  UNL     1      -7.780  16.908  26.173  1.00  0.00     0.105 N 
HETATM   28  C19 UNL     1      -7.140  17.954  26.926  1.00  0.00     0.278 C 
HETATM   29  C20 UNL     1      -5.695  18.160  26.738  1.00  0.00     0.018 C 
HETATM   30  C21 UNL     1      -4.926  17.403  27.832  1.00  0.00     0.007 C 
HETATM   31  C25 UNL     1      -5.160  17.849  25.379  1.00  0.00    -0.006 C 
HETATM   32  C22 UNL     1      -3.479  17.825  27.686  1.00  0.00     0.000 C 
HETATM   33  C23 UNL     1      -2.974  17.152  26.407  1.00  0.00     0.000 C 
HETATM   34  C24 UNL     1      -3.691  17.822  25.267  1.00  0.00     0.005 C 
HETATM   35  C26 UNL     1      -5.794  16.549  24.897  1.00  0.00     0.050 C 
HETATM   36  C27 UNL     1      -7.290  16.897  24.821  1.00  0.00     0.314 C 
BRANCH  36  37
HETATM   37  C28 UNL     1      -7.887  15.939  23.914  1.00  0.00     0.252 C 
HETATM   38  O4  UNL     1      -7.965  14.713  24.142  1.00  0.00    -0.271 OA
HETATM   39  N3  UNL     1      -8.436  16.377  22.660  1.00  0.00    -0.351 N 
ATOM     40  H3  UNL     1      -8.398  17.369  22.425  1.00  0.00     0.163 HD
BRANCH  39  41
HETATM   41  C29 UNL     1      -9.040  15.462  21.722  1.00  0.00     0.022 C 
HETATM   42  C30 UNL     1      -9.324  16.215  20.439  1.00  0.00     0.037 C 
HETATM   43  C31 UNL     1      -8.114  14.316  21.365  1.00  0.00     0.037 C 
HETATM   44  C32 UNL     1     -10.355  14.900  22.212  1.00  0.00     0.037 C 
ENDBRANCH  39  41
ENDBRANCH  36  37
ENDBRANCH  26  27
ENDBRANCH  23  26
ENDBRANCH   1  23
TORSDOF 12
ENDMDL
