MODEL 2
REMARK VINA RESULT: -10.796493790      2.006      9.793
REMARK  12 active torsions:
REMARK  status: ('A' for Active; 'I' for Inactive)
REMARK    1  A    between atoms: C3_3  and  O1_4 
REMARK    2  A    between atoms: C7_9  and  C8_10 
REMARK       I    between atoms: C8_10  and  N1_12 
REMARK    3  A    between atoms: N1_12  and  C9_14 
REMARK    4  A    between atoms: C9_14  and  C10_15 
REMARK    5  A    between atoms: C9_14  and  C17_23 
REMARK    6  A    between atoms: C10_15  and  S1_16 
REMARK    7  A    between atoms: S1_16  and  C11_17 
REMARK    8  A    between atoms: C17_23  and  O3_24 
REMARK    9  A    between atoms: C17_23  and  C18_26 
REMARK   10  A    between atoms: C18_26  and  N2_27 
REMARK   11  A    between atoms: C27_36  and  C28_37 
REMARK       I    between atoms: C28_37  and  N3_39 
REMARK   12  A    between atoms: N3_39  and  C29_41 
ROOT
HETATM    1  C9  UNL     1     -10.471  15.688  27.758  1.00  0.00     0.124 C 
ENDROOT
BRANCH   1   2
HETATM    2  N1  UNL     1     -10.899  15.566  29.113  1.00  0.00    -0.349 N 
HETATM    3  C8  UNL     1     -10.375  14.654  30.059  1.00  0.00     0.252 C 
HETATM    4  O2  UNL     1      -9.447  13.867  29.691  1.00  0.00    -0.268 OA
ATOM      5  H1  UNL     1     -11.646  16.187  29.426  1.00  0.00     0.163 HD
BRANCH   3   6
HETATM    6  C7  UNL     1     -10.880  14.606  31.436  1.00  0.00     0.040 A 
HETATM    7  C2  UNL     1     -10.169  15.267  32.407  1.00  0.00    -0.013 A 
HETATM    8  C1  UNL     1      -8.937  16.032  32.138  1.00  0.00     0.052 C 
HETATM    9  C3  UNL     1     -10.658  15.206  33.709  1.00  0.00     0.072 A 
HETATM   10  C4  UNL     1     -11.811  14.517  34.042  1.00  0.00     0.037 A 
HETATM   11  C5  UNL     1     -12.498  13.870  33.059  1.00  0.00     0.004 A 
HETATM   12  C6  UNL     1     -12.026  13.916  31.745  1.00  0.00     0.018 A 
BRANCH   9  13
HETATM   13  O1  UNL     1      -9.998  15.841  34.730  1.00  0.00    -0.360 OA
ATOM     14  H1  UNL     1     -10.403  16.570  35.184  1.00  0.00     0.217 HD
ENDBRANCH   9  13
ENDBRANCH   3   6
ENDBRANCH   1   2
BRANCH   1  15
HETATM   15  C10 UNL     1     -11.617  15.303  26.813  1.00  0.00     0.107 C 
BRANCH  15  16
HETATM   16  S1  UNL     1     -11.849  13.511  26.730  1.00  0.00    -0.128 SA
BRANCH  16  17
HETATM   17  C11 UNL     1     -12.987  13.022  28.010  1.00  0.00     0.000 A 
HETATM   18  C12 UNL     1     -14.006  13.879  28.429  1.00  0.00     0.018 A 
HETATM   19  C13 UNL     1     -14.900  13.530  29.413  1.00  0.00     0.001 A 
HETATM   20  C14 UNL     1     -14.813  12.298  30.024  1.00  0.00     0.000 A 
HETATM   21  C15 UNL     1     -13.817  11.439  29.628  1.00  0.00     0.001 A 
HETATM   22  C16 UNL     1     -12.909  11.803  28.623  1.00  0.00     0.018 A 
ENDBRANCH  16  17
ENDBRANCH  15  16
ENDBRANCH   1  15
BRANCH   1  23
HETATM   23  C17 UNL     1     -10.015  17.103  27.450  1.00  0.00     0.170 C 
BRANCH  23  24
HETATM   24  O3  UNL     1     -10.989  18.041  27.660  1.00  0.00    -0.392 OA
ATOM     25  H3  UNL     1     -10.645  18.885  27.928  1.00  0.00     0.210 HD
ENDBRANCH  23  24
BRANCH  23  26
HETATM   26  C18 UNL     1      -9.263  17.252  26.167  1.00  0.00     0.307 C 
BRANCH  26  27
HETATM   27  N2  UNL     1      -7.859  16.912  26.220  1.00  0.00     0.105 N 
HETATM   28  C19 UNL     1      -7.192  17.956  26.952  1.00  0.00     0.278 C 
HETATM   29  C20 UNL     1      -5.747  18.140  26.737  1.00  0.00     0.018 C 
HETATM   30  C21 UNL     1      -4.971  17.383  27.825  1.00  0.00     0.007 C 
HETATM   31  C25 UNL     1      -5.240  17.808  25.373  1.00  0.00    -0.006 C 
HETATM   32  C22 UNL     1      -3.521  17.783  27.652  1.00  0.00     0.000 C 
HETATM   33  C23 UNL     1      -3.047  17.090  26.371  1.00  0.00     0.000 C 
HETATM   34  C24 UNL     1      -3.773  17.759  25.236  1.00  0.00     0.005 C 
HETATM   35  C26 UNL     1      -5.900  16.512  24.915  1.00  0.00     0.050 C 
HETATM   36  C27 UNL     1      -7.392  16.881  24.861  1.00  0.00     0.314 C 
BRANCH  36  37
HETATM   37  C28 UNL     1      -8.018  15.923  23.973  1.00  0.00     0.252 C 
HETATM   38  O4  UNL     1      -8.166  14.711  24.243  1.00  0.00    -0.271 OA
HETATM   39  N3  UNL     1      -8.513  16.341  22.691  1.00  0.00    -0.351 N 
ATOM     40  H3  UNL     1      -8.417  17.321  22.421  1.00  0.00     0.163 HD
BRANCH  39  41
HETATM   41  C29 UNL     1      -9.143  15.425  21.771  1.00  0.00     0.022 C 
HETATM   42  C30 UNL     1      -9.348  16.141  20.453  1.00  0.00     0.037 C 
HETATM   43  C31 UNL     1      -8.275  14.216  21.486  1.00  0.00     0.037 C 
HETATM   44  C32 UNL     1     -10.500  14.958  22.243  1.00  0.00     0.037 C 
ENDBRANCH  39  41
ENDBRANCH  36  37
ENDBRANCH  26  27
ENDBRANCH  23  26
ENDBRANCH   1  23
TORSDOF 12
ENDMDL
