MODEL 4
REMARK VINA RESULT: -10.399552768      1.910      9.735
REMARK  12 active torsions:
REMARK  status: ('A' for Active; 'I' for Inactive)
REMARK    1  A    between atoms: C3_3  and  O1_4 
REMARK    2  A    between atoms: C7_9  and  C8_10 
REMARK       I    between atoms: C8_10  and  N1_12 
REMARK    3  A    between atoms: N1_12  and  C9_14 
REMARK    4  A    between atoms: C9_14  and  C10_15 
REMARK    5  A    between atoms: C9_14  and  C17_23 
REMARK    6  A    between atoms: C10_15  and  S1_16 
REMARK    7  A    between atoms: S1_16  and  C11_17 
REMARK    8  A    between atoms: C17_23  and  O3_24 
REMARK    9  A    between atoms: C17_23  and  C18_26 
REMARK   10  A    between atoms: C18_26  and  N2_27 
REMARK   11  A    between atoms: C27_36  and  C28_37 
REMARK       I    between atoms: C28_37  and  N3_39 
REMARK   12  A    between atoms: N3_39  and  C29_41 
ROOT
HETATM    1  C9  UNL     1      -9.983  15.981  27.636  1.00  0.00     0.124 C 
ENDROOT
BRANCH   1   2
HETATM    2  N1  UNL     1      -9.945  16.175  29.048  1.00  0.00    -0.349 N 
HETATM    3  C8  UNL     1      -9.339  15.300  29.980  1.00  0.00     0.252 C 
HETATM    4  O2  UNL     1      -8.781  14.245  29.544  1.00  0.00    -0.268 OA
ATOM      5  H1  UNL     1     -10.390  17.016  29.417  1.00  0.00     0.163 HD
BRANCH   3   6
HETATM    6  C7  UNL     1      -9.348  15.590  31.418  1.00  0.00     0.040 A 
HETATM    7  C2  UNL     1     -10.449  15.212  32.146  1.00  0.00    -0.013 A 
HETATM    8  C1  UNL     1     -11.613  14.518  31.563  1.00  0.00     0.052 C 
HETATM    9  C3  UNL     1     -10.443  15.502  33.508  1.00  0.00     0.072 A 
HETATM   10  C4  UNL     1      -9.387  16.142  34.131  1.00  0.00     0.037 A 
HETATM   11  C5  UNL     1      -8.306  16.506  33.386  1.00  0.00     0.004 A 
HETATM   12  C6  UNL     1      -8.288  16.227  32.017  1.00  0.00     0.018 A 
BRANCH   9  13
HETATM   13  O1  UNL     1     -11.511  15.154  34.296  1.00  0.00    -0.360 OA
ATOM     14  H1  UNL     1     -11.516  15.368  35.221  1.00  0.00     0.217 HD
ENDBRANCH   9  13
ENDBRANCH   3   6
ENDBRANCH   1   2
BRANCH   1  15
HETATM   15  C10 UNL     1     -11.418  15.667  27.192  1.00  0.00     0.107 C 
BRANCH  15  16
HETATM   16  S1  UNL     1     -11.670  13.896  26.922  1.00  0.00    -0.128 SA
BRANCH  16  17
HETATM   17  C11 UNL     1     -12.797  13.285  28.159  1.00  0.00     0.000 A 
HETATM   18  C12 UNL     1     -13.961  13.986  28.478  1.00  0.00     0.018 A 
HETATM   19  C13 UNL     1     -14.850  13.539  29.425  1.00  0.00     0.001 A 
HETATM   20  C14 UNL     1     -14.612  12.361  30.100  1.00  0.00     0.000 A 
HETATM   21  C15 UNL     1     -13.472  11.655  29.801  1.00  0.00     0.001 A 
HETATM   22  C16 UNL     1     -12.570  12.117  28.833  1.00  0.00     0.018 A 
ENDBRANCH  16  17
ENDBRANCH  15  16
ENDBRANCH   1  15
BRANCH   1  23
HETATM   23  C17 UNL     1      -9.482  17.208  26.895  1.00  0.00     0.170 C 
BRANCH  23  24
HETATM   24  O3  UNL     1     -10.373  18.246  26.907  1.00  0.00    -0.392 OA
ATOM     25  H3  UNL     1     -10.537  18.609  26.045  1.00  0.00     0.210 HD
ENDBRANCH  23  24
BRANCH  23  26
HETATM   26  C18 UNL     1      -8.861  16.925  25.566  1.00  0.00     0.307 C 
BRANCH  26  27
HETATM   27  N2  UNL     1      -7.421  16.790  25.562  1.00  0.00     0.105 N 
HETATM   28  C19 UNL     1      -6.921  17.485  26.719  1.00  0.00     0.278 C 
HETATM   29  C20 UNL     1      -5.521  17.938  26.705  1.00  0.00     0.018 C 
HETATM   30  C21 UNL     1      -4.641  16.891  27.406  1.00  0.00     0.007 C 
HETATM   31  C25 UNL     1      -4.966  18.312  25.371  1.00  0.00    -0.006 C 
HETATM   32  C22 UNL     1      -3.268  17.518  27.524  1.00  0.00     0.000 C 
HETATM   33  C23 UNL     1      -2.692  17.531  26.104  1.00  0.00     0.000 C 
HETATM   34  C24 UNL     1      -3.508  18.527  25.327  1.00  0.00     0.005 C 
HETATM   35  C26 UNL     1      -5.421  17.274  24.350  1.00  0.00     0.050 C 
HETATM   36  C27 UNL     1      -6.952  17.425  24.360  1.00  0.00     0.314 C 
BRANCH  36  37
HETATM   37  C28 UNL     1      -7.424  16.880  23.103  1.00  0.00     0.252 C 
HETATM   38  O4  UNL     1      -7.847  17.574  22.154  1.00  0.00    -0.271 OA
HETATM   39  N3  UNL     1      -7.425  15.460  22.887  1.00  0.00    -0.351 N 
ATOM     40  H3  UNL     1      -7.089  14.847  23.631  1.00  0.00     0.163 HD
BRANCH  39  41
HETATM   41  C29 UNL     1      -7.885  14.868  21.654  1.00  0.00     0.022 C 
HETATM   42  C30 UNL     1      -7.732  13.365  21.761  1.00  0.00     0.037 C 
HETATM   43  C31 UNL     1      -9.354  15.145  21.401  1.00  0.00     0.037 C 
HETATM   44  C32 UNL     1      -7.085  15.316  20.453  1.00  0.00     0.037 C 
ENDBRANCH  39  41
ENDBRANCH  36  37
ENDBRANCH  26  27
ENDBRANCH  23  26
ENDBRANCH   1  23
TORSDOF 12
ENDMDL
