MODEL 5
REMARK VINA RESULT: -10.387124461      0.720      1.390
REMARK  12 active torsions:
REMARK  status: ('A' for Active; 'I' for Inactive)
REMARK    1  A    between atoms: C3_3  and  O1_4 
REMARK    2  A    between atoms: C7_9  and  C8_10 
REMARK       I    between atoms: C8_10  and  N1_12 
REMARK    3  A    between atoms: N1_12  and  C9_14 
REMARK    4  A    between atoms: C9_14  and  C10_15 
REMARK    5  A    between atoms: C9_14  and  C17_23 
REMARK    6  A    between atoms: C10_15  and  S1_16 
REMARK    7  A    between atoms: S1_16  and  C11_17 
REMARK    8  A    between atoms: C17_23  and  O3_24 
REMARK    9  A    between atoms: C17_23  and  C18_26 
REMARK   10  A    between atoms: C18_26  and  N2_27 
REMARK   11  A    between atoms: C27_36  and  C28_37 
REMARK       I    between atoms: C28_37  and  N3_39 
REMARK   12  A    between atoms: N3_39  and  C29_41 
ROOT
HETATM    1  C9  UNL     1      -8.726  16.905  26.673  1.00  0.00     0.124 C 
ENDROOT
BRANCH   1   2
HETATM    2  N1  UNL     1      -8.869  16.908  25.253  1.00  0.00    -0.349 N 
HETATM    3  C8  UNL     1      -8.461  15.868  24.386  1.00  0.00     0.252 C 
HETATM    4  O2  UNL     1      -7.916  14.838  24.892  1.00  0.00    -0.268 OA
ATOM      5  H1  UNL     1      -9.301  17.729  24.829  1.00  0.00     0.163 HD
BRANCH   3   6
HETATM    6  C7  UNL     1      -8.656  15.962  22.935  1.00  0.00     0.040 A 
HETATM    7  C2  UNL     1      -7.781  16.739  22.216  1.00  0.00    -0.013 A 
HETATM    8  C1  UNL     1      -6.650  17.468  22.821  1.00  0.00     0.052 C 
HETATM    9  C3  UNL     1      -7.985  16.823  20.841  1.00  0.00     0.072 A 
HETATM   10  C4  UNL     1      -9.015  16.163  20.197  1.00  0.00     0.037 A 
HETATM   11  C5  UNL     1      -9.869  15.398  20.934  1.00  0.00     0.004 A 
HETATM   12  C6  UNL     1      -9.686  15.299  22.315  1.00  0.00     0.018 A 
BRANCH   9  13
HETATM   13  O1  UNL     1      -7.149  17.582  20.061  1.00  0.00    -0.360 OA
ATOM     14  H1  UNL     1      -7.269  17.615  19.119  1.00  0.00     0.217 HD
ENDBRANCH   9  13
ENDBRANCH   3   6
ENDBRANCH   1   2
BRANCH   1  15
HETATM   15  C10 UNL     1      -7.791  18.042  27.104  1.00  0.00     0.107 C 
BRANCH  15  16
HETATM   16  S1  UNL     1      -6.197  17.419  27.693  1.00  0.00    -0.128 SA
BRANCH  16  17
HETATM   17  C11 UNL     1      -5.004  17.572  26.379  1.00  0.00     0.000 A 
HETATM   18  C12 UNL     1      -4.580  18.826  25.939  1.00  0.00     0.018 A 
HETATM   19  C13 UNL     1      -3.659  18.976  24.929  1.00  0.00     0.001 A 
HETATM   20  C14 UNL     1      -3.118  17.869  24.313  1.00  0.00     0.000 A 
HETATM   21  C15 UNL     1      -3.522  16.624  24.731  1.00  0.00     0.001 A 
HETATM   22  C16 UNL     1      -4.461  16.480  25.762  1.00  0.00     0.018 A 
ENDBRANCH  16  17
ENDBRANCH  15  16
ENDBRANCH   1  15
BRANCH   1  23
HETATM   23  C17 UNL     1     -10.069  17.066  27.363  1.00  0.00     0.170 C 
BRANCH  23  24
HETATM   24  O3  UNL     1     -10.505  18.362  27.399  1.00  0.00    -0.392 OA
ATOM     25  H3  UNL     1     -11.440  18.440  27.551  1.00  0.00     0.210 HD
ENDBRANCH  23  24
BRANCH  23  26
HETATM   26  C18 UNL     1     -10.203  16.319  28.650  1.00  0.00     0.307 C 
BRANCH  26  27
HETATM   27  N2  UNL     1     -10.707  14.968  28.542  1.00  0.00     0.105 N 
HETATM   28  C19 UNL     1     -11.865  15.008  27.689  1.00  0.00     0.278 C 
HETATM   29  C20 UNL     1     -12.848  13.919  27.802  1.00  0.00     0.018 C 
HETATM   30  C21 UNL     1     -12.552  12.853  26.736  1.00  0.00     0.007 C 
HETATM   31  C25 UNL     1     -12.999  13.310  29.156  1.00  0.00    -0.006 C 
HETATM   32  C22 UNL     1     -13.712  11.882  26.790  1.00  0.00     0.000 C 
HETATM   33  C23 UNL     1     -13.538  11.096  28.093  1.00  0.00     0.000 C 
HETATM   34  C24 UNL     1     -13.795  12.070  29.210  1.00  0.00     0.005 C 
HETATM   35  C26 UNL     1     -11.610  13.122  29.758  1.00  0.00     0.050 C 
HETATM   36  C27 UNL     1     -11.081  14.562  29.870  1.00  0.00     0.314 C 
BRANCH  36  37
HETATM   37  C28 UNL     1     -10.033  14.535  30.868  1.00  0.00     0.252 C 
HETATM   38  O4  UNL     1      -8.961  13.906  30.742  1.00  0.00    -0.271 OA
HETATM   39  N3  UNL     1     -10.188  15.261  32.099  1.00  0.00    -0.351 N 
ATOM     40  H3  UNL     1     -11.046  15.792  32.253  1.00  0.00     0.163 HD
BRANCH  39  41
HETATM   41  C29 UNL     1      -9.174  15.266  33.125  1.00  0.00     0.022 C 
HETATM   42  C30 UNL     1      -9.592  16.243  34.203  1.00  0.00     0.037 C 
HETATM   43  C31 UNL     1      -9.029  13.911  33.790  1.00  0.00     0.037 C 
HETATM   44  C32 UNL     1      -7.823  15.712  32.615  1.00  0.00     0.037 C 
ENDBRANCH  39  41
ENDBRANCH  36  37
ENDBRANCH  26  27
ENDBRANCH  23  26
ENDBRANCH   1  23
TORSDOF 12
ENDMDL
