MODEL 6
REMARK VINA RESULT: -10.331227204      1.178      1.949
REMARK  12 active torsions:
REMARK  status: ('A' for Active; 'I' for Inactive)
REMARK    1  A    between atoms: C3_3  and  O1_4 
REMARK    2  A    between atoms: C7_9  and  C8_10 
REMARK       I    between atoms: C8_10  and  N1_12 
REMARK    3  A    between atoms: N1_12  and  C9_14 
REMARK    4  A    between atoms: C9_14  and  C10_15 
REMARK    5  A    between atoms: C9_14  and  C17_23 
REMARK    6  A    between atoms: C10_15  and  S1_16 
REMARK    7  A    between atoms: S1_16  and  C11_17 
REMARK    8  A    between atoms: C17_23  and  O3_24 
REMARK    9  A    between atoms: C17_23  and  C18_26 
REMARK   10  A    between atoms: C18_26  and  N2_27 
REMARK   11  A    between atoms: C27_36  and  C28_37 
REMARK       I    between atoms: C28_37  and  N3_39 
REMARK   12  A    between atoms: N3_39  and  C29_41 
ROOT
HETATM    1  C9  UNL     1      -7.678  16.244  26.978  1.00  0.00     0.124 C 
ENDROOT
BRANCH   1   2
HETATM    2  N1  UNL     1      -8.115  16.401  25.629  1.00  0.00    -0.349 N 
HETATM    3  C8  UNL     1      -8.383  15.345  24.726  1.00  0.00     0.252 C 
HETATM    4  O2  UNL     1      -8.222  14.150  25.128  1.00  0.00    -0.268 OA
ATOM      5  H1  UNL     1      -8.247  17.353  25.287  1.00  0.00     0.163 HD
BRANCH   3   6
HETATM    6  C7  UNL     1      -8.835  15.608  23.356  1.00  0.00     0.040 A 
HETATM    7  C2  UNL     1      -7.995  16.303  22.521  1.00  0.00    -0.013 A 
HETATM    8  C1  UNL     1      -6.660  16.784  22.924  1.00  0.00     0.052 C 
HETATM    9  C3  UNL     1      -8.443  16.549  21.226  1.00  0.00     0.072 A 
HETATM   10  C4  UNL     1      -9.677  16.124  20.769  1.00  0.00     0.037 A 
HETATM   11  C5  UNL     1     -10.491  15.436  21.617  1.00  0.00     0.004 A 
HETATM   12  C6  UNL     1     -10.065  15.177  22.921  1.00  0.00     0.018 A 
BRANCH   9  13
HETATM   13  O1  UNL     1      -7.655  17.240  20.339  1.00  0.00    -0.360 OA
ATOM     14  H1  UNL     1      -7.897  17.293  19.422  1.00  0.00     0.217 HD
ENDBRANCH   9  13
ENDBRANCH   3   6
ENDBRANCH   1   2
BRANCH   1  15
HETATM   15  C10 UNL     1      -6.167  16.497  27.067  1.00  0.00     0.107 C 
BRANCH  15  16
HETATM   16  S1  UNL     1      -5.684  18.010  26.200  1.00  0.00    -0.128 SA
BRANCH  16  17
HETATM   17  C11 UNL     1      -4.177  17.697  25.303  1.00  0.00     0.000 A 
HETATM   18  C12 UNL     1      -3.671  16.402  25.181  1.00  0.00     0.018 A 
HETATM   19  C13 UNL     1      -2.512  16.129  24.493  1.00  0.00     0.001 A 
HETATM   20  C14 UNL     1      -1.805  17.148  23.893  1.00  0.00     0.000 A 
HETATM   21  C15 UNL     1      -2.286  18.431  24.001  1.00  0.00     0.001 A 
HETATM   22  C16 UNL     1      -3.468  18.701  24.704  1.00  0.00     0.018 A 
ENDBRANCH  16  17
ENDBRANCH  15  16
ENDBRANCH   1  15
BRANCH   1  23
HETATM   23  C17 UNL     1      -8.406  17.197  27.908  1.00  0.00     0.170 C 
BRANCH  23  24
HETATM   24  O3  UNL     1      -7.672  17.541  29.010  1.00  0.00    -0.392 OA
ATOM     25  H3  UNL     1      -6.800  17.853  28.798  1.00  0.00     0.210 HD
ENDBRANCH  23  24
BRANCH  23  26
HETATM   26  C18 UNL     1      -9.828  16.833  28.187  1.00  0.00     0.307 C 
BRANCH  26  27
HETATM   27  N2  UNL     1     -10.169  15.441  27.998  1.00  0.00     0.105 N 
HETATM   28  C19 UNL     1     -11.285  15.391  27.090  1.00  0.00     0.278 C 
HETATM   29  C20 UNL     1     -12.141  14.194  27.108  1.00  0.00     0.018 C 
HETATM   30  C21 UNL     1     -11.677  13.220  26.014  1.00  0.00     0.007 C 
HETATM   31  C25 UNL     1     -12.281  13.508  28.427  1.00  0.00    -0.006 C 
HETATM   32  C22 UNL     1     -12.719  12.122  25.970  1.00  0.00     0.000 C 
HETATM   33  C23 UNL     1     -12.516  11.301  27.247  1.00  0.00     0.000 C 
HETATM   34  C24 UNL     1     -12.932  12.186  28.388  1.00  0.00     0.005 C 
HETATM   35  C26 UNL     1     -10.909  13.449  29.089  1.00  0.00     0.050 C 
HETATM   36  C27 UNL     1     -10.553  14.933  29.287  1.00  0.00     0.314 C 
BRANCH  36  37
HETATM   37  C28 UNL     1      -9.555  14.977  30.335  1.00  0.00     0.252 C 
HETATM   38  O4  UNL     1      -8.376  14.586  30.196  1.00  0.00    -0.271 OA
HETATM   39  N3  UNL     1      -9.892  15.494  31.633  1.00  0.00    -0.351 N 
ATOM     40  H3  UNL     1     -10.842  15.827  31.799  1.00  0.00     0.163 HD
BRANCH  39  41
HETATM   41  C29 UNL     1      -8.934  15.558  32.710  1.00  0.00     0.022 C 
HETATM   42  C30 UNL     1      -9.638  16.087  33.942  1.00  0.00     0.037 C 
HETATM   43  C31 UNL     1      -8.385  14.191  33.067  1.00  0.00     0.037 C 
HETATM   44  C32 UNL     1      -7.782  16.491  32.417  1.00  0.00     0.037 C 
ENDBRANCH  39  41
ENDBRANCH  36  37
ENDBRANCH  26  27
ENDBRANCH  23  26
ENDBRANCH   1  23
TORSDOF 12
ENDMDL
