MODEL 1
REMARK VINA RESULT: -10.809727045      0.000      0.000
REMARK  12 active torsions:
REMARK  status: ('A' for Active; 'I' for Inactive)
REMARK    1  A    between atoms: C3_3  and  O1_4 
REMARK    2  A    between atoms: C7_9  and  C8_10 
REMARK       I    between atoms: C8_10  and  N1_12 
REMARK    3  A    between atoms: N1_12  and  C9_14 
REMARK    4  A    between atoms: C9_14  and  C10_15 
REMARK    5  A    between atoms: C9_14  and  C17_23 
REMARK    6  A    between atoms: C10_15  and  S1_16 
REMARK    7  A    between atoms: S1_16  and  C11_17 
REMARK    8  A    between atoms: C17_23  and  O3_24 
REMARK    9  A    between atoms: C17_23  and  C18_26 
REMARK   10  A    between atoms: C18_26  and  N2_27 
REMARK   11  A    between atoms: C27_36  and  C28_37 
REMARK       I    between atoms: C28_37  and  N3_39 
REMARK   12  A    between atoms: N3_39  and  C29_41 
ROOT
HETATM    1  C9  UNL     1      -8.326  16.906  26.845  1.00  0.00     0.124 C 
ENDROOT
BRANCH   1   2
HETATM    2  N1  UNL     1      -8.017  17.220  25.488  1.00  0.00    -0.349 N 
HETATM    3  C8  UNL     1      -7.443  16.329  24.551  1.00  0.00     0.252 C 
HETATM    4  O2  UNL     1      -7.169  15.147  24.930  1.00  0.00    -0.268 OA
ATOM      5  H1  UNL     1      -8.227  18.165  25.167  1.00  0.00     0.163 HD
BRANCH   3   6
HETATM    6  C7  UNL     1      -7.166  16.744  23.172  1.00  0.00     0.040 A 
HETATM    7  C2  UNL     1      -8.100  16.451  22.209  1.00  0.00    -0.013 A 
HETATM    8  C1  UNL     1      -9.370  15.754  22.490  1.00  0.00     0.052 C 
HETATM    9  C3  UNL     1      -7.817  16.846  20.904  1.00  0.00     0.072 A 
HETATM   10  C4  UNL     1      -6.654  17.510  20.561  1.00  0.00     0.037 A 
HETATM   11  C5  UNL     1      -5.744  17.791  21.535  1.00  0.00     0.004 A 
HETATM   12  C6  UNL     1      -6.004  17.403  22.852  1.00  0.00     0.018 A 
BRANCH   9  13
HETATM   13  O1  UNL     1      -8.705  16.584  19.892  1.00  0.00    -0.360 OA
ATOM     14  H1  UNL     1      -8.946  17.265  19.276  1.00  0.00     0.217 HD
ENDBRANCH   9  13
ENDBRANCH   3   6
ENDBRANCH   1   2
BRANCH   1  15
HETATM   15  C10 UNL     1      -7.439  17.733  27.785  1.00  0.00     0.107 C 
BRANCH  15  16
HETATM   16  S1  UNL     1      -5.770  17.045  27.917  1.00  0.00    -0.128 SA
BRANCH  16  17
HETATM   17  C11 UNL     1      -4.760  17.745  26.628  1.00  0.00     0.000 A 
HETATM   18  C12 UNL     1      -4.946  19.063  26.208  1.00  0.00     0.018 A 
HETATM   19  C13 UNL     1      -4.182  19.631  25.217  1.00  0.00     0.001 A 
HETATM   20  C14 UNL     1      -3.190  18.901  24.600  1.00  0.00     0.000 A 
HETATM   21  C15 UNL     1      -2.989  17.601  24.999  1.00  0.00     0.001 A 
HETATM   22  C16 UNL     1      -3.773  17.029  26.010  1.00  0.00     0.018 A 
ENDBRANCH  16  17
ENDBRANCH  15  16
ENDBRANCH   1  15
BRANCH   1  23
HETATM   23  C17 UNL     1      -9.786  17.182  27.156  1.00  0.00     0.170 C 
BRANCH  23  24
HETATM   24  O3  UNL     1     -10.141  18.490  26.966  1.00  0.00    -0.392 OA
ATOM     25  H3  UNL     1     -10.956  18.592  26.490  1.00  0.00     0.210 HD
ENDBRANCH  23  24
BRANCH  23  26
HETATM   26  C18 UNL     1     -10.279  16.573  28.428  1.00  0.00     0.307 C 
BRANCH  26  27
HETATM   27  N2  UNL     1     -10.714  15.197  28.339  1.00  0.00     0.105 N 
HETATM   28  C19 UNL     1     -11.915  15.176  27.546  1.00  0.00     0.278 C 
HETATM   29  C20 UNL     1     -12.831  14.035  27.703  1.00  0.00     0.018 C 
HETATM   30  C21 UNL     1     -12.532  12.990  26.617  1.00  0.00     0.007 C 
HETATM   31  C25 UNL     1     -12.878  13.414  29.060  1.00  0.00    -0.006 C 
HETATM   32  C22 UNL     1     -13.633  11.957  26.724  1.00  0.00     0.000 C 
HETATM   33  C23 UNL     1     -13.350  11.178  28.013  1.00  0.00     0.000 C 
HETATM   34  C24 UNL     1     -13.602  12.133  29.146  1.00  0.00     0.005 C 
HETATM   35  C26 UNL     1     -11.452  13.301  29.588  1.00  0.00     0.050 C 
HETATM   36  C27 UNL     1     -10.997  14.767  29.681  1.00  0.00     0.314 C 
BRANCH  36  37
HETATM   37  C28 UNL     1      -9.899  14.795  30.625  1.00  0.00     0.252 C 
HETATM   38  O4  UNL     1      -8.786  14.263  30.420  1.00  0.00    -0.271 OA
HETATM   39  N3  UNL     1     -10.049  15.461  31.889  1.00  0.00    -0.351 N 
ATOM     40  H3  UNL     1     -10.938  15.912  32.106  1.00  0.00     0.163 HD
BRANCH  39  41
HETATM   41  C29 UNL     1      -8.985  15.516  32.863  1.00  0.00     0.022 C 
HETATM   42  C30 UNL     1      -9.521  16.178  34.115  1.00  0.00     0.037 C 
HETATM   43  C31 UNL     1      -8.508  14.135  33.264  1.00  0.00     0.037 C 
HETATM   44  C32 UNL     1      -7.802  16.332  32.396  1.00  0.00     0.037 C 
ENDBRANCH  39  41
ENDBRANCH  36  37
ENDBRANCH  26  27
ENDBRANCH  23  26
ENDBRANCH   1  23
TORSDOF 12
ENDMDL
