MODEL 2
REMARK VINA RESULT: -7.450206329      1.155      1.416
REMARK  3 active torsions:
REMARK  status: ('A' for Active; 'I' for Inactive)
REMARK    1  A    between atoms: C1_2  and  C2_4 
REMARK    2  A    between atoms: C3_5  and  N2_6 
REMARK       I    between atoms: N2_6  and  C4_8 
REMARK    3  A    between atoms: C4_8  and  C5_10 
ROOT
HETATM    1  C2  UNL     1      22.219 -10.211  -4.937  1.00  0.00     0.070 A 
HETATM    2  C3  UNL     1      21.300  -9.441  -4.286  1.00  0.00     0.093 A 
HETATM    3  S1  UNL     1      20.675  -8.430  -5.536  1.00  0.00    -0.075 SA
HETATM    4  C8  UNL     1      21.585  -9.009  -6.826  1.00  0.00    -0.008 A 
HETATM    5  C9  UNL     1      22.375  -9.992  -6.268  1.00  0.00    -0.027 A 
HETATM    6  C10 UNL     1      23.276 -10.621  -7.323  1.00  0.00     0.041 C 
HETATM    7  C11 UNL     1      24.068  -9.515  -7.990  1.00  0.00     0.005 C 
HETATM    8  C12 UNL     1      23.181  -8.425  -8.536  1.00  0.00     0.005 C 
HETATM    9  C13 UNL     1      21.717  -8.726  -8.308  1.00  0.00     0.047 C 
ENDROOT
BRANCH   2  10
HETATM   10  N2  UNL     1      20.896  -9.418  -2.896  1.00  0.00    -0.320 N 
HETATM   11  C4  UNL     1      19.567  -9.838  -2.566  1.00  0.00     0.226 C 
HETATM   12  O2  UNL     1      18.833 -10.200  -3.516  1.00  0.00    -0.273 OA
ATOM     13  H2  UNL     1      21.543  -9.111  -2.169  1.00  0.00     0.169 HD
BRANCH  11  14
HETATM   14  C5  UNL     1      19.054  -9.854  -1.187  1.00  0.00     0.078 A 
HETATM   15  C6  UNL     1      17.555  -9.762  -1.008  1.00  0.00     0.015 A 
HETATM   16  C7  UNL     1      18.494  -8.626  -0.566  1.00  0.00     0.015 A 
ENDBRANCH  11  14
ENDBRANCH   2  10
BRANCH   1  17
HETATM   17  C1  UNL     1      23.007 -11.244  -4.226  1.00  0.00     0.268 C 
HETATM   18  N1  UNL     1      24.393 -11.409  -4.292  1.00  0.00    -0.057 NA
HETATM   19  O1  UNL     1      22.367 -12.050  -3.493  1.00  0.00    -0.271 OA
ENDBRANCH   1  17
TORSDOF 3
ENDMDL
