MODEL 5
REMARK VINA RESULT: -6.939750506      3.194      5.057
REMARK  3 active torsions:
REMARK  status: ('A' for Active; 'I' for Inactive)
REMARK    1  A    between atoms: C1_2  and  C2_4 
REMARK    2  A    between atoms: C3_5  and  N2_6 
REMARK       I    between atoms: N2_6  and  C4_8 
REMARK    3  A    between atoms: C4_8  and  C5_10 
ROOT
HETATM    1  C2  UNL     1      21.334  -9.891  -5.122  1.00  0.00     0.070 A 
HETATM    2  C3  UNL     1      21.421  -9.787  -6.479  1.00  0.00     0.093 A 
HETATM    3  S1  UNL     1      22.915 -10.569  -6.840  1.00  0.00    -0.075 SA
HETATM    4  C8  UNL     1      23.375 -10.998  -5.281  1.00  0.00    -0.008 A 
HETATM    5  C9  UNL     1      22.353 -10.524  -4.486  1.00  0.00    -0.027 A 
HETATM    6  C10 UNL     1      22.627 -10.833  -3.019  1.00  0.00     0.041 C 
HETATM    7  C11 UNL     1      23.985 -10.267  -2.660  1.00  0.00     0.005 C 
HETATM    8  C12 UNL     1      25.071 -10.754  -3.585  1.00  0.00     0.005 C 
HETATM    9  C13 UNL     1      24.535 -11.715  -4.623  1.00  0.00     0.047 C 
ENDROOT
BRANCH   2  10
HETATM   10  N2  UNL     1      20.525  -9.185  -7.443  1.00  0.00    -0.320 N 
HETATM   11  C4  UNL     1      20.671  -7.788  -7.730  1.00  0.00     0.226 C 
HETATM   12  O2  UNL     1      21.577  -7.174  -7.118  1.00  0.00    -0.273 OA
ATOM     13  H2  UNL     1      19.807  -9.741  -7.908  1.00  0.00     0.169 HD
BRANCH  11  14
HETATM   14  C5  UNL     1      19.815  -7.077  -8.692  1.00  0.00     0.078 A 
HETATM   15  C6  UNL     1      19.224  -5.758  -8.245  1.00  0.00     0.015 A 
HETATM   16  C7  UNL     1      18.346  -6.997  -8.492  1.00  0.00     0.015 A 
ENDBRANCH  11  14
ENDBRANCH   2  10
BRANCH   1  17
HETATM   17  C1  UNL     1      20.178  -9.344  -4.376  1.00  0.00     0.268 C 
HETATM   18  N1  UNL     1      19.193 -10.092  -3.724  1.00  0.00    -0.057 NA
HETATM   19  O1  UNL     1      20.073  -8.086  -4.322  1.00  0.00    -0.271 OA
ENDBRANCH   1  17
TORSDOF 3
ENDMDL
