MODEL 6
REMARK VINA RESULT: -6.820013509      3.004      4.485
REMARK  3 active torsions:
REMARK  status: ('A' for Active; 'I' for Inactive)
REMARK    1  A    between atoms: C1_2  and  C2_4 
REMARK    2  A    between atoms: C3_5  and  N2_6 
REMARK       I    between atoms: N2_6  and  C4_8 
REMARK    3  A    between atoms: C4_8  and  C5_10 
ROOT
HETATM    1  C2  UNL     1      21.029  -9.813  -4.639  1.00  0.00     0.070 A 
HETATM    2  C3  UNL     1      21.003  -9.216  -5.865  1.00  0.00     0.093 A 
HETATM    3  S1  UNL     1      22.460  -9.769  -6.605  1.00  0.00    -0.075 SA
HETATM    4  C8  UNL     1      23.047 -10.725  -5.353  1.00  0.00    -0.008 A 
HETATM    5  C9  UNL     1      22.097 -10.605  -4.362  1.00  0.00    -0.027 A 
HETATM    6  C10 UNL     1      22.491 -11.422  -3.138  1.00  0.00     0.041 C 
HETATM    7  C11 UNL     1      23.875 -10.988  -2.704  1.00  0.00     0.005 C 
HETATM    8  C12 UNL     1      24.880 -11.071  -3.825  1.00  0.00     0.005 C 
HETATM    9  C13 UNL     1      24.257 -11.600  -5.098  1.00  0.00     0.047 C 
ENDROOT
BRANCH   2  10
HETATM   10  N2  UNL     1      20.031  -8.329  -6.467  1.00  0.00    -0.320 N 
HETATM   11  C4  UNL     1      20.052  -6.944  -6.099  1.00  0.00     0.226 C 
HETATM   12  O2  UNL     1      20.923  -6.590  -5.269  1.00  0.00    -0.273 OA
ATOM     13  H2  UNL     1      19.347  -8.680  -7.138  1.00  0.00     0.169 HD
BRANCH  11  14
HETATM   14  C5  UNL     1      19.110  -5.957  -6.650  1.00  0.00     0.078 A 
HETATM   15  C6  UNL     1      18.386  -6.330  -7.924  1.00  0.00     0.015 A 
HETATM   16  C7  UNL     1      19.433  -5.203  -7.888  1.00  0.00     0.015 A 
ENDBRANCH  11  14
ENDBRANCH   2  10
BRANCH   1  17
HETATM   17  C1  UNL     1      19.941  -9.611  -3.656  1.00  0.00     0.268 C 
HETATM   18  N1  UNL     1      20.043  -8.910  -2.450  1.00  0.00    -0.057 NA
HETATM   19  O1  UNL     1      18.817 -10.118  -3.932  1.00  0.00    -0.271 OA
ENDBRANCH   1  17
TORSDOF 3
ENDMDL
