MODEL 7
REMARK VINA RESULT: -6.732691444      5.066      6.015
REMARK  3 active torsions:
REMARK  status: ('A' for Active; 'I' for Inactive)
REMARK    1  A    between atoms: C1_2  and  C2_4 
REMARK    2  A    between atoms: C3_5  and  N2_6 
REMARK       I    between atoms: N2_6  and  C4_8 
REMARK    3  A    between atoms: C4_8  and  C5_10 
ROOT
HETATM    1  C2  UNL     1      22.369  -9.566  -8.492  1.00  0.00     0.070 A 
HETATM    2  C3  UNL     1      21.201  -9.107  -7.957  1.00  0.00     0.093 A 
HETATM    3  S1  UNL     1      21.368  -9.462  -6.278  1.00  0.00    -0.075 SA
HETATM    4  C8  UNL     1      22.892 -10.171  -6.307  1.00  0.00    -0.008 A 
HETATM    5  C9  UNL     1      23.261 -10.126  -7.634  1.00  0.00    -0.027 A 
HETATM    6  C10 UNL     1      24.639 -10.744  -7.831  1.00  0.00     0.041 C 
HETATM    7  C11 UNL     1      24.615 -12.146  -7.258  1.00  0.00     0.005 C 
HETATM    8  C12 UNL     1      24.150 -12.171  -5.824  1.00  0.00     0.005 C 
HETATM    9  C13 UNL     1      23.852 -10.782  -5.307  1.00  0.00     0.047 C 
ENDROOT
BRANCH   2  10
HETATM   10  N2  UNL     1      20.060  -8.471  -8.580  1.00  0.00    -0.320 N 
HETATM   11  C4  UNL     1      19.867  -7.065  -8.375  1.00  0.00     0.226 C 
HETATM   12  O2  UNL     1      20.712  -6.475  -7.661  1.00  0.00    -0.273 OA
ATOM     13  H2  UNL     1      19.408  -9.009  -9.150  1.00  0.00     0.169 HD
BRANCH  11  14
HETATM   14  C5  UNL     1      18.742  -6.320  -8.960  1.00  0.00     0.078 A 
HETATM   15  C6  UNL     1      18.217  -5.137  -8.177  1.00  0.00     0.015 A 
HETATM   16  C7  UNL     1      17.380  -6.412  -8.378  1.00  0.00     0.015 A 
ENDBRANCH  11  14
ENDBRANCH   2  10
BRANCH   1  17
HETATM   17  C1  UNL     1      22.655  -9.455  -9.940  1.00  0.00     0.268 C 
HETATM   18  N1  UNL     1      21.859  -9.956 -10.975  1.00  0.00    -0.057 NA
HETATM   19  O1  UNL     1      23.715  -8.853 -10.271  1.00  0.00    -0.271 OA
ENDBRANCH   1  17
TORSDOF 3
ENDMDL
