MODEL 1
REMARK VINA RESULT: -7.716668309      0.000      0.000
REMARK  3 active torsions:
REMARK  status: ('A' for Active; 'I' for Inactive)
REMARK    1  A    between atoms: C1_2  and  C2_4 
REMARK    2  A    between atoms: C3_5  and  N2_6 
REMARK       I    between atoms: N2_6  and  C4_8 
REMARK    3  A    between atoms: C4_8  and  C5_10 
ROOT
HETATM    1  C2  UNL     1      22.226 -10.472  -3.646  1.00  0.00     0.070 A 
HETATM    2  C3  UNL     1      21.212  -9.590  -3.413  1.00  0.00     0.093 A 
HETATM    3  S1  UNL     1      20.806  -9.029  -4.992  1.00  0.00    -0.075 SA
HETATM    4  C8  UNL     1      21.919  -9.918  -5.885  1.00  0.00    -0.008 A 
HETATM    5  C9  UNL     1      22.604 -10.650  -4.938  1.00  0.00    -0.027 A 
HETATM    6  C10 UNL     1      23.669 -11.518  -5.597  1.00  0.00     0.041 C 
HETATM    7  C11 UNL     1      24.562 -10.622  -6.430  1.00  0.00     0.005 C 
HETATM    8  C12 UNL     1      23.779  -9.789  -7.414  1.00  0.00     0.005 C 
HETATM    9  C13 UNL     1      22.297 -10.081  -7.342  1.00  0.00     0.047 C 
ENDROOT
BRANCH   2  10
HETATM   10  N2  UNL     1      20.581  -9.176  -2.178  1.00  0.00    -0.320 N 
HETATM   11  C4  UNL     1      19.226  -9.576  -1.937  1.00  0.00     0.226 C 
HETATM   12  O2  UNL     1      18.672 -10.267  -2.825  1.00  0.00    -0.273 OA
ATOM     13  H2  UNL     1      21.089  -8.613  -1.495  1.00  0.00     0.169 HD
BRANCH  11  14
HETATM   14  C5  UNL     1      18.491  -9.211  -0.717  1.00  0.00     0.078 A 
HETATM   15  C6  UNL     1      16.988  -9.385  -0.739  1.00  0.00     0.015 A 
HETATM   16  C7  UNL     1      17.642  -7.993  -0.673  1.00  0.00     0.015 A 
ENDBRANCH  11  14
ENDBRANCH   2  10
BRANCH   1  17
HETATM   17  C1  UNL     1      22.883 -11.207  -2.541  1.00  0.00     0.268 C 
HETATM   18  N1  UNL     1      24.259 -11.268  -2.299  1.00  0.00    -0.057 NA
HETATM   19  O1  UNL     1      22.132 -11.837  -1.744  1.00  0.00    -0.271 OA
ENDBRANCH   1  17
TORSDOF 3
ENDMDL
