MODEL 3
REMARK VINA RESULT: -7.098588331      1.300      1.562
REMARK  3 active torsions:
REMARK  status: ('A' for Active; 'I' for Inactive)
REMARK    1  A    between atoms: C1_2  and  C2_4 
REMARK    2  A    between atoms: C3_5  and  N2_6 
REMARK       I    between atoms: N2_6  and  C4_8 
REMARK    3  A    between atoms: C4_8  and  C5_10 
ROOT
HETATM    1  C2  UNL     1      22.326 -10.051  -5.060  1.00  0.00     0.070 A 
HETATM    2  C3  UNL     1      21.264  -9.210  -4.902  1.00  0.00     0.093 A 
HETATM    3  S1  UNL     1      20.930  -8.687  -6.511  1.00  0.00    -0.075 SA
HETATM    4  C8  UNL     1      22.131  -9.541  -7.322  1.00  0.00    -0.008 A 
HETATM    5  C9  UNL     1      22.788 -10.230  -6.324  1.00  0.00    -0.027 A 
HETATM    6  C10 UNL     1      23.925 -11.061  -6.905  1.00  0.00     0.041 C 
HETATM    7  C11 UNL     1      24.828 -10.139  -7.698  1.00  0.00     0.005 C 
HETATM    8  C12 UNL     1      24.072  -9.354  -8.740  1.00  0.00     0.005 C 
HETATM    9  C13 UNL     1      22.602  -9.708  -8.751  1.00  0.00     0.047 C 
ENDROOT
BRANCH   2  10
HETATM   10  N2  UNL     1      20.544  -8.806  -3.713  1.00  0.00    -0.320 N 
HETATM   11  C4  UNL     1      19.358  -9.527  -3.357  1.00  0.00     0.226 C 
HETATM   12  O2  UNL     1      19.020 -10.471  -4.110  1.00  0.00    -0.273 OA
ATOM     13  H2  UNL     1      20.872  -8.027  -3.142  1.00  0.00     0.169 HD
BRANCH  11  14
HETATM   14  C5  UNL     1      18.550  -9.201  -2.171  1.00  0.00     0.078 A 
HETATM   15  C6  UNL     1      18.655 -10.137  -0.988  1.00  0.00     0.015 A 
HETATM   16  C7  UNL     1      17.361 -10.014  -1.811  1.00  0.00     0.015 A 
ENDBRANCH  11  14
ENDBRANCH   2  10
BRANCH   1  17
HETATM   17  C1  UNL     1      22.946 -10.742  -3.907  1.00  0.00     0.268 C 
HETATM   18  N1  UNL     1      24.079 -10.317  -3.206  1.00  0.00    -0.057 NA
HETATM   19  O1  UNL     1      22.400 -11.814  -3.519  1.00  0.00    -0.271 OA
ENDBRANCH   1  17
TORSDOF 3
ENDMDL
