MODEL 8
REMARK VINA RESULT: -6.848155651      2.175      6.584
REMARK  3 active torsions:
REMARK  status: ('A' for Active; 'I' for Inactive)
REMARK    1  A    between atoms: N1_1  and  S1_4 
REMARK    2  A    between atoms: S1_4  and  C1_7 
REMARK    3  A    between atoms: C4_10  and  N2_11 
ROOT
HETATM    1  C1  UNL     1      -5.398   2.350  15.996  1.00  0.00     0.079 A 
HETATM    2  C2  UNL     1      -6.037   3.243  15.181  1.00  0.00     0.027 A 
HETATM    3  C3  UNL     1      -5.342   3.876  14.171  1.00  0.00     0.032 A 
HETATM    4  C4  UNL     1      -3.991   3.645  13.935  1.00  0.00     0.044 A 
HETATM    5  C9  UNL     1      -3.366   2.736  14.776  1.00  0.00     0.032 A 
HETATM    6  C10 UNL     1      -4.053   2.100  15.786  1.00  0.00     0.027 A 
ENDROOT
BRANCH   4   7
HETATM    7  N2  UNL     1      -3.283   4.300  12.896  1.00  0.00    -0.276 N 
HETATM    8  C5  UNL     1      -3.069   5.730  12.824  1.00  0.00     0.142 C 
HETATM    9  C6  UNL     1      -1.895   5.982  11.912  1.00  0.00     0.022 C 
HETATM   10  C7  UNL     1      -2.278   5.812  10.457  1.00  0.00     0.018 C 
HETATM   11  C8  UNL     1      -2.583   4.368  10.147  1.00  0.00     0.163 C 
HETATM   12  S2  UNL     1      -2.613   3.366  11.610  1.00  0.00     0.233 S 
HETATM   13  O3  UNL     1      -1.217   2.910  11.925  1.00  0.00    -0.205 OA
HETATM   14  O4  UNL     1      -3.466   2.162  11.309  1.00  0.00    -0.205 OA
ENDBRANCH   4   7
BRANCH   1  15
HETATM   15  S1  UNL     1      -6.182   1.497  17.300  1.00  0.00     0.256 S 
HETATM   16  O1  UNL     1      -6.185   2.352  18.529  1.00  0.00    -0.201 OA
HETATM   17  O2  UNL     1      -5.394   0.244  17.592  1.00  0.00    -0.201 OA
BRANCH  15  18
HETATM   18  N1  UNL     1      -7.805   1.071  16.903  1.00  0.00    -0.324 N 
ATOM     19  H12 UNL     1      -8.551   1.740  16.711  1.00  0.00     0.169 HD
ATOM     20  H11 UNL     1      -7.890   0.055  16.893  1.00  0.00     0.169 HD
ENDBRANCH  15  18
ENDBRANCH   1  15
TORSDOF 3
ENDMDL
