MODEL 5
REMARK VINA RESULT: -7.077398362      2.133      6.586
REMARK  3 active torsions:
REMARK  status: ('A' for Active; 'I' for Inactive)
REMARK    1  A    between atoms: N1_1  and  S1_4 
REMARK    2  A    between atoms: S1_4  and  C1_7 
REMARK    3  A    between atoms: C4_10  and  N2_11 
ROOT
HETATM    1  C1  UNL     1      -5.633   2.181  15.955  1.00  0.00     0.079 A 
HETATM    2  C2  UNL     1      -6.182   3.270  15.335  1.00  0.00     0.027 A 
HETATM    3  C3  UNL     1      -5.480   3.928  14.345  1.00  0.00     0.032 A 
HETATM    4  C4  UNL     1      -4.211   3.529  13.937  1.00  0.00     0.044 A 
HETATM    5  C9  UNL     1      -3.678   2.422  14.582  1.00  0.00     0.032 A 
HETATM    6  C10 UNL     1      -4.372   1.761  15.570  1.00  0.00     0.027 A 
ENDROOT
BRANCH   4   7
HETATM    7  N2  UNL     1      -3.496   4.209  12.920  1.00  0.00    -0.276 N 
HETATM    8  C5  UNL     1      -3.151   5.614  12.961  1.00  0.00     0.142 C 
HETATM    9  C6  UNL     1      -2.004   5.842  12.008  1.00  0.00     0.022 C 
HETATM   10  C7  UNL     1      -2.471   5.842  10.568  1.00  0.00     0.018 C 
HETATM   11  C8  UNL     1      -2.926   4.465  10.151  1.00  0.00     0.163 C 
HETATM   12  S2  UNL     1      -2.980   3.340  11.522  1.00  0.00     0.233 S 
HETATM   13  O3  UNL     1      -1.620   2.733  11.716  1.00  0.00    -0.205 OA
HETATM   14  O4  UNL     1      -3.958   2.250  11.167  1.00  0.00    -0.205 OA
ENDBRANCH   4   7
BRANCH   1  15
HETATM   15  S1  UNL     1      -6.434   1.281  17.215  1.00  0.00     0.256 S 
HETATM   16  O1  UNL     1      -5.894  -0.116  17.254  1.00  0.00    -0.201 OA
HETATM   17  O2  UNL     1      -7.906   1.214  16.893  1.00  0.00    -0.201 OA
BRANCH  15  18
HETATM   18  N1  UNL     1      -6.220   2.013  18.762  1.00  0.00    -0.324 N 
ATOM     19  H12 UNL     1      -6.021   1.503  19.622  1.00  0.00     0.169 HD
ATOM     20  H11 UNL     1      -6.324   3.023  18.670  1.00  0.00     0.169 HD
ENDBRANCH  15  18
ENDBRANCH   1  15
TORSDOF 3
ENDMDL
