MODEL 15
REMARK VINA RESULT: -6.215901855      2.677      6.743
REMARK  3 active torsions:
REMARK  status: ('A' for Active; 'I' for Inactive)
REMARK    1  A    between atoms: N1_1  and  S1_4 
REMARK    2  A    between atoms: S1_4  and  C1_7 
REMARK    3  A    between atoms: C4_10  and  N2_11 
ROOT
HETATM    1  C1  UNL     1      -5.525   2.361  15.966  1.00  0.00     0.079 A 
HETATM    2  C2  UNL     1      -4.209   2.210  15.624  1.00  0.00     0.027 A 
HETATM    3  C3  UNL     1      -3.628   3.071  14.716  1.00  0.00     0.032 A 
HETATM    4  C4  UNL     1      -4.331   4.110  14.116  1.00  0.00     0.044 A 
HETATM    5  C9  UNL     1      -5.664   4.241  14.479  1.00  0.00     0.032 A 
HETATM    6  C10 UNL     1      -6.251   3.386  15.384  1.00  0.00     0.027 A 
ENDROOT
BRANCH   4   7
HETATM    7  N2  UNL     1      -3.728   4.992  13.184  1.00  0.00    -0.276 N 
HETATM    8  C5  UNL     1      -2.303   5.227  13.082  1.00  0.00     0.142 C 
HETATM    9  C6  UNL     1      -2.019   5.790  11.712  1.00  0.00     0.022 C 
HETATM   10  C7  UNL     1      -2.420   7.246  11.618  1.00  0.00     0.018 C 
HETATM   11  C8  UNL     1      -3.920   7.396  11.688  1.00  0.00     0.163 C 
HETATM   12  S2  UNL     1      -4.723   5.863  12.077  1.00  0.00     0.233 S 
HETATM   13  O3  UNL     1      -4.950   5.090  10.809  1.00  0.00    -0.205 OA
HETATM   14  O4  UNL     1      -6.056   6.200  12.691  1.00  0.00    -0.205 OA
ENDBRANCH   4   7
BRANCH   1  15
HETATM   15  S1  UNL     1      -6.355   1.329  17.100  1.00  0.00     0.256 S 
HETATM   16  O1  UNL     1      -5.821  -0.067  16.994  1.00  0.00    -0.201 OA
HETATM   17  O2  UNL     1      -7.820   1.307  16.742  1.00  0.00    -0.201 OA
BRANCH  15  18
HETATM   18  N1  UNL     1      -6.171   1.882  18.723  1.00  0.00    -0.324 N 
ATOM     19  H12 UNL     1      -6.208   2.860  19.011  1.00  0.00     0.169 HD
ATOM     20  H11 UNL     1      -6.023   1.079  19.334  1.00  0.00     0.169 HD
ENDBRANCH  15  18
ENDBRANCH   1  15
TORSDOF 3
ENDMDL
