MODEL 2
REMARK VINA RESULT: -7.604132680      0.127      1.122
REMARK  3 active torsions:
REMARK  status: ('A' for Active; 'I' for Inactive)
REMARK    1  A    between atoms: N1_1  and  S1_4 
REMARK    2  A    between atoms: S1_4  and  C1_7 
REMARK    3  A    between atoms: C4_10  and  N2_11 
ROOT
HETATM    1  C1  UNL     1      -2.786   3.852  11.973  1.00  0.00     0.079 A 
HETATM    2  C2  UNL     1      -3.553   2.726  11.858  1.00  0.00     0.027 A 
HETATM    3  C3  UNL     1      -4.348   2.321  12.910  1.00  0.00     0.032 A 
HETATM    4  C4  UNL     1      -4.411   3.019  14.111  1.00  0.00     0.044 A 
HETATM    5  C9  UNL     1      -3.624   4.157  14.203  1.00  0.00     0.032 A 
HETATM    6  C10 UNL     1      -2.828   4.568  13.158  1.00  0.00     0.027 A 
ENDROOT
BRANCH   4   7
HETATM    7  N2  UNL     1      -5.231   2.597  15.189  1.00  0.00    -0.276 N 
HETATM    8  C5  UNL     1      -6.499   3.201  15.538  1.00  0.00     0.142 C 
HETATM    9  C6  UNL     1      -7.280   2.206  16.361  1.00  0.00     0.022 C 
HETATM   10  C7  UNL     1      -6.754   2.127  17.778  1.00  0.00     0.018 C 
HETATM   11  C8  UNL     1      -5.377   1.511  17.807  1.00  0.00     0.163 C 
HETATM   12  S2  UNL     1      -4.719   1.279  16.175  1.00  0.00     0.233 S 
HETATM   13  O3  UNL     1      -5.198  -0.038  15.634  1.00  0.00    -0.205 OA
HETATM   14  O4  UNL     1      -3.218   1.241  16.301  1.00  0.00    -0.205 OA
ENDBRANCH   4   7
BRANCH   1  15
HETATM   15  S1  UNL     1      -1.748   4.450  10.707  1.00  0.00     0.256 S 
HETATM   16  O1  UNL     1      -2.259   3.986   9.377  1.00  0.00    -0.201 OA
HETATM   17  O2  UNL     1      -0.367   3.880  10.913  1.00  0.00    -0.201 OA
BRANCH  15  18
HETATM   18  N1  UNL     1      -1.660   6.173  10.708  1.00  0.00    -0.324 N 
ATOM     19  H12 UNL     1      -1.581   6.750   9.871  1.00  0.00     0.169 HD
ATOM     20  H11 UNL     1      -1.701   6.508  11.670  1.00  0.00     0.169 HD
ENDBRANCH  15  18
ENDBRANCH   1  15
TORSDOF 3
ENDMDL
