MODEL 3
REMARK VINA RESULT: -7.524495559      0.987      1.582
REMARK  3 active torsions:
REMARK  status: ('A' for Active; 'I' for Inactive)
REMARK    1  A    between atoms: N1_1  and  S1_4 
REMARK    2  A    between atoms: S1_4  and  C1_7 
REMARK    3  A    between atoms: C4_10  and  N2_11 
ROOT
HETATM    1  C1  UNL     1      -2.298   4.015  12.348  1.00  0.00     0.079 A 
HETATM    2  C2  UNL     1      -3.155   2.990  12.055  1.00  0.00     0.027 A 
HETATM    3  C3  UNL     1      -4.059   2.554  13.002  1.00  0.00     0.032 A 
HETATM    4  C4  UNL     1      -4.144   3.118  14.270  1.00  0.00     0.044 A 
HETATM    5  C9  UNL     1      -3.263   4.154  14.543  1.00  0.00     0.032 A 
HETATM    6  C10 UNL     1      -2.358   4.596  13.604  1.00  0.00     0.027 A 
ENDROOT
BRANCH   4   7
HETATM    7  N2  UNL     1      -5.075   2.664  15.238  1.00  0.00    -0.276 N 
HETATM    8  C5  UNL     1      -6.339   3.309  15.524  1.00  0.00     0.142 C 
HETATM    9  C6  UNL     1      -7.236   2.302  16.199  1.00  0.00     0.022 C 
HETATM   10  C7  UNL     1      -6.843   2.091  17.645  1.00  0.00     0.018 C 
HETATM   11  C8  UNL     1      -5.505   1.400  17.743  1.00  0.00     0.163 C 
HETATM   12  S2  UNL     1      -4.717   1.252  16.160  1.00  0.00     0.233 S 
HETATM   13  O3  UNL     1      -5.209   0.006  15.480  1.00  0.00    -0.205 OA
HETATM   14  O4  UNL     1      -3.237   1.123  16.409  1.00  0.00    -0.205 OA
ENDBRANCH   4   7
BRANCH   1  15
HETATM   15  S1  UNL     1      -1.119   4.641  11.227  1.00  0.00     0.256 S 
HETATM   16  O1  UNL     1      -1.124   6.139  11.277  1.00  0.00    -0.201 OA
HETATM   17  O2  UNL     1      -1.507   4.209   9.835  1.00  0.00    -0.201 OA
BRANCH  15  18
HETATM   18  N1  UNL     1       0.470   4.070  11.580  1.00  0.00    -0.324 N 
ATOM     19  H12 UNL     1       0.822   3.877  12.518  1.00  0.00     0.169 HD
ATOM     20  H11 UNL     1       0.986   3.960  10.708  1.00  0.00     0.169 HD
ENDBRANCH  15  18
ENDBRANCH   1  15
TORSDOF 3
ENDMDL
