MODEL 9
REMARK VINA RESULT: -6.781874675      2.349      6.617
REMARK  3 active torsions:
REMARK  status: ('A' for Active; 'I' for Inactive)
REMARK    1  A    between atoms: N1_1  and  S1_4 
REMARK    2  A    between atoms: S1_4  and  C1_7 
REMARK    3  A    between atoms: C4_10  and  N2_11 
ROOT
HETATM    1  C1  UNL     1      -5.414   2.439  15.800  1.00  0.00     0.079 A 
HETATM    2  C2  UNL     1      -6.195   3.463  15.340  1.00  0.00     0.027 A 
HETATM    3  C3  UNL     1      -5.647   4.444  14.540  1.00  0.00     0.032 A 
HETATM    4  C4  UNL     1      -4.306   4.444  14.168  1.00  0.00     0.044 A 
HETATM    5  C9  UNL     1      -3.536   3.395  14.648  1.00  0.00     0.032 A 
HETATM    6  C10 UNL     1      -4.075   2.412  15.447  1.00  0.00     0.027 A 
ENDROOT
BRANCH   4   7
HETATM    7  N2  UNL     1      -3.749   5.455  13.346  1.00  0.00    -0.276 N 
HETATM    8  C5  UNL     1      -3.169   6.686  13.840  1.00  0.00     0.142 C 
HETATM    9  C6  UNL     1      -2.262   7.238  12.770  1.00  0.00     0.022 C 
HETATM   10  C7  UNL     1      -3.054   7.882  11.651  1.00  0.00     0.018 C 
HETATM   11  C8  UNL     1      -3.824   6.845  10.873  1.00  0.00     0.163 C 
HETATM   12  S2  UNL     1      -3.740   5.245  11.634  1.00  0.00     0.233 S 
HETATM   13  O3  UNL     1      -2.498   4.541  11.168  1.00  0.00    -0.205 OA
HETATM   14  O4  UNL     1      -4.946   4.468  11.174  1.00  0.00    -0.205 OA
ENDBRANCH   4   7
BRANCH   1  15
HETATM   15  S1  UNL     1      -6.006   1.151  16.815  1.00  0.00     0.256 S 
HETATM   16  O1  UNL     1      -5.447   1.303  18.197  1.00  0.00    -0.201 OA
HETATM   17  O2  UNL     1      -5.527  -0.163  16.249  1.00  0.00    -0.201 OA
BRANCH  15  18
HETATM   18  N1  UNL     1      -7.729   1.141  16.900  1.00  0.00    -0.324 N 
ATOM     19  H12 UNL     1      -8.348   0.996  16.103  1.00  0.00     0.169 HD
ATOM     20  H11 UNL     1      -8.016   1.302  17.865  1.00  0.00     0.169 HD
ENDBRANCH  15  18
ENDBRANCH   1  15
TORSDOF 3
ENDMDL
