MODEL 1
REMARK VINA RESULT: -7.647013690      0.000      0.000
REMARK  3 active torsions:
REMARK  status: ('A' for Active; 'I' for Inactive)
REMARK    1  A    between atoms: N1_1  and  S1_4 
REMARK    2  A    between atoms: S1_4  and  C1_7 
REMARK    3  A    between atoms: C4_10  and  N2_11 
ROOT
HETATM    1  C1  UNL     1      -2.665   3.998  12.095  1.00  0.00     0.079 A 
HETATM    2  C2  UNL     1      -2.720   4.686  13.275  1.00  0.00     0.027 A 
HETATM    3  C3  UNL     1      -3.546   4.250  14.291  1.00  0.00     0.032 A 
HETATM    4  C4  UNL     1      -4.344   3.118  14.171  1.00  0.00     0.044 A 
HETATM    5  C9  UNL     1      -4.271   2.438  12.964  1.00  0.00     0.032 A 
HETATM    6  C10 UNL     1      -3.449   2.867  11.946  1.00  0.00     0.027 A 
ENDROOT
BRANCH   4   7
HETATM    7  N2  UNL     1      -5.191   2.675  15.218  1.00  0.00    -0.276 N 
HETATM    8  C5  UNL     1      -6.465   3.276  15.551  1.00  0.00     0.142 C 
HETATM    9  C6  UNL     1      -7.269   2.267  16.332  1.00  0.00     0.022 C 
HETATM   10  C7  UNL     1      -6.777   2.152  17.759  1.00  0.00     0.018 C 
HETATM   11  C8  UNL     1      -5.404   1.529  17.806  1.00  0.00     0.163 C 
HETATM   12  S2  UNL     1      -4.709   1.331  16.186  1.00  0.00     0.233 S 
HETATM   13  O3  UNL     1      -5.180   0.030  15.602  1.00  0.00    -0.205 OA
HETATM   14  O4  UNL     1      -3.212   1.284  16.345  1.00  0.00    -0.205 OA
ENDBRANCH   4   7
BRANCH   1  15
HETATM   15  S1  UNL     1      -1.657   4.463  10.750  1.00  0.00     0.256 S 
HETATM   16  O1  UNL     1      -2.245   3.938   9.476  1.00  0.00    -0.201 OA
HETATM   17  O2  UNL     1      -0.294   3.843  10.938  1.00  0.00    -0.201 OA
BRANCH  15  18
HETATM   18  N1  UNL     1      -1.493   6.176  10.633  1.00  0.00    -0.324 N 
ATOM     19  H12 UNL     1      -1.389   6.690   9.758  1.00  0.00     0.169 HD
ATOM     20  H11 UNL     1      -1.518   6.578  11.570  1.00  0.00     0.169 HD
ENDBRANCH  15  18
ENDBRANCH   1  15
TORSDOF 3
ENDMDL
