MODEL 4
REMARK VINA RESULT: -7.174692002      2.265      6.653
REMARK  3 active torsions:
REMARK  status: ('A' for Active; 'I' for Inactive)
REMARK    1  A    between atoms: N1_1  and  S1_4 
REMARK    2  A    between atoms: S1_4  and  C1_7 
REMARK    3  A    between atoms: C4_10  and  N2_11 
ROOT
HETATM    1  C1  UNL     1      -5.663   2.119  15.904  1.00  0.00     0.079 A 
HETATM    2  C2  UNL     1      -4.517   1.704  15.283  1.00  0.00     0.027 A 
HETATM    3  C3  UNL     1      -3.972   2.459  14.264  1.00  0.00     0.032 A 
HETATM    4  C4  UNL     1      -4.543   3.649  13.827  1.00  0.00     0.044 A 
HETATM    5  C9  UNL     1      -5.705   4.047  14.473  1.00  0.00     0.032 A 
HETATM    6  C10 UNL     1      -6.255   3.300  15.490  1.00  0.00     0.027 A 
ENDROOT
BRANCH   4   7
HETATM    7  N2  UNL     1      -3.978   4.420  12.780  1.00  0.00    -0.276 N 
HETATM    8  C5  UNL     1      -3.439   5.753  12.944  1.00  0.00     0.142 C 
HETATM    9  C6  UNL     1      -2.507   6.025  11.790  1.00  0.00     0.022 C 
HETATM   10  C7  UNL     1      -3.272   6.325  10.519  1.00  0.00     0.018 C 
HETATM   11  C8  UNL     1      -3.995   5.097  10.024  1.00  0.00     0.163 C 
HETATM   12  S2  UNL     1      -3.907   3.761  11.188  1.00  0.00     0.233 S 
HETATM   13  O3  UNL     1      -2.636   2.993  10.962  1.00  0.00    -0.205 OA
HETATM   14  O4  UNL     1      -5.082   2.857  10.919  1.00  0.00    -0.205 OA
ENDBRANCH   4   7
BRANCH   1  15
HETATM   15  S1  UNL     1      -6.433   1.241  17.199  1.00  0.00     0.256 S 
HETATM   16  O1  UNL     1      -5.892  -0.155  17.251  1.00  0.00    -0.201 OA
HETATM   17  O2  UNL     1      -7.913   1.169  16.913  1.00  0.00    -0.201 OA
BRANCH  15  18
HETATM   18  N1  UNL     1      -6.183   2.002  18.727  1.00  0.00    -0.324 N 
ATOM     19  H12 UNL     1      -5.476   2.714  18.912  1.00  0.00     0.169 HD
ATOM     20  H11 UNL     1      -6.850   1.625  19.400  1.00  0.00     0.169 HD
ENDBRANCH  15  18
ENDBRANCH   1  15
TORSDOF 3
ENDMDL
