MODEL 15
REMARK VINA RESULT: -7.446506754      1.216      1.669
REMARK  8 active torsions:
REMARK  status: ('A' for Active; 'I' for Inactive)
REMARK    1  A    between atoms: N5_13  and  C6_14 
REMARK    2  A    between atoms: C7_16  and  C8_17 
REMARK    3  A    between atoms: C8_17  and  O2_18 
REMARK    4  A    between atoms: O2_18  and  P1_19 
REMARK    5  A    between atoms: P1_19  and  O5_22 
REMARK    6  A    between atoms: O5_22  and  P2_23 
REMARK    7  A    between atoms: C9_27  and  O9_28 
REMARK    8  A    between atoms: C10_30  and  O10_31 
ROOT
HETATM    1  C6  UNL     1       9.453   4.347 104.371  1.00  0.00     0.262 C 
HETATM    2  O1  UNL     1      10.220   4.285 103.226  1.00  0.00    -0.353 OA
HETATM    3  C7  UNL     1      10.803   5.498 103.004  1.00  0.00     0.180 C 
HETATM    4  C9  UNL     1      10.699   6.288 104.286  1.00  0.00     0.182 C 
HETATM    5  C10 UNL     1       9.317   5.792 104.734  1.00  0.00     0.198 C 
ENDROOT
BRANCH   1   6
HETATM    6  N5  UNL     1      10.051   3.532 105.377  1.00  0.00    -0.297 N 
HETATM    7  C3  UNL     1       9.542   3.155 106.563  1.00  0.00     0.142 A 
HETATM    8  N3  UNL     1       8.376   3.403 107.156  1.00  0.00    -0.336 N 
HETATM    9  C4  UNL     1      10.454   2.375 107.215  1.00  0.00     0.119 A 
HETATM   10  C2  UNL     1       8.089   2.903 108.372  1.00  0.00     0.183 A 
ATOM     11  H3  UNL     1       7.685   3.982 106.679  1.00  0.00     0.168 HD
HETATM   12  N2  UNL     1       8.969   2.140 109.024  1.00  0.00    -0.339 N 
HETATM   13  C1  UNL     1      10.148   1.869 108.462  1.00  0.00     0.148 A 
ATOM     14  H2  UNL     1       8.740   1.766 109.945  1.00  0.00     0.167 HD
HETATM   15  N1  UNL     1      11.126   1.069 109.095  1.00  0.00    -0.080 NA
HETATM   16  N4  UNL     1      11.517   2.281 106.424  1.00  0.00    -0.346 N 
HETATM   17  C5  UNL     1      11.275   2.975 105.321  1.00  0.00     0.188 A 
ATOM     18  H4  UNL     1      12.371   1.764 106.630  1.00  0.00     0.167 HD
ENDBRANCH   1   6
BRANCH   5  19
HETATM   19  O10 UNL     1       8.399   6.364 103.845  1.00  0.00    -0.388 OA
ATOM     20  H10 UNL     1       7.567   5.925 103.971  1.00  0.00     0.210 HD
ENDBRANCH   5  19
BRANCH   3  21
HETATM   21  C8  UNL     1      12.195   5.447 102.460  1.00  0.00     0.216 C 
BRANCH  21  22
HETATM   22  O2  UNL     1      12.301   5.811 101.142  1.00  0.00    -0.287 OA
BRANCH  22  23
HETATM   23  P1  UNL     1      13.278   7.214 101.087  1.00  0.00     0.418 P 
HETATM   24  O3  UNL     1      14.556   6.919 101.827  1.00  0.00    -0.624 OA
HETATM   25  O4  UNL     1      12.525   8.506 101.859  1.00  0.00    -0.624 OA
BRANCH  23  26
HETATM   26  O5  UNL     1      13.618   7.569  99.489  1.00  0.00    -0.173 OA
BRANCH  26  27
HETATM   27  P2  UNL     1      14.928   6.730  98.878  1.00  0.00     0.431 P 
HETATM   28  O6  UNL     1      14.793   5.233  99.083  1.00  0.00    -0.616 OA
HETATM   29  O7  UNL     1      16.386   7.189  99.610  1.00  0.00    -0.616 OA
HETATM   30  O8  UNL     1      15.044   7.095  97.215  1.00  0.00    -0.616 OA
ENDBRANCH  26  27
ENDBRANCH  23  26
ENDBRANCH  22  23
ENDBRANCH  21  22
ENDBRANCH   3  21
BRANCH   4  31
HETATM   31  O9  UNL     1      10.722   7.649 104.098  1.00  0.00    -0.390 OA
ATOM     32  H9  UNL     1      10.663   8.147 104.905  1.00  0.00     0.210 HD
ENDBRANCH   4  31
TORSDOF 8
ENDMDL
