MODEL 4
REMARK VINA RESULT: -7.721386747      0.896      1.034
REMARK  8 active torsions:
REMARK  status: ('A' for Active; 'I' for Inactive)
REMARK    1  A    between atoms: N5_13  and  C6_14 
REMARK    2  A    between atoms: C7_16  and  C8_17 
REMARK    3  A    between atoms: C8_17  and  O2_18 
REMARK    4  A    between atoms: O2_18  and  P1_19 
REMARK    5  A    between atoms: P1_19  and  O5_22 
REMARK    6  A    between atoms: O5_22  and  P2_23 
REMARK    7  A    between atoms: C9_27  and  O9_28 
REMARK    8  A    between atoms: C10_30  and  O10_31 
ROOT
HETATM    1  C6  UNL     1       9.569   5.055 103.968  1.00  0.00     0.262 C 
HETATM    2  O1  UNL     1       9.704   5.207 102.603  1.00  0.00    -0.353 OA
HETATM    3  C7  UNL     1      10.206   6.445 102.332  1.00  0.00     0.180 C 
HETATM    4  C9  UNL     1      10.775   6.992 103.618  1.00  0.00     0.182 C 
HETATM    5  C10 UNL     1       9.730   6.411 104.580  1.00  0.00     0.198 C 
ENDROOT
BRANCH   1   6
HETATM    6  N5  UNL     1      10.505   4.079 104.423  1.00  0.00    -0.297 N 
HETATM    7  C3  UNL     1      10.501   3.389 105.577  1.00  0.00     0.142 A 
HETATM    8  N3  UNL     1       9.670   3.387 106.617  1.00  0.00    -0.336 N 
HETATM    9  C4  UNL     1      11.585   2.558 105.605  1.00  0.00     0.119 A 
HETATM   10  C2  UNL     1       9.881   2.591 107.680  1.00  0.00     0.183 A 
ATOM     11  H3  UNL     1       8.856   4.002 106.607  1.00  0.00     0.168 HD
HETATM   12  N2  UNL     1      10.935   1.773 107.726  1.00  0.00    -0.339 N 
HETATM   13  C1  UNL     1      11.791   1.746 106.701  1.00  0.00     0.148 A 
ATOM     14  H2  UNL     1      11.085   1.173 108.536  1.00  0.00     0.167 HD
HETATM   15  N1  UNL     1      12.926   0.906 106.683  1.00  0.00    -0.080 NA
HETATM   16  N4  UNL     1      12.245   2.747 104.468  1.00  0.00    -0.346 N 
HETATM   17  C5  UNL     1      11.597   3.660 103.759  1.00  0.00     0.188 A 
ATOM     18  H4  UNL     1      13.103   2.272 104.190  1.00  0.00     0.167 HD
ENDBRANCH   1   6
BRANCH   5  19
HETATM   19  O10 UNL     1       8.549   7.124 104.339  1.00  0.00    -0.388 OA
ATOM     20  H10 UNL     1       8.215   6.847 103.494  1.00  0.00     0.210 HD
ENDBRANCH   5  19
BRANCH   3  21
HETATM   21  C8  UNL     1      11.173   6.506 101.192  1.00  0.00     0.216 C 
BRANCH  21  22
HETATM   22  O2  UNL     1      12.401   5.962 101.462  1.00  0.00    -0.287 OA
BRANCH  22  23
HETATM   23  P1  UNL     1      13.569   7.164 101.118  1.00  0.00     0.418 P 
HETATM   24  O3  UNL     1      14.900   6.678 101.627  1.00  0.00    -0.624 OA
HETATM   25  O4  UNL     1      13.209   8.602 101.915  1.00  0.00    -0.624 OA
BRANCH  23  26
HETATM   26  O5  UNL     1      13.642   7.382  99.462  1.00  0.00    -0.173 OA
BRANCH  26  27
HETATM   27  P2  UNL     1      14.977   6.675  98.748  1.00  0.00     0.431 P 
HETATM   28  O6  UNL     1      15.065   6.988  97.267  1.00  0.00    -0.616 OA
HETATM   29  O7  UNL     1      14.962   4.985  98.885  1.00  0.00    -0.616 OA
HETATM   30  O8  UNL     1      16.363   7.250  99.562  1.00  0.00    -0.616 OA
ENDBRANCH  26  27
ENDBRANCH  23  26
ENDBRANCH  22  23
ENDBRANCH  21  22
ENDBRANCH   3  21
BRANCH   4  31
HETATM   31  O9  UNL     1      10.811   8.366 103.665  1.00  0.00    -0.390 OA
ATOM     32  H9  UNL     1       9.959   8.773 103.563  1.00  0.00     0.210 HD
ENDBRANCH   4  31
TORSDOF 8
ENDMDL
