MODEL 12
REMARK VINA RESULT: -7.530946967      1.030      2.070
REMARK  8 active torsions:
REMARK  status: ('A' for Active; 'I' for Inactive)
REMARK    1  A    between atoms: N5_13  and  C6_14 
REMARK    2  A    between atoms: C7_16  and  C8_17 
REMARK    3  A    between atoms: C8_17  and  O2_18 
REMARK    4  A    between atoms: O2_18  and  P1_19 
REMARK    5  A    between atoms: P1_19  and  O5_22 
REMARK    6  A    between atoms: O5_22  and  P2_23 
REMARK    7  A    between atoms: C9_27  and  O9_28 
REMARK    8  A    between atoms: C10_30  and  O10_31 
ROOT
HETATM    1  C6  UNL     1       8.780   4.722 104.206  1.00  0.00     0.262 C 
HETATM    2  O1  UNL     1       9.648   4.881 103.145  1.00  0.00    -0.353 OA
HETATM    3  C7  UNL     1      10.109   6.164 103.124  1.00  0.00     0.180 C 
HETATM    4  C9  UNL     1       9.802   6.775 104.470  1.00  0.00     0.182 C 
HETATM    5  C10 UNL     1       8.451   6.090 104.714  1.00  0.00     0.198 C 
ENDROOT
BRANCH   1   6
HETATM    6  N5  UNL     1       9.374   3.854 105.169  1.00  0.00    -0.297 N 
HETATM    7  C3  UNL     1      10.581   3.265 105.133  1.00  0.00     0.142 A 
HETATM    8  N3  UNL     1      11.568   3.296 104.239  1.00  0.00    -0.336 N 
HETATM    9  C4  UNL     1      10.747   2.514 106.263  1.00  0.00     0.119 A 
HETATM   10  C2  UNL     1      12.708   2.607 104.430  1.00  0.00     0.183 A 
ATOM     11  H3  UNL     1      11.457   3.854 103.393  1.00  0.00     0.168 HD
HETATM   12  N2  UNL     1      12.887   1.868 105.527  1.00  0.00    -0.339 N 
HETATM   13  C1  UNL     1      11.921   1.813 106.447  1.00  0.00     0.148 A 
ATOM     14  H2  UNL     1      13.755   1.351 105.662  1.00  0.00     0.167 HD
HETATM   15  N1  UNL     1      12.043   1.051 107.631  1.00  0.00    -0.080 NA
HETATM   16  N4  UNL     1       9.638   2.649 106.981  1.00  0.00    -0.346 N 
HETATM   17  C5  UNL     1       8.814   3.453 106.324  1.00  0.00     0.188 A 
ATOM     18  H4  UNL     1       9.453   2.209 107.882  1.00  0.00     0.167 HD
ENDBRANCH   1   6
BRANCH   5  19
HETATM   19  O10 UNL     1       7.557   6.673 103.807  1.00  0.00    -0.388 OA
ATOM     20  H10 UNL     1       7.491   7.595 104.024  1.00  0.00     0.210 HD
ENDBRANCH   5  19
BRANCH   3  21
HETATM   21  C8  UNL     1      11.541   6.323 102.722  1.00  0.00     0.216 C 
BRANCH  21  22
HETATM   22  O2  UNL     1      11.813   7.480 102.040  1.00  0.00    -0.287 OA
BRANCH  22  23
HETATM   23  P1  UNL     1      13.429   7.371 101.492  1.00  0.00     0.418 P 
HETATM   24  O3  UNL     1      14.294   7.004 102.669  1.00  0.00    -0.624 OA
HETATM   25  O4  UNL     1      13.969   8.851 100.901  1.00  0.00    -0.624 OA
BRANCH  23  26
HETATM   26  O5  UNL     1      13.521   6.176 100.327  1.00  0.00    -0.173 OA
BRANCH  26  27
HETATM   27  P2  UNL     1      14.716   6.436  99.188  1.00  0.00     0.431 P 
HETATM   28  O6  UNL     1      15.931   7.121  99.783  1.00  0.00    -0.616 OA
HETATM   29  O7  UNL     1      14.186   7.416  97.910  1.00  0.00    -0.616 OA
HETATM   30  O8  UNL     1      15.146   4.919  98.536  1.00  0.00    -0.616 OA
ENDBRANCH  26  27
ENDBRANCH  23  26
ENDBRANCH  22  23
ENDBRANCH  21  22
ENDBRANCH   3  21
BRANCH   4  31
HETATM   31  O9  UNL     1       9.689   8.145 104.441  1.00  0.00    -0.390 OA
ATOM     32  H9  UNL     1       8.803   8.450 104.282  1.00  0.00     0.210 HD
ENDBRANCH   4  31
TORSDOF 8
ENDMDL
