MODEL 11
REMARK VINA RESULT: -7.600005607      3.321      5.477
REMARK  8 active torsions:
REMARK  status: ('A' for Active; 'I' for Inactive)
REMARK    1  A    between atoms: N5_13  and  C6_14 
REMARK    2  A    between atoms: C7_16  and  C8_17 
REMARK    3  A    between atoms: C8_17  and  O2_18 
REMARK    4  A    between atoms: O2_18  and  P1_19 
REMARK    5  A    between atoms: P1_19  and  O5_22 
REMARK    6  A    between atoms: O5_22  and  P2_23 
REMARK    7  A    between atoms: C9_27  and  O9_28 
REMARK    8  A    between atoms: C10_30  and  O10_31 
ROOT
HETATM    1  C6  UNL     1       8.945   5.393 103.631  1.00  0.00     0.262 C 
HETATM    2  O1  UNL     1       9.828   6.443 103.778  1.00  0.00    -0.353 OA
HETATM    3  C7  UNL     1      11.063   5.958 104.091  1.00  0.00     0.180 C 
HETATM    4  C9  UNL     1      11.063   4.484 103.765  1.00  0.00     0.182 C 
HETATM    5  C10 UNL     1       9.617   4.173 104.177  1.00  0.00     0.198 C 
ENDROOT
BRANCH   1   6
HETATM    6  N5  UNL     1       8.557   5.299 102.262  1.00  0.00    -0.297 N 
HETATM    7  C3  UNL     1       8.664   6.226 101.295  1.00  0.00     0.142 A 
HETATM    8  N3  UNL     1       9.143   7.469 101.294  1.00  0.00    -0.336 N 
HETATM    9  C4  UNL     1       8.168   5.717 100.128  1.00  0.00     0.119 A 
HETATM   10  C2  UNL     1       9.143   8.219 100.177  1.00  0.00     0.183 A 
ATOM     11  H3  UNL     1       9.517   7.861 102.159  1.00  0.00     0.168 HD
HETATM   12  N2  UNL     1       8.663   7.738  99.029  1.00  0.00    -0.339 N 
HETATM   13  C1  UNL     1       8.175   6.496  98.989  1.00  0.00     0.148 A 
ATOM     14  H2  UNL     1       8.668   8.315  98.188  1.00  0.00     0.167 HD
HETATM   15  N1  UNL     1       7.650   5.924  97.809  1.00  0.00    -0.080 NA
HETATM   16  N4  UNL     1       7.760   4.481 100.390  1.00  0.00    -0.346 N 
HETATM   17  C5  UNL     1       7.993   4.230 101.670  1.00  0.00     0.188 A 
ATOM     18  H4  UNL     1       7.340   3.836  99.721  1.00  0.00     0.167 HD
ENDBRANCH   1   6
BRANCH   5  19
HETATM   19  O10 UNL     1       9.588   4.266 105.574  1.00  0.00    -0.388 OA
ATOM     20  H10 UNL     1       9.498   3.385 105.917  1.00  0.00     0.210 HD
ENDBRANCH   5  19
BRANCH   3  21
HETATM   21  C8  UNL     1      12.212   6.693 103.476  1.00  0.00     0.216 C 
BRANCH  21  22
HETATM   22  O2  UNL     1      11.969   7.169 102.214  1.00  0.00    -0.287 OA
BRANCH  22  23
HETATM   23  P1  UNL     1      13.479   7.273 101.418  1.00  0.00     0.418 P 
HETATM   24  O3  UNL     1      14.548   6.856 102.394  1.00  0.00    -0.624 OA
HETATM   25  O4  UNL     1      13.806   8.854 100.944  1.00  0.00    -0.624 OA
BRANCH  23  26
HETATM   26  O5  UNL     1      13.469   6.230 100.111  1.00  0.00    -0.173 OA
BRANCH  26  27
HETATM   27  P2  UNL     1      14.787   6.408  99.098  1.00  0.00     0.431 P 
HETATM   28  O6  UNL     1      15.945   7.104  99.787  1.00  0.00    -0.616 OA
HETATM   29  O7  UNL     1      14.422   7.325  97.720  1.00  0.00    -0.616 OA
HETATM   30  O8  UNL     1      15.251   4.851  98.578  1.00  0.00    -0.616 OA
ENDBRANCH  26  27
ENDBRANCH  23  26
ENDBRANCH  22  23
ENDBRANCH  21  22
ENDBRANCH   3  21
BRANCH   4  31
HETATM   31  O9  UNL     1      11.974   3.758 104.496  1.00  0.00    -0.390 OA
ATOM     32  H9  UNL     1      12.053   2.854 104.216  1.00  0.00     0.210 HD
ENDBRANCH   4  31
TORSDOF 8
ENDMDL
