MODEL 1
REMARK VINA RESULT: -8.584140903      0.000      0.000
REMARK  8 active torsions:
REMARK  status: ('A' for Active; 'I' for Inactive)
REMARK    1  A    between atoms: N5_13  and  C6_14 
REMARK    2  A    between atoms: C7_16  and  C8_17 
REMARK    3  A    between atoms: C8_17  and  O2_18 
REMARK    4  A    between atoms: O2_18  and  P1_19 
REMARK    5  A    between atoms: P1_19  and  O5_22 
REMARK    6  A    between atoms: O5_22  and  P2_23 
REMARK    7  A    between atoms: C9_27  and  O9_28 
REMARK    8  A    between atoms: C10_30  and  O10_31 
ROOT
HETATM    1  C6  UNL     1      10.009   4.391 104.200  1.00  0.00     0.262 C 
HETATM    2  O1  UNL     1      10.328   4.591 102.873  1.00  0.00    -0.353 OA
HETATM    3  C7  UNL     1      10.779   5.867 102.702  1.00  0.00     0.180 C 
HETATM    4  C9  UNL     1      11.118   6.411 104.068  1.00  0.00     0.182 C 
HETATM    5  C10 UNL     1       9.987   5.735 104.856  1.00  0.00     0.198 C 
ENDROOT
BRANCH   1   6
HETATM    6  N5  UNL     1      10.933   3.464 104.767  1.00  0.00    -0.297 N 
HETATM    7  C3  UNL     1      10.855   2.815 105.941  1.00  0.00     0.142 A 
HETATM    8  N3  UNL     1       9.940   2.820 106.909  1.00  0.00    -0.336 N 
HETATM    9  C4  UNL     1      11.959   2.024 106.091  1.00  0.00     0.119 A 
HETATM   10  C2  UNL     1      10.086   2.069 108.015  1.00  0.00     0.183 A 
ATOM     11  H3  UNL     1       9.110   3.406 106.809  1.00  0.00     0.168 HD
HETATM   12  N2  UNL     1      11.158   1.290 108.178  1.00  0.00    -0.339 N 
HETATM   13  C1  UNL     1      12.097   1.258 107.230  1.00  0.00     0.148 A 
ATOM     14  H2  UNL     1      11.258   0.724 109.020  1.00  0.00     0.167 HD
HETATM   15  N1  UNL     1      13.256   0.457 107.337  1.00  0.00    -0.080 NA
HETATM   16  N4  UNL     1      12.705   2.196 105.006  1.00  0.00    -0.346 N 
HETATM   17  C5  UNL     1      12.090   3.060 104.212  1.00  0.00     0.188 A 
ATOM     18  H4  UNL     1      13.598   1.741 104.817  1.00  0.00     0.167 HD
ENDBRANCH   1   6
BRANCH   5  19
HETATM   19  O10 UNL     1       8.807   6.378 104.459  1.00  0.00    -0.388 OA
ATOM     20  H10 UNL     1       8.786   7.225 104.887  1.00  0.00     0.210 HD
ENDBRANCH   5  19
BRANCH   3  21
HETATM   21  C8  UNL     1      11.893   6.024 101.716  1.00  0.00     0.216 C 
BRANCH  21  22
HETATM   22  O2  UNL     1      12.046   7.297 101.234  1.00  0.00    -0.287 OA
BRANCH  22  23
HETATM   23  P1  UNL     1      13.691   7.718 101.444  1.00  0.00     0.418 P 
HETATM   24  O3  UNL     1      13.930   7.937 102.915  1.00  0.00    -0.624 OA
HETATM   25  O4  UNL     1      14.054   9.155 100.647  1.00  0.00    -0.624 OA
BRANCH  23  26
HETATM   26  O5  UNL     1      14.642   6.457 100.897  1.00  0.00    -0.173 OA
BRANCH  26  27
HETATM   27  P2  UNL     1      15.005   6.544  99.268  1.00  0.00     0.431 P 
HETATM   28  O6  UNL     1      13.903   7.218  98.474  1.00  0.00    -0.616 OA
HETATM   29  O7  UNL     1      15.234   5.014  98.575  1.00  0.00    -0.616 OA
HETATM   30  O8  UNL     1      16.467   7.410  99.112  1.00  0.00    -0.616 OA
ENDBRANCH  26  27
ENDBRANCH  23  26
ENDBRANCH  22  23
ENDBRANCH  21  22
ENDBRANCH   3  21
BRANCH   4  31
HETATM   31  O9  UNL     1      11.053   7.782 104.147  1.00  0.00    -0.390 OA
ATOM     32  H9  UNL     1      11.898   8.209 104.068  1.00  0.00     0.210 HD
ENDBRANCH   4  31
TORSDOF 8
ENDMDL
