MODEL 6
REMARK VINA RESULT: -7.705027235      4.008      5.517
REMARK  8 active torsions:
REMARK  status: ('A' for Active; 'I' for Inactive)
REMARK    1  A    between atoms: N5_13  and  C6_14 
REMARK    2  A    between atoms: C7_16  and  C8_17 
REMARK    3  A    between atoms: C8_17  and  O2_18 
REMARK    4  A    between atoms: O2_18  and  P1_19 
REMARK    5  A    between atoms: P1_19  and  O5_22 
REMARK    6  A    between atoms: O5_22  and  P2_23 
REMARK    7  A    between atoms: C9_27  and  O9_28 
REMARK    8  A    between atoms: C10_30  and  O10_31 
ROOT
HETATM    1  C6  UNL     1       8.464   7.034 102.996  1.00  0.00     0.262 C 
HETATM    2  O1  UNL     1       9.100   8.116 102.425  1.00  0.00    -0.353 OA
HETATM    3  C7  UNL     1      10.393   8.163 102.856  1.00  0.00     0.180 C 
HETATM    4  C9  UNL     1      10.715   6.816 103.457  1.00  0.00     0.182 C 
HETATM    5  C10 UNL     1       9.348   6.531 104.094  1.00  0.00     0.198 C 
ENDROOT
BRANCH   1   6
HETATM    6  N5  UNL     1       8.170   6.076 101.980  1.00  0.00    -0.297 N 
HETATM    7  C3  UNL     1       7.987   6.281 100.665  1.00  0.00     0.142 A 
HETATM    8  N3  UNL     1       8.018   7.381  99.916  1.00  0.00    -0.336 N 
HETATM    9  C4  UNL     1       7.726   5.085 100.057  1.00  0.00     0.119 A 
HETATM   10  C2  UNL     1       7.799   7.332  98.589  1.00  0.00     0.183 A 
ATOM     11  H3  UNL     1       8.214   8.280 100.357  1.00  0.00     0.168 HD
HETATM   12  N2  UNL     1       7.542   6.173  97.979  1.00  0.00    -0.339 N 
HETATM   13  C1  UNL     1       7.503   5.048  98.696  1.00  0.00     0.148 A 
ATOM     14  H2  UNL     1       7.378   6.148  96.973  1.00  0.00     0.167 HD
HETATM   15  N1  UNL     1       7.237   3.787  98.116  1.00  0.00    -0.080 NA
HETATM   16  N4  UNL     1       7.751   4.157 101.007  1.00  0.00    -0.346 N 
HETATM   17  C5  UNL     1       8.017   4.752 102.161  1.00  0.00     0.188 A 
ATOM     18  H4  UNL     1       7.592   3.159 100.871  1.00  0.00     0.167 HD
ENDBRANCH   1   6
BRANCH   5  19
HETATM   19  O10 UNL     1       9.233   7.422 105.168  1.00  0.00    -0.388 OA
ATOM     20  H10 UNL     1      10.081   7.469 105.592  1.00  0.00     0.210 HD
ENDBRANCH   5  19
BRANCH   3  21
HETATM   21  C8  UNL     1      11.392   8.601 101.833  1.00  0.00     0.216 C 
BRANCH  21  22
HETATM   22  O2  UNL     1      12.059   7.574 101.217  1.00  0.00    -0.287 OA
BRANCH  22  23
HETATM   23  P1  UNL     1      13.732   7.864 101.430  1.00  0.00     0.418 P 
HETATM   24  O3  UNL     1      13.983   8.075 102.900  1.00  0.00    -0.624 OA
HETATM   25  O4  UNL     1      14.211   9.261 100.623  1.00  0.00    -0.624 OA
BRANCH  23  26
HETATM   26  O5  UNL     1      14.580   6.526 100.897  1.00  0.00    -0.173 OA
BRANCH  26  27
HETATM   27  P2  UNL     1      14.971   6.579  99.273  1.00  0.00     0.431 P 
HETATM   28  O6  UNL     1      13.902   7.277  98.453  1.00  0.00    -0.616 OA
HETATM   29  O7  UNL     1      15.161   5.033  98.604  1.00  0.00    -0.616 OA
HETATM   30  O8  UNL     1      16.462   7.396  99.127  1.00  0.00    -0.616 OA
ENDBRANCH  26  27
ENDBRANCH  23  26
ENDBRANCH  22  23
ENDBRANCH  21  22
ENDBRANCH   3  21
BRANCH   4  31
HETATM   31  O9  UNL     1      11.721   6.857 104.393  1.00  0.00    -0.390 OA
ATOM     32  H9  UNL     1      11.803   7.697 104.828  1.00  0.00     0.210 HD
ENDBRANCH   4  31
TORSDOF 8
ENDMDL
