MODEL 2
REMARK VINA RESULT: -8.309646641      0.760      1.201
REMARK  8 active torsions:
REMARK  status: ('A' for Active; 'I' for Inactive)
REMARK    1  A    between atoms: N5_13  and  C6_14 
REMARK    2  A    between atoms: C7_16  and  C8_17 
REMARK    3  A    between atoms: C8_17  and  O2_18 
REMARK    4  A    between atoms: O2_18  and  P1_19 
REMARK    5  A    between atoms: P1_19  and  O5_22 
REMARK    6  A    between atoms: O5_22  and  P2_23 
REMARK    7  A    between atoms: C9_27  and  O9_28 
REMARK    8  A    between atoms: C10_30  and  O10_31 
ROOT
HETATM    1  C6  UNL     1      10.339   4.667 104.715  1.00  0.00     0.262 C 
HETATM    2  O1  UNL     1      10.208   4.719 103.343  1.00  0.00    -0.353 OA
HETATM    3  C7  UNL     1      10.811   5.848 102.872  1.00  0.00     0.180 C 
HETATM    4  C9  UNL     1      11.704   6.373 103.969  1.00  0.00     0.182 C 
HETATM    5  C10 UNL     1      10.811   6.014 105.165  1.00  0.00     0.198 C 
ENDROOT
BRANCH   1   6
HETATM    6  N5  UNL     1      11.204   3.586 105.060  1.00  0.00    -0.297 N 
HETATM    7  C3  UNL     1      11.182   2.814 106.160  1.00  0.00     0.142 A 
HETATM    8  N3  UNL     1      10.390   2.801 107.231  1.00  0.00    -0.336 N 
HETATM    9  C4  UNL     1      12.192   1.897 106.084  1.00  0.00     0.119 A 
HETATM   10  C2  UNL     1      10.570   1.912 108.224  1.00  0.00     0.183 A 
ATOM     11  H3  UNL     1       9.631   3.480 107.298  1.00  0.00     0.168 HD
HETATM   12  N2  UNL     1      11.551   1.009 108.167  1.00  0.00    -0.339 N 
HETATM   13  C1  UNL     1      12.365   0.990 107.109  1.00  0.00     0.148 A 
ATOM     14  H2  UNL     1      11.677   0.340 108.926  1.00  0.00     0.167 HD
HETATM   15  N1  UNL     1      13.424   0.063 106.984  1.00  0.00    -0.080 NA
HETATM   16  N4  UNL     1      12.826   2.116 104.938  1.00  0.00    -0.346 N 
HETATM   17  C5  UNL     1      12.233   3.129 104.324  1.00  0.00     0.188 A 
ATOM     18  H4  UNL     1      13.630   1.594 104.591  1.00  0.00     0.167 HD
ENDBRANCH   1   6
BRANCH   5  19
HETATM   19  O10 UNL     1       9.717   6.886 105.100  1.00  0.00    -0.388 OA
ATOM     20  H10 UNL     1      10.047   7.741 104.852  1.00  0.00     0.210 HD
ENDBRANCH   5  19
BRANCH   3  21
HETATM   21  C8  UNL     1      11.519   5.695 101.563  1.00  0.00     0.216 C 
BRANCH  21  22
HETATM   22  O2  UNL     1      11.505   6.819 100.778  1.00  0.00    -0.287 OA
BRANCH  22  23
HETATM   23  P1  UNL     1      13.132   7.296 100.557  1.00  0.00     0.418 P 
HETATM   24  O3  UNL     1      14.007   6.318 101.295  1.00  0.00    -0.624 OA
HETATM   25  O4  UNL     1      13.408   8.823 101.208  1.00  0.00    -0.624 OA
BRANCH  23  26
HETATM   26  O5  UNL     1      13.487   7.253  98.924  1.00  0.00    -0.173 OA
BRANCH  26  27
HETATM   27  P2  UNL     1      15.023   6.689  98.583  1.00  0.00     0.431 P 
HETATM   28  O6  UNL     1      15.098   5.175  98.629  1.00  0.00    -0.616 OA
HETATM   29  O7  UNL     1      16.179   7.263  99.683  1.00  0.00    -0.616 OA
HETATM   30  O8  UNL     1      15.451   7.261  97.034  1.00  0.00    -0.616 OA
ENDBRANCH  26  27
ENDBRANCH  23  26
ENDBRANCH  22  23
ENDBRANCH  21  22
ENDBRANCH   3  21
BRANCH   4  31
HETATM   31  O9  UNL     1      11.940   7.725 103.889  1.00  0.00    -0.390 OA
ATOM     32  H9  UNL     1      11.184   8.257 104.110  1.00  0.00     0.210 HD
ENDBRANCH   4  31
TORSDOF 8
ENDMDL
