MODEL 1
REMARK VINA RESULT: -7.189847009      0.000      0.000
REMARK  0 active torsions:
REMARK  status: ('A' for Active; 'I' for Inactive)
ROOT
HETATM    1  O1  UNL     1      17.123   2.017  15.720  1.00  0.00    -0.267 OA
HETATM    2  C1  UNL     1      16.224   2.811  16.175  1.00  0.00     0.266 A 
HETATM    3  N1  UNL     1      15.398   2.373  17.233  1.00  0.00    -0.246 N 
ATOM      4  H1  UNL     1      15.428   1.467  17.700  1.00  0.00     0.182 HD
HETATM    5  S1  UNL     1      14.332   3.672  17.573  1.00  0.00     0.266 S 
HETATM    6  O2  UNL     1      12.912   3.303  17.279  1.00  0.00    -0.200 OA
HETATM    7  O3  UNL     1      14.495   4.215  18.957  1.00  0.00    -0.200 OA
HETATM    8  C2  UNL     1      14.939   4.783  16.361  1.00  0.00     0.095 A 
HETATM    9  C3  UNL     1      14.557   6.086  16.022  1.00  0.00     0.026 A 
HETATM   10  C4  UNL     1      15.202   6.756  15.016  1.00  0.00     0.002 A 
HETATM   11  C5  UNL     1      16.222   6.106  14.363  1.00  0.00     0.001 A 
HETATM   12  C6  UNL     1      16.607   4.824  14.687  1.00  0.00     0.018 A 
HETATM   13  C7  UNL     1      15.945   4.138  15.720  1.00  0.00     0.056 A 
ENDROOT
TORSDOF 0
ENDMDL
