MODEL 20
REMARK VINA RESULT: -5.490526896      6.287      7.267
REMARK  0 active torsions:
REMARK  status: ('A' for Active; 'I' for Inactive)
ROOT
HETATM    1  O1  UNL     1      16.137   5.864  10.634  1.00  0.00    -0.267 OA
HETATM    2  C1  UNL     1      17.194   5.152  10.780  1.00  0.00     0.266 A 
HETATM    3  N1  UNL     1      18.455   5.787  10.748  1.00  0.00    -0.246 N 
ATOM      4  H1  UNL     1      18.637   6.782  10.618  1.00  0.00     0.182 HD
HETATM    5  S1  UNL     1      19.618   4.547  10.970  1.00  0.00     0.266 S 
HETATM    6  O2  UNL     1      20.479   4.385   9.758  1.00  0.00    -0.200 OA
HETATM    7  O3  UNL     1      20.427   4.721  12.215  1.00  0.00    -0.200 OA
HETATM    8  C2  UNL     1      18.494   3.208  11.106  1.00  0.00     0.095 A 
HETATM    9  C3  UNL     1      18.702   1.838  11.304  1.00  0.00     0.026 A 
HETATM   10  C4  UNL     1      17.636   0.980  11.376  1.00  0.00     0.002 A 
HETATM   11  C5  UNL     1      16.375   1.512  11.247  1.00  0.00     0.001 A 
HETATM   12  C6  UNL     1      16.158   2.858  11.051  1.00  0.00     0.018 A 
HETATM   13  C7  UNL     1      17.252   3.738  10.978  1.00  0.00     0.056 A 
ENDROOT
TORSDOF 0
ENDMDL
