MODEL 15
REMARK VINA RESULT: -5.561192119      5.237      6.300
REMARK  0 active torsions:
REMARK  status: ('A' for Active; 'I' for Inactive)
ROOT
HETATM    1  O1  UNL     1      20.446   4.468  10.120  1.00  0.00    -0.267 OA
HETATM    2  C1  UNL     1      19.410   4.472  10.877  1.00  0.00     0.266 A 
HETATM    3  N1  UNL     1      18.998   5.688  11.463  1.00  0.00    -0.246 N 
ATOM      4  H1  UNL     1      19.438   6.602  11.356  1.00  0.00     0.182 HD
HETATM    5  S1  UNL     1      17.605   5.319  12.394  1.00  0.00     0.266 S 
HETATM    6  O2  UNL     1      17.852   5.539  13.853  1.00  0.00    -0.200 OA
HETATM    7  O3  UNL     1      16.379   6.029  11.918  1.00  0.00    -0.200 OA
HETATM    8  C2  UNL     1      17.546   3.604  12.035  1.00  0.00     0.095 A 
HETATM    9  C3  UNL     1      16.660   2.600  12.446  1.00  0.00     0.026 A 
HETATM   10  C4  UNL     1      16.831   1.310  12.019  1.00  0.00     0.002 A 
HETATM   11  C5  UNL     1      17.891   1.046  11.183  1.00  0.00     0.001 A 
HETATM   12  C6  UNL     1      18.768   2.025  10.773  1.00  0.00     0.018 A 
HETATM   13  C7  UNL     1      18.592   3.349  11.211  1.00  0.00     0.056 A 
ENDROOT
TORSDOF 0
ENDMDL
