MODEL 16
REMARK VINA RESULT: -5.538888466      4.061      5.424
REMARK  0 active torsions:
REMARK  status: ('A' for Active; 'I' for Inactive)
ROOT
HETATM    1  O1  UNL     1      16.417   1.703  14.347  1.00  0.00    -0.267 OA
HETATM    2  C1  UNL     1      16.719   2.258  13.231  1.00  0.00     0.266 A 
HETATM    3  N1  UNL     1      17.179   1.450  12.168  1.00  0.00    -0.246 N 
ATOM      4  H1  UNL     1      17.305   0.438  12.177  1.00  0.00     0.182 HD
HETATM    5  S1  UNL     1      17.482   2.515  10.859  1.00  0.00     0.266 S 
HETATM    6  O2  UNL     1      18.935   2.542  10.504  1.00  0.00    -0.200 OA
HETATM    7  O3  UNL     1      16.619   2.238   9.670  1.00  0.00    -0.200 OA
HETATM    8  C2  UNL     1      17.021   4.001  11.667  1.00  0.00     0.095 A 
HETATM    9  C3  UNL     1      16.999   5.329  11.226  1.00  0.00     0.026 A 
HETATM   10  C4  UNL     1      16.590   6.330  12.066  1.00  0.00     0.002 A 
HETATM   11  C5  UNL     1      16.208   5.982  13.340  1.00  0.00     0.001 A 
HETATM   12  C6  UNL     1      16.225   4.679  13.786  1.00  0.00     0.018 A 
HETATM   13  C7  UNL     1      16.645   3.652  12.923  1.00  0.00     0.056 A 
ENDROOT
TORSDOF 0
ENDMDL
