MODEL 5
REMARK VINA RESULT: -6.370863904      2.036      2.616
REMARK  0 active torsions:
REMARK  status: ('A' for Active; 'I' for Inactive)
ROOT
HETATM    1  O1  UNL     1      16.378   3.868  12.074  1.00  0.00    -0.267 OA
HETATM    2  C1  UNL     1      16.214   3.854  13.346  1.00  0.00     0.266 A 
HETATM    3  N1  UNL     1      16.562   2.691  14.067  1.00  0.00    -0.246 N 
ATOM      4  H1  UNL     1      16.944   1.825  13.687  1.00  0.00     0.182 HD
HETATM    5  S1  UNL     1      16.213   3.029  15.712  1.00  0.00     0.266 S 
HETATM    6  O2  UNL     1      15.123   2.144  16.229  1.00  0.00    -0.200 OA
HETATM    7  O3  UNL     1      17.426   2.995  16.585  1.00  0.00    -0.200 OA
HETATM    8  C2  UNL     1      15.619   4.662  15.484  1.00  0.00     0.095 A 
HETATM    9  C3  UNL     1      15.135   5.609  16.393  1.00  0.00     0.026 A 
HETATM   10  C4  UNL     1      14.722   6.840  15.956  1.00  0.00     0.002 A 
HETATM   11  C5  UNL     1      14.802   7.102  14.609  1.00  0.00     0.001 A 
HETATM   12  C6  UNL     1      15.276   6.179  13.704  1.00  0.00     0.018 A 
HETATM   13  C7  UNL     1      15.700   4.916  14.153  1.00  0.00     0.056 A 
ENDROOT
TORSDOF 0
ENDMDL
