MODEL 8
REMARK VINA RESULT: -10.516837285      2.344     11.411
REMARK  16 active torsions:
REMARK  status: ('A' for Active; 'I' for Inactive)
REMARK       I    between atoms: C2_2  and  N1_4 
REMARK    1  A    between atoms: N1_4  and  C3_6 
REMARK    2  A    between atoms: C3_6  and  C4_7 
REMARK    3  A    between atoms: C3_6  and  C35_50 
REMARK       I    between atoms: C4_7  and  N2_9 
REMARK    4  A    between atoms: N2_9  and  C5_11 
REMARK    5  A    between atoms: C5_11  and  C6_12 
REMARK    6  A    between atoms: C5_11  and  C13_19 
REMARK    7  A    between atoms: C6_12  and  C7_13 
REMARK    8  A    between atoms: C13_19  and  C14_20 
REMARK    9  A    between atoms: C14_20  and  O3_21 
REMARK   10  A    between atoms: C14_20  and  C15_23 
REMARK   11  A    between atoms: C15_23  and  C16_24 
REMARK   12  A    between atoms: C15_23  and  N3_31 
REMARK   13  A    between atoms: C16_24  and  C17_25 
REMARK       I    between atoms: N3_31  and  C23_33 
REMARK   14  A    between atoms: C23_33  and  C24_35 
REMARK   15  A    between atoms: N4_37  and  C26_38 
REMARK   16  A    between atoms: C30_42  and  C31_43 
ROOT
HETATM    1  C15 UNL     1      19.883   0.275  17.377  1.00  0.00     0.022 C 
ENDROOT
BRANCH   1   2
HETATM    2  C14 UNL     1      19.050  -0.426  16.326  1.00  0.00     0.166 C 
BRANCH   2   3
HETATM    3  C13 UNL     1      19.897  -0.794  15.131  1.00  0.00     0.063 C 
BRANCH   3   4
HETATM    4  C5  UNL     1      20.190  -2.229  15.008  1.00  0.00     0.091 C 
BRANCH   4   5
HETATM    5  N2  UNL     1      19.217  -2.933  14.167  1.00  0.00    -0.354 N 
HETATM    6  C4  UNL     1      18.531  -4.084  14.560  1.00  0.00     0.241 C 
HETATM    7  O2  UNL     1      18.758  -4.553  15.687  1.00  0.00    -0.271 OA
ATOM      8  H2  UNL     1      19.029  -2.559  13.238  1.00  0.00     0.162 HD
BRANCH   6   9
HETATM    9  C3  UNL     1      17.540  -4.786  13.693  1.00  0.00     0.179 C 
BRANCH   9  10
HETATM   10  N1  UNL     1      17.910  -6.199  13.506  1.00  0.00    -0.348 N 
HETATM   11  C2  UNL     1      18.530  -6.587  12.269  1.00  0.00     0.214 C 
HETATM   12  C1  UNL     1      18.928  -8.008  12.029  1.00  0.00     0.117 C 
HETATM   13  O1  UNL     1      18.730  -5.707  11.396  1.00  0.00    -0.274 OA
ATOM     14  H1  UNL     1      17.731  -6.887  14.237  1.00  0.00     0.163 HD
ENDBRANCH   9  10
BRANCH   9  15
HETATM   15  C35 UNL     1      16.229  -4.811  14.455  1.00  0.00     0.009 C 
HETATM   16  C36 UNL     1      15.580  -3.448  14.501  1.00  0.00     0.012 C 
HETATM   17  C37 UNL     1      15.274  -5.796  13.873  1.00  0.00     0.012 C 
ENDBRANCH   9  15
ENDBRANCH   6   9
ENDBRANCH   4   5
BRANCH   4  18
HETATM   18  C6  UNL     1      21.574  -2.440  14.442  1.00  0.00     0.063 C 
BRANCH  18  19
HETATM   19  C7  UNL     1      22.070  -3.801  14.491  1.00  0.00    -0.056 A 
HETATM   20  C8  UNL     1      22.174  -4.705  13.469  1.00  0.00     0.007 A 
HETATM   21  C9  UNL     1      22.651  -5.983  13.608  1.00  0.00     0.001 A 
HETATM   22  C10 UNL     1      23.052  -6.372  14.898  1.00  0.00     0.000 A 
HETATM   23  C11 UNL     1      22.971  -5.507  15.965  1.00  0.00     0.001 A 
HETATM   24  C12 UNL     1      22.486  -4.241  15.756  1.00  0.00     0.007 A 
ENDBRANCH  18  19
ENDBRANCH   4  18
ENDBRANCH   3   4
ENDBRANCH   2   3
BRANCH   2  25
HETATM   25  O3  UNL     1      17.978   0.329  15.915  1.00  0.00    -0.390 OA
ATOM     26  H3  UNL     1      17.639   0.826  16.650  1.00  0.00     0.210 HD
ENDBRANCH   2  25
ENDBRANCH   1   2
BRANCH   1  27
HETATM   27  C16 UNL     1      20.848  -0.610  18.093  1.00  0.00     0.093 C 
BRANCH  27  28
HETATM   28  C17 UNL     1      22.227  -0.170  18.200  1.00  0.00    -0.053 A 
HETATM   29  C18 UNL     1      22.705   0.289  19.393  1.00  0.00     0.007 A 
HETATM   30  C19 UNL     1      24.014   0.685  19.498  1.00  0.00     0.001 A 
HETATM   31  C20 UNL     1      24.859   0.617  18.389  1.00  0.00     0.000 A 
HETATM   32  C21 UNL     1      24.364   0.151  17.191  1.00  0.00     0.001 A 
HETATM   33  C22 UNL     1      23.066  -0.231  17.119  1.00  0.00     0.007 A 
ENDBRANCH  27  28
ENDBRANCH   1  27
BRANCH   1  34
HETATM   34  N3  UNL     1      19.204   1.243  18.147  1.00  0.00    -0.329 N 
HETATM   35  C23 UNL     1      18.247   0.977  19.133  1.00  0.00     0.253 C 
HETATM   36  O4  UNL     1      17.890  -0.155  19.437  1.00  0.00    -0.270 OA
ATOM     37  H3  UNL     1      19.431   2.221  17.970  1.00  0.00     0.168 HD
BRANCH  35  38
HETATM   38  C24 UNL     1      17.599   2.122  19.889  1.00  0.00     0.244 C 
HETATM   39  C25 UNL     1      18.631   3.112  20.282  1.00  0.00     0.177 C 
HETATM   40  N4  UNL     1      18.889   2.863  21.679  1.00  0.00    -0.291 N 
HETATM   41  C34 UNL     1      18.158   1.668  22.003  1.00  0.00     0.368 C 
HETATM   42  O6  UNL     1      18.478   0.878  22.922  1.00  0.00    -0.238 OA
HETATM   43  O7  UNL     1      17.087   1.622  21.098  1.00  0.00    -0.287 OA
BRANCH  40  44
HETATM   44  C26 UNL     1      19.698   3.655  22.543  1.00  0.00     0.040 A 
HETATM   45  C27 UNL     1      19.194   4.269  23.665  1.00  0.00     0.030 A 
HETATM   46  C28 UNL     1      19.982   5.027  24.492  1.00  0.00     0.003 A 
HETATM   47  C29 UNL     1      21.326   5.202  24.219  1.00  0.00     0.015 A 
HETATM   48  C30 UNL     1      21.847   4.604  23.114  1.00  0.00     0.011 A 
HETATM   49  C33 UNL     1      21.042   3.840  22.285  1.00  0.00     0.044 A 
BRANCH  48  50
HETATM   50  C31 UNL     1      23.246   4.753  22.784  1.00  0.00     0.155 C 
HETATM   51  C32 UNL     1      24.005   3.591  22.206  1.00  0.00     0.096 C 
HETATM   52  O5  UNL     1      23.834   5.825  22.970  1.00  0.00    -0.293 OA
ENDBRANCH  48  50
ENDBRANCH  40  44
ENDBRANCH  35  38
ENDBRANCH   1  34
TORSDOF 16
ENDMDL
