MODEL 6
REMARK VINA RESULT: -10.575017086      1.574      5.470
REMARK  16 active torsions:
REMARK  status: ('A' for Active; 'I' for Inactive)
REMARK       I    between atoms: C2_2  and  N1_4 
REMARK    1  A    between atoms: N1_4  and  C3_6 
REMARK    2  A    between atoms: C3_6  and  C4_7 
REMARK    3  A    between atoms: C3_6  and  C35_50 
REMARK       I    between atoms: C4_7  and  N2_9 
REMARK    4  A    between atoms: N2_9  and  C5_11 
REMARK    5  A    between atoms: C5_11  and  C6_12 
REMARK    6  A    between atoms: C5_11  and  C13_19 
REMARK    7  A    between atoms: C6_12  and  C7_13 
REMARK    8  A    between atoms: C13_19  and  C14_20 
REMARK    9  A    between atoms: C14_20  and  O3_21 
REMARK   10  A    between atoms: C14_20  and  C15_23 
REMARK   11  A    between atoms: C15_23  and  C16_24 
REMARK   12  A    between atoms: C15_23  and  N3_31 
REMARK   13  A    between atoms: C16_24  and  C17_25 
REMARK       I    between atoms: N3_31  and  C23_33 
REMARK   14  A    between atoms: C23_33  and  C24_35 
REMARK   15  A    between atoms: N4_37  and  C26_38 
REMARK   16  A    between atoms: C30_42  and  C31_43 
ROOT
HETATM    1  C15 UNL     1      18.198  -2.046  15.816  1.00  0.00     0.022 C 
ENDROOT
BRANCH   1   2
HETATM    2  C14 UNL     1      19.608  -2.314  15.338  1.00  0.00     0.166 C 
BRANCH   2   3
HETATM    3  C13 UNL     1      20.486  -2.758  16.486  1.00  0.00     0.063 C 
BRANCH   3   4
HETATM    4  C5  UNL     1      21.890  -2.339  16.377  1.00  0.00     0.091 C 
BRANCH   4   5
HETATM    5  N2  UNL     1      22.269  -1.365  17.405  1.00  0.00    -0.354 N 
HETATM    6  C4  UNL     1      22.150   0.018  17.255  1.00  0.00     0.241 C 
HETATM    7  O2  UNL     1      21.702   0.461  16.185  1.00  0.00    -0.271 OA
ATOM      8  H2  UNL     1      22.644  -1.720  18.284  1.00  0.00     0.162 HD
BRANCH   6   9
HETATM    9  C3  UNL     1      22.537   0.996  18.314  1.00  0.00     0.179 C 
BRANCH   9  10
HETATM   10  N1  UNL     1      21.600   0.943  19.449  1.00  0.00    -0.348 N 
HETATM   11  C2  UNL     1      20.707   2.050  19.652  1.00  0.00     0.214 C 
HETATM   12  C1  UNL     1      19.735   2.046  20.787  1.00  0.00     0.117 C 
HETATM   13  O1  UNL     1      20.761   3.019  18.855  1.00  0.00    -0.274 OA
ATOM     14  H1  UNL     1      21.586   0.139  20.076  1.00  0.00     0.163 HD
ENDBRANCH   9  10
BRANCH   9  15
HETATM   15  C35 UNL     1      23.870   0.537  18.870  1.00  0.00     0.009 C 
HETATM   16  C36 UNL     1      24.979   0.668  17.854  1.00  0.00     0.012 C 
HETATM   17  C37 UNL     1      24.238   1.286  20.105  1.00  0.00     0.012 C 
ENDBRANCH   9  15
ENDBRANCH   6   9
ENDBRANCH   4   5
BRANCH   4  18
HETATM   18  C6  UNL     1      22.808  -3.536  16.470  1.00  0.00     0.063 C 
BRANCH  18  19
HETATM   19  C7  UNL     1      22.644  -4.532  15.430  1.00  0.00    -0.056 A 
HETATM   20  C8  UNL     1      22.599  -5.894  15.558  1.00  0.00     0.007 A 
HETATM   21  C9  UNL     1      22.448  -6.768  14.512  1.00  0.00     0.001 A 
HETATM   22  C10 UNL     1      22.337  -6.205  13.228  1.00  0.00     0.000 A 
HETATM   23  C11 UNL     1      22.375  -4.843  13.038  1.00  0.00     0.001 A 
HETATM   24  C12 UNL     1      22.526  -4.025  14.129  1.00  0.00     0.007 A 
ENDBRANCH  18  19
ENDBRANCH   4  18
ENDBRANCH   3   4
ENDBRANCH   2   3
BRANCH   2  25
HETATM   25  O3  UNL     1      20.173  -1.222  14.724  1.00  0.00    -0.390 OA
ATOM     26  H3  UNL     1      20.272  -0.519  15.355  1.00  0.00     0.210 HD
ENDBRANCH   2  25
ENDBRANCH   1   2
BRANCH   1  27
HETATM   27  C16 UNL     1      18.077  -1.805  17.285  1.00  0.00     0.093 C 
BRANCH  27  28
HETATM   28  C17 UNL     1      17.684  -0.481  17.729  1.00  0.00    -0.053 A 
HETATM   29  C18 UNL     1      18.035   0.616  16.996  1.00  0.00     0.007 A 
HETATM   30  C19 UNL     1      17.645   1.865  17.406  1.00  0.00     0.001 A 
HETATM   31  C20 UNL     1      16.888   2.018  18.570  1.00  0.00     0.000 A 
HETATM   32  C21 UNL     1      16.541   0.903  19.300  1.00  0.00     0.001 A 
HETATM   33  C22 UNL     1      16.943  -0.318  18.869  1.00  0.00     0.007 A 
ENDBRANCH  27  28
ENDBRANCH   1  27
BRANCH   1  34
HETATM   34  N3  UNL     1      17.189  -2.822  15.207  1.00  0.00    -0.329 N 
HETATM   35  C23 UNL     1      17.078  -4.215  15.277  1.00  0.00     0.253 C 
HETATM   36  O4  UNL     1      17.865  -4.924  15.891  1.00  0.00    -0.270 OA
ATOM     37  H3  UNL     1      16.480  -2.324  14.668  1.00  0.00     0.168 HD
BRANCH  35  38
HETATM   38  C24 UNL     1      15.933  -4.920  14.572  1.00  0.00     0.244 C 
HETATM   39  C25 UNL     1      16.051  -6.386  14.768  1.00  0.00     0.177 C 
HETATM   40  N4  UNL     1      16.596  -6.895  13.534  1.00  0.00    -0.291 N 
HETATM   41  C34 UNL     1      16.933  -5.737  12.750  1.00  0.00     0.368 C 
HETATM   42  O6  UNL     1      17.828  -5.720  11.872  1.00  0.00    -0.238 OA
HETATM   43  O7  UNL     1      16.072  -4.720  13.188  1.00  0.00    -0.287 OA
BRANCH  40  44
HETATM   44  C26 UNL     1      16.754  -8.266  13.181  1.00  0.00     0.040 A 
HETATM   45  C27 UNL     1      15.685  -9.122  13.062  1.00  0.00     0.030 A 
HETATM   46  C28 UNL     1      15.847 -10.439  12.719  1.00  0.00     0.003 A 
HETATM   47  C29 UNL     1      17.107 -10.956  12.482  1.00  0.00     0.015 A 
HETATM   48  C30 UNL     1      18.180 -10.128  12.595  1.00  0.00     0.011 A 
HETATM   49  C33 UNL     1      18.005  -8.798  12.941  1.00  0.00     0.044 A 
BRANCH  48  50
HETATM   50  C31 UNL     1      19.519 -10.616  12.356  1.00  0.00     0.155 C 
HETATM   51  C32 UNL     1      20.041 -11.783  13.148  1.00  0.00     0.096 C 
HETATM   52  O5  UNL     1      20.248 -10.088  11.507  1.00  0.00    -0.293 OA
ENDBRANCH  48  50
ENDBRANCH  40  44
ENDBRANCH  35  38
ENDBRANCH   1  34
TORSDOF 16
ENDMDL
