MODEL 1
REMARK VINA RESULT: -10.804228556      0.000      0.000
REMARK  16 active torsions:
REMARK  status: ('A' for Active; 'I' for Inactive)
REMARK       I    between atoms: C2_2  and  N1_4 
REMARK    1  A    between atoms: N1_4  and  C3_6 
REMARK    2  A    between atoms: C3_6  and  C4_7 
REMARK    3  A    between atoms: C3_6  and  C35_50 
REMARK       I    between atoms: C4_7  and  N2_9 
REMARK    4  A    between atoms: N2_9  and  C5_11 
REMARK    5  A    between atoms: C5_11  and  C6_12 
REMARK    6  A    between atoms: C5_11  and  C13_19 
REMARK    7  A    between atoms: C6_12  and  C7_13 
REMARK    8  A    between atoms: C13_19  and  C14_20 
REMARK    9  A    between atoms: C14_20  and  O3_21 
REMARK   10  A    between atoms: C14_20  and  C15_23 
REMARK   11  A    between atoms: C15_23  and  C16_24 
REMARK   12  A    between atoms: C15_23  and  N3_31 
REMARK   13  A    between atoms: C16_24  and  C17_25 
REMARK       I    between atoms: N3_31  and  C23_33 
REMARK   14  A    between atoms: C23_33  and  C24_35 
REMARK   15  A    between atoms: N4_37  and  C26_38 
REMARK   16  A    between atoms: C30_42  and  C31_43 
ROOT
HETATM    1  C15 UNL     1      20.359  -2.456  14.619  1.00  0.00     0.022 C 
ENDROOT
BRANCH   1   2
HETATM    2  C14 UNL     1      20.154  -1.008  15.007  1.00  0.00     0.166 C 
BRANCH   2   3
HETATM    3  C13 UNL     1      18.858  -0.836  15.765  1.00  0.00     0.063 C 
BRANCH   3   4
HETATM    4  C5  UNL     1      18.978  -0.068  17.012  1.00  0.00     0.091 C 
BRANCH   4   5
HETATM    5  N2  UNL     1      20.242   0.669  17.102  1.00  0.00    -0.354 N 
HETATM    6  C4  UNL     1      21.105   0.613  18.197  1.00  0.00     0.241 C 
HETATM    7  O2  UNL     1      20.788  -0.097  19.165  1.00  0.00    -0.271 OA
ATOM      8  H2  UNL     1      20.507   1.260  16.314  1.00  0.00     0.162 HD
BRANCH   6   9
HETATM    9  C3  UNL     1      22.391   1.367  18.270  1.00  0.00     0.179 C 
BRANCH   9  10
HETATM   10  N1  UNL     1      22.570   1.979  19.598  1.00  0.00    -0.348 N 
HETATM   11  C2  UNL     1      22.181   3.350  19.778  1.00  0.00     0.214 C 
HETATM   12  C1  UNL     1      22.339   4.019  21.106  1.00  0.00     0.117 C 
HETATM   13  O1  UNL     1      21.706   3.973  18.797  1.00  0.00    -0.274 OA
ATOM     14  H1  UNL     1      22.960   1.442  20.372  1.00  0.00     0.163 HD
ENDBRANCH   9  10
BRANCH   9  15
HETATM   15  C35 UNL     1      23.506   0.348  18.143  1.00  0.00     0.009 C 
HETATM   16  C36 UNL     1      23.438  -0.400  16.833  1.00  0.00     0.012 C 
HETATM   17  C37 UNL     1      24.848   0.981  18.283  1.00  0.00     0.012 C 
ENDBRANCH   9  15
ENDBRANCH   6   9
ENDBRANCH   4   5
BRANCH   4  18
HETATM   18  C6  UNL     1      17.830   0.904  17.148  1.00  0.00     0.063 C 
BRANCH  18  19
HETATM   19  C7  UNL     1      17.755   1.612  18.410  1.00  0.00    -0.056 A 
HETATM   20  C8  UNL     1      18.079   2.916  18.673  1.00  0.00     0.007 A 
HETATM   21  C9  UNL     1      17.984   3.506  19.907  1.00  0.00     0.001 A 
HETATM   22  C10 UNL     1      17.523   2.698  20.961  1.00  0.00     0.000 A 
HETATM   23  C11 UNL     1      17.182   1.380  20.757  1.00  0.00     0.001 A 
HETATM   24  C12 UNL     1      17.299   0.853  19.497  1.00  0.00     0.007 A 
ENDBRANCH  18  19
ENDBRANCH   4  18
ENDBRANCH   3   4
ENDBRANCH   2   3
BRANCH   2  25
HETATM   25  O3  UNL     1      20.166  -0.166  13.921  1.00  0.00    -0.390 OA
ATOM     26  H3  UNL     1      21.061   0.080  13.720  1.00  0.00     0.210 HD
ENDBRANCH   2  25
ENDBRANCH   1   2
BRANCH   1  27
HETATM   27  C16 UNL     1      21.738  -2.782  14.150  1.00  0.00     0.093 C 
BRANCH  27  28
HETATM   28  C17 UNL     1      22.196  -4.153  14.278  1.00  0.00    -0.053 A 
HETATM   29  C18 UNL     1      22.616  -4.620  15.489  1.00  0.00     0.007 A 
HETATM   30  C19 UNL     1      23.029  -5.922  15.613  1.00  0.00     0.001 A 
HETATM   31  C20 UNL     1      23.020  -6.770  14.504  1.00  0.00     0.000 A 
HETATM   32  C21 UNL     1      22.594  -6.285  13.288  1.00  0.00     0.001 A 
HETATM   33  C22 UNL     1      22.193  -4.994  13.197  1.00  0.00     0.007 A 
ENDBRANCH  27  28
ENDBRANCH   1  27
BRANCH   1  34
HETATM   34  N3  UNL     1      19.285  -3.061  13.932  1.00  0.00    -0.329 N 
HETATM   35  C23 UNL     1      18.673  -4.271  14.279  1.00  0.00     0.253 C 
HETATM   36  O4  UNL     1      19.014  -4.947  15.242  1.00  0.00    -0.270 OA
ATOM     37  H3  UNL     1      18.924  -2.575  13.111  1.00  0.00     0.168 HD
BRANCH  35  38
HETATM   38  C24 UNL     1      17.520  -4.803  13.448  1.00  0.00     0.244 C 
HETATM   39  C25 UNL     1      17.017  -6.067  14.039  1.00  0.00     0.177 C 
HETATM   40  N4  UNL     1      17.569  -7.119  13.219  1.00  0.00    -0.291 N 
HETATM   41  C34 UNL     1      18.483  -6.471  12.318  1.00  0.00     0.368 C 
HETATM   42  O6  UNL     1      19.477  -7.035  11.803  1.00  0.00    -0.238 OA
HETATM   43  O7  UNL     1      18.012  -5.157  12.180  1.00  0.00    -0.287 OA
BRANCH  40  44
HETATM   44  C26 UNL     1      17.253  -8.505  13.299  1.00  0.00     0.040 A 
HETATM   45  C27 UNL     1      16.023  -9.002  12.939  1.00  0.00     0.030 A 
HETATM   46  C28 UNL     1      15.730 -10.338  13.016  1.00  0.00     0.003 A 
HETATM   47  C29 UNL     1      16.675 -11.242  13.468  1.00  0.00     0.015 A 
HETATM   48  C30 UNL     1      17.900 -10.774  13.830  1.00  0.00     0.011 A 
HETATM   49  C33 UNL     1      18.185  -9.420  13.747  1.00  0.00     0.044 A 
BRANCH  48  50
HETATM   50  C31 UNL     1      18.923 -11.675  14.306  1.00  0.00     0.155 C 
HETATM   51  C32 UNL     1      19.999 -11.165  15.225  1.00  0.00     0.096 C 
HETATM   52  O5  UNL     1      18.933 -12.865  13.968  1.00  0.00    -0.293 OA
ENDBRANCH  48  50
ENDBRANCH  40  44
ENDBRANCH  35  38
ENDBRANCH   1  34
TORSDOF 16
ENDMDL
