MODEL 4
REMARK VINA RESULT: -10.625640368      2.219     10.869
REMARK  16 active torsions:
REMARK  status: ('A' for Active; 'I' for Inactive)
REMARK       I    between atoms: C2_2  and  N1_4 
REMARK    1  A    between atoms: N1_4  and  C3_6 
REMARK    2  A    between atoms: C3_6  and  C4_7 
REMARK    3  A    between atoms: C3_6  and  C35_50 
REMARK       I    between atoms: C4_7  and  N2_9 
REMARK    4  A    between atoms: N2_9  and  C5_11 
REMARK    5  A    between atoms: C5_11  and  C6_12 
REMARK    6  A    between atoms: C5_11  and  C13_19 
REMARK    7  A    between atoms: C6_12  and  C7_13 
REMARK    8  A    between atoms: C13_19  and  C14_20 
REMARK    9  A    between atoms: C14_20  and  O3_21 
REMARK   10  A    between atoms: C14_20  and  C15_23 
REMARK   11  A    between atoms: C15_23  and  C16_24 
REMARK   12  A    between atoms: C15_23  and  N3_31 
REMARK   13  A    between atoms: C16_24  and  C17_25 
REMARK       I    between atoms: N3_31  and  C23_33 
REMARK   14  A    between atoms: C23_33  and  C24_35 
REMARK   15  A    between atoms: N4_37  and  C26_38 
REMARK   16  A    between atoms: C30_42  and  C31_43 
ROOT
HETATM    1  C15 UNL     1      20.957  -0.364  16.058  1.00  0.00     0.022 C 
ENDROOT
BRANCH   1   2
HETATM    2  C14 UNL     1      20.506  -1.198  14.878  1.00  0.00     0.166 C 
BRANCH   2   3
HETATM    3  C13 UNL     1      21.629  -2.081  14.388  1.00  0.00     0.063 C 
BRANCH   3   4
HETATM    4  C5  UNL     1      21.391  -3.522  14.557  1.00  0.00     0.091 C 
BRANCH   4   5
HETATM    5  N2  UNL     1      20.166  -3.972  13.889  1.00  0.00    -0.354 N 
HETATM    6  C4  UNL     1      19.028  -4.423  14.561  1.00  0.00     0.241 C 
HETATM    7  O2  UNL     1      19.048  -4.455  15.803  1.00  0.00    -0.271 OA
ATOM      8  H2  UNL     1      20.143  -3.955  12.870  1.00  0.00     0.162 HD
BRANCH   6   9
HETATM    9  C3  UNL     1      17.787  -4.874  13.866  1.00  0.00     0.179 C 
BRANCH   9  10
HETATM   10  N1  UNL     1      17.847  -6.314  13.560  1.00  0.00    -0.348 N 
HETATM   11  C2  UNL     1      18.423  -6.725  12.310  1.00  0.00     0.214 C 
HETATM   12  C1  UNL     1      18.511  -8.173  11.952  1.00  0.00     0.117 C 
HETATM   13  O1  UNL     1      18.852  -5.841  11.527  1.00  0.00    -0.274 OA
ATOM     14  H1  UNL     1      17.488  -7.003  14.221  1.00  0.00     0.163 HD
ENDBRANCH   9  10
BRANCH   9  15
HETATM   15  C35 UNL     1      16.649  -4.720  14.855  1.00  0.00     0.009 C 
HETATM   16  C36 UNL     1      15.698  -3.618  14.451  1.00  0.00     0.012 C 
HETATM   17  C37 UNL     1      15.890  -5.992  15.024  1.00  0.00     0.012 C 
ENDBRANCH   9  15
ENDBRANCH   6   9
ENDBRANCH   4   5
BRANCH   4  18
HETATM   18  C6  UNL     1      22.561  -4.317  14.029  1.00  0.00     0.063 C 
BRANCH  18  19
HETATM   19  C7  UNL     1      22.346  -5.745  13.913  1.00  0.00    -0.056 A 
HETATM   20  C8  UNL     1      22.370  -6.520  12.784  1.00  0.00     0.007 A 
HETATM   21  C9  UNL     1      22.146  -7.872  12.766  1.00  0.00     0.001 A 
HETATM   22  C10 UNL     1      21.872  -8.486  14.001  1.00  0.00     0.000 A 
HETATM   23  C11 UNL     1      21.834  -7.759  15.168  1.00  0.00     0.001 A 
HETATM   24  C12 UNL     1      22.069  -6.409  15.116  1.00  0.00     0.007 A 
ENDBRANCH  18  19
ENDBRANCH   4  18
ENDBRANCH   3   4
ENDBRANCH   2   3
BRANCH   2  25
HETATM   25  O3  UNL     1      20.039  -0.430  13.838  1.00  0.00    -0.390 OA
ATOM     26  H3  UNL     1      20.009   0.481  14.105  1.00  0.00     0.210 HD
ENDBRANCH   2  25
ENDBRANCH   1   2
BRANCH   1  27
HETATM   27  C16 UNL     1      21.747  -1.112  17.079  1.00  0.00     0.093 C 
BRANCH  27  28
HETATM   28  C17 UNL     1      22.808  -0.406  17.773  1.00  0.00    -0.053 A 
HETATM   29  C18 UNL     1      22.674  -0.107  19.097  1.00  0.00     0.007 A 
HETATM   30  C19 UNL     1      23.687   0.542  19.757  1.00  0.00     0.001 A 
HETATM   31  C20 UNL     1      24.854   0.896  19.077  1.00  0.00     0.000 A 
HETATM   32  C21 UNL     1      24.975   0.588  17.740  1.00  0.00     0.001 A 
HETATM   33  C22 UNL     1      23.957  -0.053  17.117  1.00  0.00     0.007 A 
ENDBRANCH  27  28
ENDBRANCH   1  27
BRANCH   1  34
HETATM   34  N3  UNL     1      20.019   0.577  16.533  1.00  0.00    -0.329 N 
HETATM   35  C23 UNL     1      18.761   0.277  17.067  1.00  0.00     0.253 C 
HETATM   36  O4  UNL     1      18.333  -0.865  17.181  1.00  0.00    -0.270 OA
ATOM     37  H3  UNL     1      20.280   1.562  16.482  1.00  0.00     0.168 HD
BRANCH  35  38
HETATM   38  C24 UNL     1      17.853   1.395  17.546  1.00  0.00     0.244 C 
HETATM   39  C25 UNL     1      18.602   2.293  18.460  1.00  0.00     0.177 C 
HETATM   40  N4  UNL     1      18.181   1.923  19.789  1.00  0.00    -0.291 N 
HETATM   41  C34 UNL     1      17.366   0.749  19.627  1.00  0.00     0.368 C 
HETATM   42  O6  UNL     1      17.214  -0.126  20.512  1.00  0.00    -0.238 OA
HETATM   43  O7  UNL     1      16.833   0.834  18.332  1.00  0.00    -0.287 OA
BRANCH  40  44
HETATM   44  C26 UNL     1      18.512   2.599  20.998  1.00  0.00     0.040 A 
HETATM   45  C27 UNL     1      17.565   2.930  21.938  1.00  0.00     0.030 A 
HETATM   46  C28 UNL     1      17.892   3.578  23.100  1.00  0.00     0.003 A 
HETATM   47  C29 UNL     1      19.204   3.927  23.367  1.00  0.00     0.015 A 
HETATM   48  C30 UNL     1      20.159   3.609  22.451  1.00  0.00     0.011 A 
HETATM   49  C33 UNL     1      19.816   2.954  21.280  1.00  0.00     0.044 A 
BRANCH  48  50
HETATM   50  C31 UNL     1      21.544   3.948  22.681  1.00  0.00     0.155 C 
HETATM   51  C32 UNL     1      22.463   4.169  21.512  1.00  0.00     0.096 C 
HETATM   52  O5  UNL     1      21.991   4.060  23.830  1.00  0.00    -0.293 OA
ENDBRANCH  48  50
ENDBRANCH  40  44
ENDBRANCH  35  38
ENDBRANCH   1  34
TORSDOF 16
ENDMDL
