MODEL 1
REMARK VINA RESULT: -10.874560908      0.000      0.000
REMARK  15 active torsions:
REMARK  status: ('A' for Active; 'I' for Inactive)
REMARK    1  A    between atoms: C2_2  and  C4_4 
REMARK    2  A    between atoms: C4_4  and  C5_5 
REMARK    3  A    between atoms: C4_4  and  N4_45 
REMARK       I    between atoms: C5_5  and  N1_7 
REMARK    4  A    between atoms: N1_7  and  C6_9 
REMARK    5  A    between atoms: C6_9  and  C7_10 
REMARK    6  A    between atoms: C6_9  and  C14_17 
REMARK    7  A    between atoms: C7_10  and  C8_11 
REMARK    8  A    between atoms: C14_17  and  C15_18 
REMARK    9  A    between atoms: C15_18  and  O2_19 
REMARK   10  A    between atoms: C15_18  and  C16_21 
REMARK   11  A    between atoms: C16_21  and  C17_22 
REMARK   12  A    between atoms: C16_21  and  N2_29 
REMARK   13  A    between atoms: C17_22  and  C18_23 
REMARK       I    between atoms: N2_29  and  C24_31 
REMARK   14  A    between atoms: C24_31  and  C25_33 
REMARK   15  A    between atoms: N3_35  and  C27_36 
ROOT
HETATM    1  C15 UNL     1      20.220  29.787  15.864  1.00  0.00     0.143 C 
ENDROOT
BRANCH   1   2
HETATM    2  C14 UNL     1      19.181  29.273  14.960  1.00  0.00     0.059 C 
BRANCH   2   3
HETATM    3  C6  UNL     1      19.445  29.181  13.516  1.00  0.00     0.091 C 
BRANCH   3   4
HETATM    4  N1  UNL     1      20.535  28.238  13.260  1.00  0.00    -0.351 N 
HETATM    5  C5  UNL     1      21.587  28.633  12.425  1.00  0.00     0.265 C 
HETATM    6  O1  UNL     1      21.615  29.781  11.908  1.00  0.00    -0.266 OA
ATOM      7  H1  UNL     1      20.528  27.310  13.682  1.00  0.00     0.163 HD
BRANCH   5   8
HETATM    8  C4  UNL     1      22.739  27.776  12.077  1.00  0.00     0.087 C 
BRANCH   8   9
HETATM    9  C2  UNL     1      24.088  28.306  12.247  1.00  0.00     0.033 C 
HETATM   10  C1  UNL     1      25.094  27.122  12.187  1.00  0.00     0.016 C 
HETATM   11  C3  UNL     1      24.408  29.196  13.388  1.00  0.00     0.016 C 
ENDBRANCH   8   9
BRANCH   8  12
HETATM   12  N4  UNL     1      22.468  26.976  10.925  1.00  0.00    -0.298 N 
HETATM   13  C34 UNL     1      22.500  27.473   9.549  1.00  0.00     0.135 C 
HETATM   14  C35 UNL     1      23.605  26.749   8.793  1.00  0.00     0.040 C 
HETATM   15  C36 UNL     1      23.445  25.255   8.913  1.00  0.00     0.126 C 
HETATM   16  N5  UNL     1      22.345  24.850   9.753  1.00  0.00    -0.343 N 
HETATM   17  C37 UNL     1      22.147  25.567  10.988  1.00  0.00     0.322 C 
ATOM     18  H5  UNL     1      21.729  24.083   9.483  1.00  0.00     0.164 HD
HETATM   19  O6  UNL     1      21.736  25.048  12.037  1.00  0.00    -0.247 OA
ENDBRANCH   8  12
ENDBRANCH   5   8
ENDBRANCH   3   4
BRANCH   3  20
HETATM   20  C7  UNL     1      18.338  29.010  12.556  1.00  0.00     0.063 C 
BRANCH  20  21
HETATM   21  C8  UNL     1      18.371  27.775  11.760  1.00  0.00    -0.056 A 
HETATM   22  C9  UNL     1      18.217  26.515  12.241  1.00  0.00     0.007 A 
HETATM   23  C10 UNL     1      18.273  25.405  11.376  1.00  0.00     0.001 A 
HETATM   24  C11 UNL     1      18.485  25.569  10.032  1.00  0.00     0.000 A 
HETATM   25  C12 UNL     1      18.641  26.862   9.543  1.00  0.00     0.001 A 
HETATM   26  C13 UNL     1      18.581  27.926  10.402  1.00  0.00     0.007 A 
ENDBRANCH  20  21
ENDBRANCH   3  20
ENDBRANCH   2   3
ENDBRANCH   1   2
BRANCH   1  27
HETATM   27  O2  UNL     1      19.865  29.706  17.194  1.00  0.00    -0.393 OA
ATOM     28  H2  UNL     1      20.280  28.981  17.646  1.00  0.00     0.210 HD
ENDBRANCH   1  27
BRANCH   1  29
HETATM   29  C16 UNL     1      20.569  31.254  15.633  1.00  0.00     0.117 C 
BRANCH  29  30
HETATM   30  C17 UNL     1      21.620  31.819  16.496  1.00  0.00     0.066 C 
BRANCH  30  31
HETATM   31  C18 UNL     1      21.824  33.251  16.038  1.00  0.00    -0.056 A 
HETATM   32  C19 UNL     1      21.503  34.266  16.944  1.00  0.00     0.007 A 
HETATM   33  C20 UNL     1      21.653  35.602  16.632  1.00  0.00     0.001 A 
HETATM   34  C21 UNL     1      22.132  35.928  15.393  1.00  0.00     0.000 A 
HETATM   35  C22 UNL     1      22.450  34.924  14.495  1.00  0.00     0.001 A 
HETATM   36  C23 UNL     1      22.294  33.594  14.823  1.00  0.00     0.007 A 
ENDBRANCH  30  31
ENDBRANCH  29  30
BRANCH  29  37
HETATM   37  N2  UNL     1      19.342  31.978  15.890  1.00  0.00    -0.351 N 
HETATM   38  C24 UNL     1      18.554  32.626  14.905  1.00  0.00     0.249 C 
HETATM   39  O3  UNL     1      18.910  32.576  13.717  1.00  0.00    -0.271 OA
ATOM     40  H2  UNL     1      19.018  32.027  16.857  1.00  0.00     0.163 HD
BRANCH  38  41
HETATM   41  C25 UNL     1      17.320  33.349  15.313  1.00  0.00     0.243 A 
HETATM   42  C26 UNL     1      17.524  34.803  15.501  1.00  0.00     0.177 A 
HETATM   43  N3  UNL     1      16.804  35.111  16.745  1.00  0.00    -0.291 N 
HETATM   44  C33 UNL     1      16.315  33.897  17.255  1.00  0.00     0.368 A 
HETATM   45  O4  UNL     1      15.628  33.808  18.339  1.00  0.00    -0.238 OA
HETATM   46  O5  UNL     1      16.682  32.843  16.430  1.00  0.00    -0.287 OA
BRANCH  43  47
HETATM   47  C27 UNL     1      16.674  36.435  17.266  1.00  0.00     0.039 A 
HETATM   48  C28 UNL     1      17.834  37.081  17.671  1.00  0.00     0.030 A 
HETATM   49  C29 UNL     1      17.808  38.354  18.174  1.00  0.00     0.002 A 
HETATM   50  C30 UNL     1      16.590  39.025  18.288  1.00  0.00     0.000 A 
HETATM   51  C31 UNL     1      15.437  38.398  17.894  1.00  0.00     0.002 A 
HETATM   52  C32 UNL     1      15.496  37.116  17.390  1.00  0.00     0.030 A 
ENDBRANCH  43  47
ENDBRANCH  38  41
ENDBRANCH  29  37
ENDBRANCH   1  29
TORSDOF 15
ENDMDL
