MODEL 10
REMARK VINA RESULT: -10.229650192      1.382      1.861
REMARK  15 active torsions:
REMARK  status: ('A' for Active; 'I' for Inactive)
REMARK    1  A    between atoms: C2_2  and  C4_4 
REMARK    2  A    between atoms: C4_4  and  C5_5 
REMARK    3  A    between atoms: C4_4  and  N4_45 
REMARK       I    between atoms: C5_5  and  N1_7 
REMARK    4  A    between atoms: N1_7  and  C6_9 
REMARK    5  A    between atoms: C6_9  and  C7_10 
REMARK    6  A    between atoms: C6_9  and  C14_17 
REMARK    7  A    between atoms: C7_10  and  C8_11 
REMARK    8  A    between atoms: C14_17  and  C15_18 
REMARK    9  A    between atoms: C15_18  and  O2_19 
REMARK   10  A    between atoms: C15_18  and  C16_21 
REMARK   11  A    between atoms: C16_21  and  C17_22 
REMARK   12  A    between atoms: C16_21  and  N2_29 
REMARK   13  A    between atoms: C17_22  and  C18_23 
REMARK       I    between atoms: N2_29  and  C24_31 
REMARK   14  A    between atoms: C24_31  and  C25_33 
REMARK   15  A    between atoms: N3_35  and  C27_36 
ROOT
HETATM    1  C15 UNL     1      20.323  30.732  15.766  1.00  0.00     0.143 C 
ENDROOT
BRANCH   1   2
HETATM    2  C14 UNL     1      20.012  29.314  15.538  1.00  0.00     0.059 C 
BRANCH   2   3
HETATM    3  C6  UNL     1      19.764  28.826  14.172  1.00  0.00     0.091 C 
BRANCH   3   4
HETATM    4  N1  UNL     1      20.892  28.013  13.714  1.00  0.00    -0.351 N 
HETATM    5  C5  UNL     1      21.672  28.481  12.649  1.00  0.00     0.265 C 
HETATM    6  O1  UNL     1      21.428  29.585  12.096  1.00  0.00    -0.266 OA
ATOM      7  H1  UNL     1      21.106  27.122  14.162  1.00  0.00     0.163 HD
BRANCH   5   8
HETATM    8  C4  UNL     1      22.828  27.754  12.084  1.00  0.00     0.087 C 
BRANCH   8   9
HETATM    9  C2  UNL     1      24.139  28.395  12.101  1.00  0.00     0.033 C 
HETATM   10  C1  UNL     1      25.226  27.297  11.928  1.00  0.00     0.016 C 
HETATM   11  C3  UNL     1      24.510  29.318  13.199  1.00  0.00     0.016 C 
ENDBRANCH   8   9
BRANCH   8  12
HETATM   12  N4  UNL     1      22.459  27.002  10.927  1.00  0.00    -0.298 N 
HETATM   13  C34 UNL     1      22.379  27.555   9.574  1.00  0.00     0.135 C 
HETATM   14  C35 UNL     1      23.415  26.859   8.701  1.00  0.00     0.040 C 
HETATM   15  C36 UNL     1      23.258  25.363   8.774  1.00  0.00     0.126 C 
HETATM   16  N5  UNL     1      22.230  24.925   9.684  1.00  0.00    -0.343 N 
HETATM   17  C37 UNL     1      22.138  25.592  10.959  1.00  0.00     0.322 C 
ATOM     18  H5  UNL     1      21.589  24.171   9.436  1.00  0.00     0.164 HD
HETATM   19  O6  UNL     1      21.811  25.032  12.017  1.00  0.00    -0.247 OA
ENDBRANCH   8  12
ENDBRANCH   5   8
ENDBRANCH   3   4
BRANCH   3  20
HETATM   20  C7  UNL     1      18.471  28.218  13.811  1.00  0.00     0.063 C 
BRANCH  20  21
HETATM   21  C8  UNL     1      18.248  28.000  12.375  1.00  0.00    -0.056 A 
HETATM   22  C9  UNL     1      18.580  26.883  11.680  1.00  0.00     0.007 A 
HETATM   23  C10 UNL     1      18.320  26.793  10.299  1.00  0.00     0.001 A 
HETATM   24  C11 UNL     1      17.726  27.828   9.625  1.00  0.00     0.000 A 
HETATM   25  C12 UNL     1      17.385  28.970  10.342  1.00  0.00     0.001 A 
HETATM   26  C13 UNL     1      17.647  29.035  11.684  1.00  0.00     0.007 A 
ENDBRANCH  20  21
ENDBRANCH   3  20
ENDBRANCH   2   3
ENDBRANCH   1   2
BRANCH   1  27
HETATM   27  O2  UNL     1      20.500  31.038  17.099  1.00  0.00    -0.393 OA
ATOM     28  H2  UNL     1      20.739  31.945  17.243  1.00  0.00     0.210 HD
ENDBRANCH   1  27
BRANCH   1  29
HETATM   29  C16 UNL     1      19.239  31.688  15.278  1.00  0.00     0.117 C 
BRANCH  29  30
HETATM   30  C17 UNL     1      19.529  32.427  14.038  1.00  0.00     0.066 C 
BRANCH  30  31
HETATM   31  C18 UNL     1      20.841  33.150  14.269  1.00  0.00    -0.056 A 
HETATM   32  C19 UNL     1      20.794  34.364  14.960  1.00  0.00     0.007 A 
HETATM   33  C20 UNL     1      21.930  35.101  15.226  1.00  0.00     0.001 A 
HETATM   34  C21 UNL     1      23.133  34.617  14.794  1.00  0.00     0.000 A 
HETATM   35  C22 UNL     1      23.183  33.415  14.109  1.00  0.00     0.001 A 
HETATM   36  C23 UNL     1      22.038  32.691  13.851  1.00  0.00     0.007 A 
ENDBRANCH  30  31
ENDBRANCH  29  30
BRANCH  29  37
HETATM   37  N2  UNL     1      19.078  32.652  16.347  1.00  0.00    -0.351 N 
HETATM   38  C24 UNL     1      17.844  33.217  16.757  1.00  0.00     0.249 C 
HETATM   39  O3  UNL     1      16.799  32.871  16.184  1.00  0.00    -0.271 OA
ATOM     40  H2  UNL     1      19.919  32.947  16.844  1.00  0.00     0.163 HD
BRANCH  38  41
HETATM   41  C25 UNL     1      17.827  34.212  17.864  1.00  0.00     0.243 A 
HETATM   42  C26 UNL     1      16.846  35.302  17.661  1.00  0.00     0.177 A 
HETATM   43  N3  UNL     1      17.577  36.520  18.041  1.00  0.00    -0.291 N 
HETATM   44  C33 UNL     1      18.894  36.138  18.345  1.00  0.00     0.368 A 
HETATM   45  O4  UNL     1      19.803  36.966  18.724  1.00  0.00    -0.238 OA
HETATM   46  O5  UNL     1      19.053  34.770  18.175  1.00  0.00    -0.287 OA
BRANCH  43  47
HETATM   47  C27 UNL     1      16.975  37.815  18.072  1.00  0.00     0.039 A 
HETATM   48  C28 UNL     1      17.235  38.667  17.006  1.00  0.00     0.030 A 
HETATM   49  C29 UNL     1      16.696  39.923  16.945  1.00  0.00     0.002 A 
HETATM   50  C30 UNL     1      15.864  40.368  17.973  1.00  0.00     0.000 A 
HETATM   51  C31 UNL     1      15.600  39.538  19.031  1.00  0.00     0.002 A 
HETATM   52  C32 UNL     1      16.158  38.278  19.064  1.00  0.00     0.030 A 
ENDBRANCH  43  47
ENDBRANCH  38  41
ENDBRANCH  29  37
ENDBRANCH   1  29
TORSDOF 15
ENDMDL
