MODEL 6
REMARK VINA RESULT: -10.391940604      1.350      5.333
REMARK  15 active torsions:
REMARK  status: ('A' for Active; 'I' for Inactive)
REMARK    1  A    between atoms: C2_2  and  C4_4 
REMARK    2  A    between atoms: C4_4  and  C5_5 
REMARK    3  A    between atoms: C4_4  and  N4_45 
REMARK       I    between atoms: C5_5  and  N1_7 
REMARK    4  A    between atoms: N1_7  and  C6_9 
REMARK    5  A    between atoms: C6_9  and  C7_10 
REMARK    6  A    between atoms: C6_9  and  C14_17 
REMARK    7  A    between atoms: C7_10  and  C8_11 
REMARK    8  A    between atoms: C14_17  and  C15_18 
REMARK    9  A    between atoms: C15_18  and  O2_19 
REMARK   10  A    between atoms: C15_18  and  C16_21 
REMARK   11  A    between atoms: C16_21  and  C17_22 
REMARK   12  A    between atoms: C16_21  and  N2_29 
REMARK   13  A    between atoms: C17_22  and  C18_23 
REMARK       I    between atoms: N2_29  and  C24_31 
REMARK   14  A    between atoms: C24_31  and  C25_33 
REMARK   15  A    between atoms: N3_35  and  C27_36 
ROOT
HETATM    1  C15 UNL     1      19.892  31.333  12.301  1.00  0.00     0.143 C 
ENDROOT
BRANCH   1   2
HETATM    2  C14 UNL     1      20.682  31.895  13.406  1.00  0.00     0.059 C 
BRANCH   2   3
HETATM    3  C6  UNL     1      21.526  31.012  14.227  1.00  0.00     0.091 C 
BRANCH   3   4
HETATM    4  N1  UNL     1      22.508  30.327  13.385  1.00  0.00    -0.351 N 
HETATM    5  C5  UNL     1      22.415  28.938  13.235  1.00  0.00     0.265 C 
HETATM    6  O1  UNL     1      21.500  28.280  13.796  1.00  0.00    -0.266 OA
ATOM      7  H1  UNL     1      23.247  30.851  12.917  1.00  0.00     0.163 HD
BRANCH   5   8
HETATM    8  C4  UNL     1      23.347  28.125  12.426  1.00  0.00     0.087 C 
BRANCH   8   9
HETATM    9  C2  UNL     1      24.763  28.477  12.416  1.00  0.00     0.033 C 
HETATM   10  C1  UNL     1      25.554  27.318  11.748  1.00  0.00     0.016 C 
HETATM   11  C3  UNL     1      25.438  28.910  13.662  1.00  0.00     0.016 C 
ENDBRANCH   8   9
BRANCH   8  12
HETATM   12  N4  UNL     1      22.747  27.704  11.200  1.00  0.00    -0.298 N 
HETATM   13  C34 UNL     1      22.472  28.592  10.069  1.00  0.00     0.135 C 
HETATM   14  C35 UNL     1      23.305  28.138   8.878  1.00  0.00     0.040 C 
HETATM   15  C36 UNL     1      23.078  26.676   8.593  1.00  0.00     0.126 C 
HETATM   16  N5  UNL     1      22.195  26.027   9.530  1.00  0.00    -0.343 N 
HETATM   17  C37 UNL     1      22.356  26.339  10.928  1.00  0.00     0.322 C 
ATOM     18  H5  UNL     1      21.480  25.371   9.214  1.00  0.00     0.164 HD
HETATM   19  O6  UNL     1      22.181  25.525  11.848  1.00  0.00    -0.247 OA
ENDBRANCH   8  12
ENDBRANCH   5   8
ENDBRANCH   3   4
BRANCH   3  20
HETATM   20  C7  UNL     1      22.128  31.498  15.482  1.00  0.00     0.063 C 
BRANCH  20  21
HETATM   21  C8  UNL     1      22.087  32.953  15.688  1.00  0.00    -0.056 A 
HETATM   22  C9  UNL     1      21.587  33.587  16.779  1.00  0.00     0.007 A 
HETATM   23  C10 UNL     1      21.599  34.993  16.859  1.00  0.00     0.001 A 
HETATM   24  C11 UNL     1      22.114  35.752  15.840  1.00  0.00     0.000 A 
HETATM   25  C12 UNL     1      22.627  35.098  14.726  1.00  0.00     0.001 A 
HETATM   26  C13 UNL     1      22.605  33.730  14.670  1.00  0.00     0.007 A 
ENDBRANCH  20  21
ENDBRANCH   3  20
ENDBRANCH   2   3
ENDBRANCH   1   2
BRANCH   1  27
HETATM   27  O2  UNL     1      19.489  32.286  11.388  1.00  0.00    -0.393 OA
ATOM     28  H2  UNL     1      18.609  32.139  11.063  1.00  0.00     0.210 HD
ENDBRANCH   1  27
BRANCH   1  29
HETATM   29  C16 UNL     1      18.608  30.642  12.748  1.00  0.00     0.117 C 
BRANCH  29  30
HETATM   30  C17 UNL     1      17.808  30.001  11.691  1.00  0.00     0.066 C 
BRANCH  30  31
HETATM   31  C18 UNL     1      18.077  28.512  11.797  1.00  0.00    -0.056 A 
HETATM   32  C19 UNL     1      18.483  27.849  10.635  1.00  0.00     0.007 A 
HETATM   33  C20 UNL     1      18.757  26.496  10.621  1.00  0.00     0.001 A 
HETATM   34  C21 UNL     1      18.622  25.795  11.786  1.00  0.00     0.000 A 
HETATM   35  C22 UNL     1      18.219  26.449  12.938  1.00  0.00     0.001 A 
HETATM   36  C23 UNL     1      17.950  27.801  12.935  1.00  0.00     0.007 A 
ENDBRANCH  30  31
ENDBRANCH  29  30
BRANCH  29  37
HETATM   37  N2  UNL     1      17.804  31.689  13.344  1.00  0.00    -0.351 N 
HETATM   38  C24 UNL     1      17.517  31.810  14.728  1.00  0.00     0.249 C 
HETATM   39  O3  UNL     1      17.986  30.976  15.519  1.00  0.00    -0.271 OA
ATOM     40  H2  UNL     1      17.414  32.396  12.720  1.00  0.00     0.163 HD
BRANCH  38  41
HETATM   41  C25 UNL     1      16.661  32.931  15.202  1.00  0.00     0.243 A 
HETATM   42  C26 UNL     1      17.382  34.220  15.303  1.00  0.00     0.177 A 
HETATM   43  N3  UNL     1      16.938  34.782  16.586  1.00  0.00    -0.291 N 
HETATM   44  C33 UNL     1      16.102  33.830  17.192  1.00  0.00     0.368 A 
HETATM   45  O4  UNL     1      15.533  34.008  18.333  1.00  0.00    -0.238 OA
HETATM   46  O5  UNL     1      15.994  32.702  16.391  1.00  0.00    -0.287 OA
BRANCH  43  47
HETATM   47  C27 UNL     1      17.332  36.074  17.052  1.00  0.00     0.039 A 
HETATM   48  C28 UNL     1      18.509  36.159  17.784  1.00  0.00     0.030 A 
HETATM   49  C29 UNL     1      18.970  37.355  18.264  1.00  0.00     0.002 A 
HETATM   50  C30 UNL     1      18.246  38.522  18.018  1.00  0.00     0.000 A 
HETATM   51  C31 UNL     1      17.082  38.453  17.298  1.00  0.00     0.002 A 
HETATM   52  C32 UNL     1      16.644  37.233  16.828  1.00  0.00     0.030 A 
ENDBRANCH  43  47
ENDBRANCH  38  41
ENDBRANCH  29  37
ENDBRANCH   1  29
TORSDOF 15
ENDMDL
