MODEL 2
REMARK VINA RESULT: -10.732860891      0.518      1.092
REMARK  15 active torsions:
REMARK  status: ('A' for Active; 'I' for Inactive)
REMARK    1  A    between atoms: C2_2  and  C4_4 
REMARK    2  A    between atoms: C4_4  and  C5_5 
REMARK    3  A    between atoms: C4_4  and  N4_45 
REMARK       I    between atoms: C5_5  and  N1_7 
REMARK    4  A    between atoms: N1_7  and  C6_9 
REMARK    5  A    between atoms: C6_9  and  C7_10 
REMARK    6  A    between atoms: C6_9  and  C14_17 
REMARK    7  A    between atoms: C7_10  and  C8_11 
REMARK    8  A    between atoms: C14_17  and  C15_18 
REMARK    9  A    between atoms: C15_18  and  O2_19 
REMARK   10  A    between atoms: C15_18  and  C16_21 
REMARK   11  A    between atoms: C16_21  and  C17_22 
REMARK   12  A    between atoms: C16_21  and  N2_29 
REMARK   13  A    between atoms: C17_22  and  C18_23 
REMARK       I    between atoms: N2_29  and  C24_31 
REMARK   14  A    between atoms: C24_31  and  C25_33 
REMARK   15  A    between atoms: N3_35  and  C27_36 
ROOT
HETATM    1  C15 UNL     1      20.026  29.770  15.748  1.00  0.00     0.143 C 
ENDROOT
BRANCH   1   2
HETATM    2  C14 UNL     1      18.813  29.395  15.006  1.00  0.00     0.059 C 
BRANCH   2   3
HETATM    3  C6  UNL     1      18.917  28.947  13.609  1.00  0.00     0.091 C 
BRANCH   3   4
HETATM    4  N1  UNL     1      20.213  28.306  13.378  1.00  0.00    -0.351 N 
HETATM    5  C5  UNL     1      21.115  28.907  12.492  1.00  0.00     0.265 C 
HETATM    6  O1  UNL     1      20.835  29.986  11.906  1.00  0.00    -0.266 OA
ATOM      7  H1  UNL     1      20.455  27.438  13.855  1.00  0.00     0.163 HD
BRANCH   5   8
HETATM    8  C4  UNL     1      22.447  28.359  12.162  1.00  0.00     0.087 C 
BRANCH   8   9
HETATM    9  C2  UNL     1      23.629  29.169  12.438  1.00  0.00     0.033 C 
HETATM   10  C1  UNL     1      24.882  28.252  12.369  1.00  0.00     0.016 C 
HETATM   11  C3  UNL     1      23.687  30.031  13.642  1.00  0.00     0.016 C 
ENDBRANCH   8   9
BRANCH   8  12
HETATM   12  N4  UNL     1      22.417  27.597  10.954  1.00  0.00    -0.298 N 
HETATM   13  C34 UNL     1      22.368  28.180   9.613  1.00  0.00     0.135 C 
HETATM   14  C35 UNL     1      23.640  27.798   8.868  1.00  0.00     0.040 C 
HETATM   15  C36 UNL     1      23.848  26.306   8.894  1.00  0.00     0.126 C 
HETATM   16  N5  UNL     1      22.856  25.590   9.656  1.00  0.00    -0.343 N 
HETATM   17  C37 UNL     1      22.449  26.152  10.920  1.00  0.00     0.322 C 
ATOM     18  H5  UNL     1      22.455  24.716   9.313  1.00  0.00     0.164 HD
HETATM   19  O6  UNL     1      22.145  25.479  11.916  1.00  0.00    -0.247 OA
ENDBRANCH   8  12
ENDBRANCH   5   8
ENDBRANCH   3   4
BRANCH   3  20
HETATM   20  C7  UNL     1      17.818  28.198  12.972  1.00  0.00     0.063 C 
BRANCH  20  21
HETATM   21  C8  UNL     1      18.164  27.488  11.733  1.00  0.00    -0.056 A 
HETATM   22  C9  UNL     1      18.220  28.037  10.492  1.00  0.00     0.007 A 
HETATM   23  C10 UNL     1      18.560  27.251   9.375  1.00  0.00     0.001 A 
HETATM   24  C11 UNL     1      18.842  25.916   9.512  1.00  0.00     0.000 A 
HETATM   25  C12 UNL     1      18.784  25.359  10.785  1.00  0.00     0.001 A 
HETATM   26  C13 UNL     1      18.452  26.143  11.857  1.00  0.00     0.007 A 
ENDBRANCH  20  21
ENDBRANCH   3  20
ENDBRANCH   2   3
ENDBRANCH   1   2
BRANCH   1  27
HETATM   27  O2  UNL     1      19.895  29.606  17.111  1.00  0.00    -0.393 OA
ATOM     28  H2  UNL     1      20.668  29.232  17.516  1.00  0.00     0.210 HD
ENDBRANCH   1  27
BRANCH   1  29
HETATM   29  C16 UNL     1      20.439  31.226  15.560  1.00  0.00     0.117 C 
BRANCH  29  30
HETATM   30  C17 UNL     1      21.513  31.719  16.438  1.00  0.00     0.066 C 
BRANCH  30  31
HETATM   31  C18 UNL     1      21.813  33.137  15.992  1.00  0.00    -0.056 A 
HETATM   32  C19 UNL     1      21.533  34.167  16.894  1.00  0.00     0.007 A 
HETATM   33  C20 UNL     1      21.770  35.493  16.591  1.00  0.00     0.001 A 
HETATM   34  C21 UNL     1      22.296  35.793  15.365  1.00  0.00     0.000 A 
HETATM   35  C22 UNL     1      22.573  34.774  14.469  1.00  0.00     0.001 A 
HETATM   36  C23 UNL     1      22.330  33.455  14.788  1.00  0.00     0.007 A 
ENDBRANCH  30  31
ENDBRANCH  29  30
BRANCH  29  37
HETATM   37  N2  UNL     1      19.245  31.996  15.837  1.00  0.00    -0.351 N 
HETATM   38  C24 UNL     1      18.443  32.639  14.860  1.00  0.00     0.249 C 
HETATM   39  O3  UNL     1      18.754  32.542  13.662  1.00  0.00    -0.271 OA
ATOM     40  H2  UNL     1      18.957  32.084  16.812  1.00  0.00     0.163 HD
BRANCH  38  41
HETATM   41  C25 UNL     1      17.247  33.413  15.288  1.00  0.00     0.243 A 
HETATM   42  C26 UNL     1      17.523  34.851  15.507  1.00  0.00     0.177 A 
HETATM   43  N3  UNL     1      16.822  35.166  16.761  1.00  0.00    -0.291 N 
HETATM   44  C33 UNL     1      16.276  33.967  17.245  1.00  0.00     0.368 A 
HETATM   45  O4  UNL     1      15.587  33.888  18.330  1.00  0.00    -0.238 OA
HETATM   46  O5  UNL     1      16.587  32.915  16.396  1.00  0.00    -0.287 OA
BRANCH  43  47
HETATM   47  C27 UNL     1      16.758  36.483  17.310  1.00  0.00     0.039 A 
HETATM   48  C28 UNL     1      15.510  37.086  17.384  1.00  0.00     0.030 A 
HETATM   49  C29 UNL     1      15.350  38.342  17.904  1.00  0.00     0.002 A 
HETATM   50  C30 UNL     1      16.463  39.042  18.371  1.00  0.00     0.000 A 
HETATM   51  C31 UNL     1      17.701  38.459  18.303  1.00  0.00     0.002 A 
HETATM   52  C32 UNL     1      17.829  37.192  17.775  1.00  0.00     0.030 A 
ENDBRANCH  43  47
ENDBRANCH  38  41
ENDBRANCH  29  37
ENDBRANCH   1  29
TORSDOF 15
ENDMDL
