MODEL 5
REMARK VINA RESULT: -10.393658692      1.538     10.869
REMARK  15 active torsions:
REMARK  status: ('A' for Active; 'I' for Inactive)
REMARK    1  A    between atoms: C2_2  and  C4_4 
REMARK    2  A    between atoms: C4_4  and  C5_5 
REMARK    3  A    between atoms: C4_4  and  N4_45 
REMARK       I    between atoms: C5_5  and  N1_7 
REMARK    4  A    between atoms: N1_7  and  C6_9 
REMARK    5  A    between atoms: C6_9  and  C7_10 
REMARK    6  A    between atoms: C6_9  and  C14_17 
REMARK    7  A    between atoms: C7_10  and  C8_11 
REMARK    8  A    between atoms: C14_17  and  C15_18 
REMARK    9  A    between atoms: C15_18  and  O2_19 
REMARK   10  A    between atoms: C15_18  and  C16_21 
REMARK   11  A    between atoms: C16_21  and  C17_22 
REMARK   12  A    between atoms: C16_21  and  N2_29 
REMARK   13  A    between atoms: C17_22  and  C18_23 
REMARK       I    between atoms: N2_29  and  C24_31 
REMARK   14  A    between atoms: C24_31  and  C25_33 
REMARK   15  A    between atoms: N3_35  and  C27_36 
ROOT
HETATM    1  C15 UNL     1      20.030  29.472  15.144  1.00  0.00     0.143 C 
ENDROOT
BRANCH   1   2
HETATM    2  C14 UNL     1      19.896  30.271  16.370  1.00  0.00     0.059 C 
BRANCH   2   3
HETATM    3  C6  UNL     1      20.134  31.722  16.331  1.00  0.00     0.091 C 
BRANCH   3   4
HETATM    4  N1  UNL     1      19.083  32.427  17.066  1.00  0.00    -0.351 N 
HETATM    5  C5  UNL     1      18.202  33.252  16.358  1.00  0.00     0.265 C 
HETATM    6  O1  UNL     1      18.291  33.385  15.109  1.00  0.00    -0.266 OA
ATOM      7  H1  UNL     1      18.994  32.318  18.076  1.00  0.00     0.163 HD
BRANCH   5   8
HETATM    8  C4  UNL     1      17.107  34.026  16.979  1.00  0.00     0.087 C 
BRANCH   8   9
HETATM    9  C2  UNL     1      15.734  33.772  16.552  1.00  0.00     0.033 C 
HETATM   10  C1  UNL     1      14.771  34.281  17.662  1.00  0.00     0.016 C 
HETATM   11  C3  UNL     1      15.327  32.423  16.094  1.00  0.00     0.016 C 
ENDBRANCH   8   9
BRANCH   8  12
HETATM   12  N4  UNL     1      17.497  35.378  17.230  1.00  0.00    -0.298 N 
HETATM   13  C34 UNL     1      17.225  36.496  16.326  1.00  0.00     0.135 C 
HETATM   14  C35 UNL     1      16.306  37.483  17.032  1.00  0.00     0.040 C 
HETATM   15  C36 UNL     1      16.877  37.884  18.368  1.00  0.00     0.126 C 
HETATM   16  N5  UNL     1      18.106  37.211  18.705  1.00  0.00    -0.343 N 
HETATM   17  C37 UNL     1      18.195  35.799  18.424  1.00  0.00     0.322 C 
ATOM     18  H5  UNL     1      18.886  37.715  19.128  1.00  0.00     0.164 HD
HETATM   19  O6  UNL     1      18.811  34.986  19.129  1.00  0.00    -0.247 OA
ENDBRANCH   8  12
ENDBRANCH   5   8
ENDBRANCH   3   4
BRANCH   3  20
HETATM   20  C7  UNL     1      21.470  32.276  16.623  1.00  0.00     0.063 C 
BRANCH  20  21
HETATM   21  C8  UNL     1      21.657  33.696  16.292  1.00  0.00    -0.056 A 
HETATM   22  C9  UNL     1      21.761  34.212  15.041  1.00  0.00     0.007 A 
HETATM   23  C10 UNL     1      21.944  35.595  14.849  1.00  0.00     0.001 A 
HETATM   24  C11 UNL     1      22.023  36.450  15.917  1.00  0.00     0.000 A 
HETATM   25  C12 UNL     1      21.914  35.917  17.197  1.00  0.00     0.001 A 
HETATM   26  C13 UNL     1      21.735  34.569  17.360  1.00  0.00     0.007 A 
ENDBRANCH  20  21
ENDBRANCH   3  20
ENDBRANCH   2   3
ENDBRANCH   1   2
BRANCH   1  27
HETATM   27  O2  UNL     1      21.120  28.626  15.168  1.00  0.00    -0.393 OA
ATOM     28  H2  UNL     1      21.797  28.876  14.551  1.00  0.00     0.210 HD
ENDBRANCH   1  27
BRANCH   1  29
HETATM   29  C16 UNL     1      20.202  30.307  13.879  1.00  0.00     0.117 C 
BRANCH  29  30
HETATM   30  C17 UNL     1      19.021  30.426  13.008  1.00  0.00     0.066 C 
BRANCH  30  31
HETATM   31  C18 UNL     1      18.803  29.057  12.395  1.00  0.00    -0.056 A 
HETATM   32  C19 UNL     1      19.191  28.880  11.064  1.00  0.00     0.007 A 
HETATM   33  C20 UNL     1      19.041  27.674  10.409  1.00  0.00     0.001 A 
HETATM   34  C21 UNL     1      18.493  26.628  11.097  1.00  0.00     0.000 A 
HETATM   35  C22 UNL     1      18.107  26.800  12.415  1.00  0.00     0.001 A 
HETATM   36  C23 UNL     1      18.264  28.012  13.054  1.00  0.00     0.007 A 
ENDBRANCH  30  31
ENDBRANCH  29  30
BRANCH  29  37
HETATM   37  N2  UNL     1      21.247  29.642  13.127  1.00  0.00    -0.351 N 
HETATM   38  C24 UNL     1      22.547  30.162  12.901  1.00  0.00     0.249 C 
HETATM   39  O3  UNL     1      22.850  31.265  13.382  1.00  0.00    -0.271 OA
ATOM     40  H2  UNL     1      21.030  28.728  12.730  1.00  0.00     0.163 HD
BRANCH  38  41
HETATM   41  C25 UNL     1      23.519  29.375  12.095  1.00  0.00     0.243 A 
HETATM   42  C26 UNL     1      22.959  28.879  10.817  1.00  0.00     0.177 A 
HETATM   43  N3  UNL     1      23.431  27.489  10.733  1.00  0.00    -0.291 N 
HETATM   44  C33 UNL     1      24.124  27.211  11.922  1.00  0.00     0.368 A 
HETATM   45  O4  UNL     1      24.677  26.076  12.173  1.00  0.00    -0.238 OA
HETATM   46  O5  UNL     1      24.117  28.320  12.756  1.00  0.00    -0.287 OA
BRANCH  43  47
HETATM   47  C27 UNL     1      23.185  26.647   9.606  1.00  0.00     0.039 A 
HETATM   48  C28 UNL     1      22.053  25.843   9.642  1.00  0.00     0.030 A 
HETATM   49  C29 UNL     1      21.731  25.011   8.604  1.00  0.00     0.002 A 
HETATM   50  C30 UNL     1      22.555  24.961   7.479  1.00  0.00     0.000 A 
HETATM   51  C31 UNL     1      23.676  25.747   7.431  1.00  0.00     0.002 A 
HETATM   52  C32 UNL     1      23.973  26.576   8.492  1.00  0.00     0.030 A 
ENDBRANCH  43  47
ENDBRANCH  38  41
ENDBRANCH  29  37
ENDBRANCH   1  29
TORSDOF 15
ENDMDL
