MODEL 3
REMARK VINA RESULT: -10.645838077      1.374      5.154
REMARK  15 active torsions:
REMARK  status: ('A' for Active; 'I' for Inactive)
REMARK    1  A    between atoms: C2_2  and  C4_4 
REMARK    2  A    between atoms: C4_4  and  C5_5 
REMARK    3  A    between atoms: C4_4  and  N4_45 
REMARK       I    between atoms: C5_5  and  N1_7 
REMARK    4  A    between atoms: N1_7  and  C6_9 
REMARK    5  A    between atoms: C6_9  and  C7_10 
REMARK    6  A    between atoms: C6_9  and  C14_17 
REMARK    7  A    between atoms: C7_10  and  C8_11 
REMARK    8  A    between atoms: C14_17  and  C15_18 
REMARK    9  A    between atoms: C15_18  and  O2_19 
REMARK   10  A    between atoms: C15_18  and  C16_21 
REMARK   11  A    between atoms: C16_21  and  C17_22 
REMARK   12  A    between atoms: C16_21  and  N2_29 
REMARK   13  A    between atoms: C17_22  and  C18_23 
REMARK       I    between atoms: N2_29  and  C24_31 
REMARK   14  A    between atoms: C24_31  and  C25_33 
REMARK   15  A    between atoms: N3_35  and  C27_36 
ROOT
HETATM    1  C15 UNL     1      19.746  31.231  14.491  1.00  0.00     0.143 C 
ENDROOT
BRANCH   1   2
HETATM    2  C14 UNL     1      20.749  31.438  13.437  1.00  0.00     0.059 C 
BRANCH   2   3
HETATM    3  C6  UNL     1      22.177  31.505  13.786  1.00  0.00     0.091 C 
BRANCH   3   4
HETATM    4  N1  UNL     1      22.946  30.582  12.949  1.00  0.00    -0.351 N 
HETATM    5  C5  UNL     1      22.819  29.205  13.170  1.00  0.00     0.265 C 
HETATM    6  O1  UNL     1      22.052  28.755  14.061  1.00  0.00    -0.266 OA
ATOM      7  H1  UNL     1      23.562  30.935  12.217  1.00  0.00     0.163 HD
BRANCH   5   8
HETATM    8  C4  UNL     1      23.545  28.170  12.406  1.00  0.00     0.087 C 
BRANCH   8   9
HETATM    9  C2  UNL     1      24.999  28.255  12.310  1.00  0.00     0.033 C 
HETATM   10  C1  UNL     1      25.535  26.910  11.744  1.00  0.00     0.016 C 
HETATM   11  C3  UNL     1      25.806  28.681  13.477  1.00  0.00     0.016 C 
ENDBRANCH   8   9
BRANCH   8  12
HETATM   12  N4  UNL     1      22.814  27.764  11.248  1.00  0.00    -0.298 N 
HETATM   13  C34 UNL     1      22.585  28.613  10.078  1.00  0.00     0.135 C 
HETATM   14  C35 UNL     1      23.269  27.980   8.874  1.00  0.00     0.040 C 
HETATM   15  C36 UNL     1      22.832  26.548   8.702  1.00  0.00     0.126 C 
HETATM   16  N5  UNL     1      21.934  26.083   9.729  1.00  0.00    -0.343 N 
HETATM   17  C37 UNL     1      22.229  26.451  11.092  1.00  0.00     0.322 C 
ATOM     18  H5  UNL     1      21.119  25.512   9.501  1.00  0.00     0.164 HD
HETATM   19  O6  UNL     1      22.009  25.725  12.073  1.00  0.00    -0.247 OA
ENDBRANCH   8  12
ENDBRANCH   5   8
ENDBRANCH   3   4
BRANCH   3  20
HETATM   20  C7  UNL     1      22.859  32.804  13.933  1.00  0.00     0.063 C 
BRANCH  20  21
HETATM   21  C8  UNL     1      22.407  33.637  15.056  1.00  0.00    -0.056 A 
HETATM   22  C9  UNL     1      22.199  33.211  16.328  1.00  0.00     0.007 A 
HETATM   23  C10 UNL     1      21.760  34.106  17.322  1.00  0.00     0.001 A 
HETATM   24  C11 UNL     1      21.531  35.426  17.030  1.00  0.00     0.000 A 
HETATM   25  C12 UNL     1      21.748  35.859  15.726  1.00  0.00     0.001 A 
HETATM   26  C13 UNL     1      22.176  34.971  14.776  1.00  0.00     0.007 A 
ENDBRANCH  20  21
ENDBRANCH   3  20
ENDBRANCH   2   3
ENDBRANCH   1   2
BRANCH   1  27
HETATM   27  O2  UNL     1      20.044  30.167  15.317  1.00  0.00    -0.393 OA
ATOM     28  H2  UNL     1      19.404  30.042  16.007  1.00  0.00     0.210 HD
ENDBRANCH   1  27
BRANCH   1  29
HETATM   29  C16 UNL     1      18.345  30.944  13.962  1.00  0.00     0.117 C 
BRANCH  29  30
HETATM   30  C17 UNL     1      18.213  30.801  12.502  1.00  0.00     0.066 C 
BRANCH  30  31
HETATM   31  C18 UNL     1      18.278  29.315  12.211  1.00  0.00    -0.056 A 
HETATM   32  C19 UNL     1      18.669  28.929  10.925  1.00  0.00     0.007 A 
HETATM   33  C20 UNL     1      18.764  27.602  10.555  1.00  0.00     0.001 A 
HETATM   34  C21 UNL     1      18.464  26.647  11.485  1.00  0.00     0.000 A 
HETATM   35  C22 UNL     1      18.076  27.027  12.758  1.00  0.00     0.001 A 
HETATM   36  C23 UNL     1      17.986  28.356  13.112  1.00  0.00     0.007 A 
ENDBRANCH  30  31
ENDBRANCH  29  30
BRANCH  29  37
HETATM   37  N2  UNL     1      17.546  32.079  14.375  1.00  0.00    -0.351 N 
HETATM   38  C24 UNL     1      17.154  32.360  15.708  1.00  0.00     0.249 C 
HETATM   39  O3  UNL     1      17.518  31.600  16.619  1.00  0.00    -0.271 OA
ATOM     40  H2  UNL     1      17.241  32.728  13.649  1.00  0.00     0.163 HD
BRANCH  38  41
HETATM   41  C25 UNL     1      16.317  33.558  15.988  1.00  0.00     0.243 A 
HETATM   42  C26 UNL     1      17.049  34.836  15.839  1.00  0.00     0.177 A 
HETATM   43  N3  UNL     1      16.636  35.626  17.008  1.00  0.00    -0.291 N 
HETATM   44  C33 UNL     1      15.807  34.808  17.792  1.00  0.00     0.368 A 
HETATM   45  O4  UNL     1      15.264  35.196  18.893  1.00  0.00    -0.238 OA
HETATM   46  O5  UNL     1      15.673  33.555  17.211  1.00  0.00    -0.287 OA
BRANCH  43  47
HETATM   47  C27 UNL     1      17.049  36.977  17.223  1.00  0.00     0.039 A 
HETATM   48  C28 UNL     1      18.285  37.180  17.821  1.00  0.00     0.030 A 
HETATM   49  C29 UNL     1      18.768  38.439  18.060  1.00  0.00     0.002 A 
HETATM   50  C30 UNL     1      18.005  39.549  17.698  1.00  0.00     0.000 A 
HETATM   51  C31 UNL     1      16.783  39.363  17.109  1.00  0.00     0.002 A 
HETATM   52  C32 UNL     1      16.324  38.083  16.881  1.00  0.00     0.030 A 
ENDBRANCH  43  47
ENDBRANCH  38  41
ENDBRANCH  29  37
ENDBRANCH   1  29
TORSDOF 15
ENDMDL
