MODEL 8
REMARK VINA RESULT: -10.282523934      1.434      2.111
REMARK  15 active torsions:
REMARK  status: ('A' for Active; 'I' for Inactive)
REMARK    1  A    between atoms: C2_2  and  C4_4 
REMARK    2  A    between atoms: C4_4  and  C5_5 
REMARK    3  A    between atoms: C4_4  and  N4_45 
REMARK       I    between atoms: C5_5  and  N1_7 
REMARK    4  A    between atoms: N1_7  and  C6_9 
REMARK    5  A    between atoms: C6_9  and  C7_10 
REMARK    6  A    between atoms: C6_9  and  C14_17 
REMARK    7  A    between atoms: C7_10  and  C8_11 
REMARK    8  A    between atoms: C14_17  and  C15_18 
REMARK    9  A    between atoms: C15_18  and  O2_19 
REMARK   10  A    between atoms: C15_18  and  C16_21 
REMARK   11  A    between atoms: C16_21  and  C17_22 
REMARK   12  A    between atoms: C16_21  and  N2_29 
REMARK   13  A    between atoms: C17_22  and  C18_23 
REMARK       I    between atoms: N2_29  and  C24_31 
REMARK   14  A    between atoms: C24_31  and  C25_33 
REMARK   15  A    between atoms: N3_35  and  C27_36 
ROOT
HETATM    1  C15 UNL     1      18.403  30.238  12.847  1.00  0.00     0.143 C 
ENDROOT
BRANCH   1   2
HETATM    2  C14 UNL     1      18.815  28.868  13.184  1.00  0.00     0.059 C 
BRANCH   2   3
HETATM    3  C6  UNL     1      19.168  27.924  12.113  1.00  0.00     0.091 C 
BRANCH   3   4
HETATM    4  N1  UNL     1      20.578  27.544  12.219  1.00  0.00    -0.351 N 
HETATM    5  C5  UNL     1      21.525  28.249  11.467  1.00  0.00     0.265 C 
HETATM    6  O1  UNL     1      21.186  29.205  10.720  1.00  0.00    -0.266 OA
ATOM      7  H1  UNL     1      20.865  26.779  12.829  1.00  0.00     0.163 HD
BRANCH   5   8
HETATM    8  C4  UNL     1      22.974  27.961  11.473  1.00  0.00     0.087 C 
BRANCH   8   9
HETATM    9  C2  UNL     1      23.895  28.989  11.946  1.00  0.00     0.033 C 
HETATM   10  C1  UNL     1      25.301  28.350  12.120  1.00  0.00     0.016 C 
HETATM   11  C3  UNL     1      23.556  29.817  13.127  1.00  0.00     0.016 C 
ENDBRANCH   8   9
BRANCH   8  12
HETATM   12  N4  UNL     1      23.358  27.179  10.341  1.00  0.00    -0.298 N 
HETATM   13  C34 UNL     1      23.638  25.743  10.386  1.00  0.00     0.135 C 
HETATM   14  C35 UNL     1      22.615  25.018   9.523  1.00  0.00     0.040 C 
HETATM   15  C36 UNL     1      22.576  25.603   8.135  1.00  0.00     0.126 C 
HETATM   16  N5  UNL     1      23.447  26.737   7.952  1.00  0.00    -0.343 N 
HETATM   17  C37 UNL     1      23.496  27.719   9.006  1.00  0.00     0.322 C 
ATOM     18  H5  UNL     1      24.010  26.840   7.107  1.00  0.00     0.164 HD
HETATM   19  O6  UNL     1      23.645  28.936   8.818  1.00  0.00    -0.247 OA
ENDBRANCH   8  12
ENDBRANCH   5   8
ENDBRANCH   3   4
BRANCH   3  20
HETATM   20  C7  UNL     1      18.310  26.760  11.818  1.00  0.00     0.063 C 
BRANCH  20  21
HETATM   21  C8  UNL     1      18.041  26.511  10.396  1.00  0.00    -0.056 A 
HETATM   22  C9  UNL     1      17.916  25.292   9.812  1.00  0.00     0.007 A 
HETATM   23  C10 UNL     1      17.661  25.179   8.433  1.00  0.00     0.001 A 
HETATM   24  C11 UNL     1      17.533  26.295   7.646  1.00  0.00     0.000 A 
HETATM   25  C12 UNL     1      17.659  27.542   8.248  1.00  0.00     0.001 A 
HETATM   26  C13 UNL     1      17.906  27.627   9.592  1.00  0.00     0.007 A 
ENDBRANCH  20  21
ENDBRANCH   3  20
ENDBRANCH   2   3
ENDBRANCH   1   2
BRANCH   1  27
HETATM   27  O2  UNL     1      18.467  30.502  11.495  1.00  0.00    -0.393 OA
ATOM     28  H2  UNL     1      17.950  29.899  10.974  1.00  0.00     0.210 HD
ENDBRANCH   1  27
BRANCH   1  29
HETATM   29  C16 UNL     1      19.254  31.319  13.505  1.00  0.00     0.117 C 
BRANCH  29  30
HETATM   30  C17 UNL     1      20.107  30.888  14.625  1.00  0.00     0.066 C 
BRANCH  30  31
HETATM   31  C18 UNL     1      21.049  32.041  14.913  1.00  0.00    -0.056 A 
HETATM   32  C19 UNL     1      21.213  32.419  16.248  1.00  0.00     0.007 A 
HETATM   33  C20 UNL     1      22.048  33.452  16.621  1.00  0.00     0.001 A 
HETATM   34  C21 UNL     1      22.731  34.119  15.642  1.00  0.00     0.000 A 
HETATM   35  C22 UNL     1      22.571  33.746  14.319  1.00  0.00     0.001 A 
HETATM   36  C23 UNL     1      21.732  32.712  13.964  1.00  0.00     0.007 A 
ENDBRANCH  30  31
ENDBRANCH  29  30
BRANCH  29  37
HETATM   37  N2  UNL     1      18.307  32.290  14.011  1.00  0.00    -0.351 N 
HETATM   38  C24 UNL     1      17.520  32.130  15.180  1.00  0.00     0.249 C 
HETATM   39  O3  UNL     1      17.638  31.093  15.852  1.00  0.00    -0.271 OA
ATOM     40  H2  UNL     1      18.197  33.158  13.486  1.00  0.00     0.163 HD
BRANCH  38  41
HETATM   41  C25 UNL     1      16.572  33.205  15.576  1.00  0.00     0.243 A 
HETATM   42  C26 UNL     1      17.175  34.557  15.563  1.00  0.00     0.177 A 
HETATM   43  N3  UNL     1      16.693  35.180  16.805  1.00  0.00    -0.291 N 
HETATM   44  C33 UNL     1      15.951  34.209  17.497  1.00  0.00     0.368 A 
HETATM   45  O4  UNL     1      15.378  34.427  18.628  1.00  0.00    -0.238 OA
HETATM   46  O5  UNL     1      15.937  33.015  16.789  1.00  0.00    -0.287 OA
BRANCH  43  47
HETATM   47  C27 UNL     1      16.974  36.534  17.160  1.00  0.00     0.039 A 
HETATM   48  C28 UNL     1      18.151  36.783  17.853  1.00  0.00     0.030 A 
HETATM   49  C29 UNL     1      18.508  38.051  18.228  1.00  0.00     0.002 A 
HETATM   50  C30 UNL     1      17.675  39.124  17.912  1.00  0.00     0.000 A 
HETATM   51  C31 UNL     1      16.509  38.892  17.230  1.00  0.00     0.002 A 
HETATM   52  C32 UNL     1      16.177  37.604  16.865  1.00  0.00     0.030 A 
ENDBRANCH  43  47
ENDBRANCH  38  41
ENDBRANCH  29  37
ENDBRANCH   1  29
TORSDOF 15
ENDMDL
