MODEL 11
REMARK VINA RESULT: -10.222142193      1.419      5.619
REMARK  16 active torsions:
REMARK  status: ('A' for Active; 'I' for Inactive)
REMARK    1  A    between atoms: C8_8  and  O1_9 
REMARK    2  A    between atoms: O1_9  and  C9_10 
REMARK    3  A    between atoms: C9_10  and  C10_11 
REMARK       I    between atoms: C10_11  and  N1_13 
REMARK    4  A    between atoms: N1_13  and  C11_15 
REMARK    5  A    between atoms: C11_15  and  C12_16 
REMARK    6  A    between atoms: C11_15  and  C19_23 
REMARK    7  A    between atoms: C12_16  and  C13_17 
REMARK    8  A    between atoms: C19_23  and  O3_24 
REMARK    9  A    between atoms: C19_23  and  C20_26 
REMARK   10  A    between atoms: C20_26  and  C21_27 
REMARK   11  A    between atoms: C21_27  and  C22_28 
REMARK   12  A    between atoms: C21_27  and  N2_35 
REMARK   13  A    between atoms: C22_28  and  C23_29 
REMARK       I    between atoms: N2_35  and  C29_37 
REMARK   14  A    between atoms: C29_37  and  C30_39 
REMARK   15  A    between atoms: C30_39  and  C31_40 
REMARK   16  A    between atoms: C30_39  and  N3_43 
ROOT
HETATM    1  C19 UNL     1      20.351  30.426  11.696  1.00  0.00     0.143 C 
ENDROOT
BRANCH   1   2
HETATM    2  C11 UNL     1      19.103  30.035  12.495  1.00  0.00     0.117 C 
BRANCH   2   3
HETATM    3  N1  UNL     1      18.700  30.975  13.467  1.00  0.00    -0.352 N 
HETATM    4  C10 UNL     1      19.053  30.896  14.860  1.00  0.00     0.242 C 
HETATM    5  O2  UNL     1      19.763  29.911  15.119  1.00  0.00    -0.271 OA
ATOM      6  H1  UNL     1      18.122  31.759  13.163  1.00  0.00     0.163 HD
BRANCH   4   7
HETATM    7  C9  UNL     1      18.566  31.932  15.786  1.00  0.00     0.278 C 
BRANCH   7   8
HETATM    8  O1  UNL     1      17.871  32.990  15.349  1.00  0.00    -0.341 OA
BRANCH   8   9
HETATM    9  C8  UNL     1      16.818  33.639  15.891  1.00  0.00     0.081 A 
HETATM   10  C2  UNL     1      15.522  33.320  15.601  1.00  0.00    -0.028 A 
HETATM   11  C1  UNL     1      15.215  32.165  14.702  1.00  0.00     0.051 C 
HETATM   12  C3  UNL     1      14.413  33.972  16.134  1.00  0.00     0.009 A 
HETATM   13  C4  UNL     1      14.683  35.018  17.025  1.00  0.00     0.001 A 
HETATM   14  C5  UNL     1      15.982  35.360  17.337  1.00  0.00     0.009 A 
HETATM   15  C6  UNL     1      17.036  34.695  16.791  1.00  0.00    -0.028 A 
HETATM   16  C7  UNL     1      18.429  35.036  17.109  1.00  0.00     0.051 C 
ENDBRANCH   8   9
ENDBRANCH   7   8
ENDBRANCH   4   7
ENDBRANCH   2   3
BRANCH   2  17
HETATM   17  C12 UNL     1      18.015  29.518  11.601  1.00  0.00     0.066 C 
BRANCH  17  18
HETATM   18  C13 UNL     1      18.228  28.124  11.156  1.00  0.00    -0.056 A 
HETATM   19  C14 UNL     1      18.437  27.099  12.045  1.00  0.00     0.007 A 
HETATM   20  C15 UNL     1      18.623  25.811  11.602  1.00  0.00     0.001 A 
HETATM   21  C16 UNL     1      18.595  25.573  10.234  1.00  0.00     0.000 A 
HETATM   22  C17 UNL     1      18.387  26.585   9.320  1.00  0.00     0.001 A 
HETATM   23  C18 UNL     1      18.203  27.878   9.803  1.00  0.00     0.007 A 
ENDBRANCH  17  18
ENDBRANCH   2  17
ENDBRANCH   1   2
BRANCH   1  24
HETATM   24  O3  UNL     1      19.934  30.692  10.397  1.00  0.00    -0.393 OA
ATOM     25  H3  UNL     1      20.422  31.451  10.100  1.00  0.00     0.210 HD
ENDBRANCH   1  24
BRANCH   1  26
HETATM   26  C20 UNL     1      21.200  31.426  12.331  1.00  0.00     0.059 C 
BRANCH  26  27
HETATM   27  C21 UNL     1      22.443  30.991  13.039  1.00  0.00     0.091 C 
BRANCH  27  28
HETATM   28  C22 UNL     1      23.382  32.045  13.454  1.00  0.00     0.063 C 
BRANCH  28  29
HETATM   29  C23 UNL     1      22.880  33.122  14.320  1.00  0.00    -0.056 A 
HETATM   30  C24 UNL     1      22.354  32.878  15.585  1.00  0.00     0.007 A 
HETATM   31  C25 UNL     1      21.860  33.890  16.381  1.00  0.00     0.001 A 
HETATM   32  C26 UNL     1      21.885  35.188  15.917  1.00  0.00     0.000 A 
HETATM   33  C27 UNL     1      22.394  35.483  14.677  1.00  0.00     0.001 A 
HETATM   34  C28 UNL     1      22.874  34.460  13.917  1.00  0.00     0.007 A 
ENDBRANCH  28  29
ENDBRANCH  27  28
BRANCH  27  35
HETATM   35  N2  UNL     1      23.146  29.948  12.293  1.00  0.00    -0.354 N 
HETATM   36  C29 UNL     1      23.046  28.562  12.596  1.00  0.00     0.241 C 
HETATM   37  O4  UNL     1      22.296  28.241  13.592  1.00  0.00    -0.271 OA
ATOM     38  H2  UNL     1      23.741  30.230  11.514  1.00  0.00     0.162 HD
BRANCH  36  39
HETATM   39  C30 UNL     1      23.739  27.516  11.849  1.00  0.00     0.184 C 
BRANCH  39  40
HETATM   40  C31 UNL     1      25.229  27.730  11.694  1.00  0.00     0.010 C 
HETATM   41  C32 UNL     1      25.883  28.331  12.904  1.00  0.00     0.012 C 
HETATM   42  C33 UNL     1      25.963  26.548  11.116  1.00  0.00     0.012 C 
ENDBRANCH  39  40
BRANCH  39  43
HETATM   43  N3  UNL     1      23.093  27.236  10.603  1.00  0.00    -0.320 N 
HETATM   44  C34 UNL     1      23.011  28.086   9.452  1.00  0.00     0.130 C 
HETATM   45  C35 UNL     1      23.587  27.364   8.258  1.00  0.00     0.040 C 
HETATM   46  C36 UNL     1      22.982  25.998   8.060  1.00  0.00     0.126 C 
HETATM   47  N4  UNL     1      22.085  25.599   9.120  1.00  0.00    -0.343 N 
HETATM   48  C37 UNL     1      22.430  25.954  10.452  1.00  0.00     0.319 C 
ATOM     49  H4  UNL     1      21.231  25.080   8.919  1.00  0.00     0.164 HD
HETATM   50  O5  UNL     1      22.202  25.250  11.448  1.00  0.00    -0.247 OA
ENDBRANCH  39  43
ENDBRANCH  36  39
ENDBRANCH  27  35
ENDBRANCH  26  27
ENDBRANCH   1  26
TORSDOF 16
ENDMDL
