MODEL 4
REMARK VINA RESULT: -10.792736804      0.841      1.344
REMARK  16 active torsions:
REMARK  status: ('A' for Active; 'I' for Inactive)
REMARK    1  A    between atoms: C8_8  and  O1_9 
REMARK    2  A    between atoms: O1_9  and  C9_10 
REMARK    3  A    between atoms: C9_10  and  C10_11 
REMARK       I    between atoms: C10_11  and  N1_13 
REMARK    4  A    between atoms: N1_13  and  C11_15 
REMARK    5  A    between atoms: C11_15  and  C12_16 
REMARK    6  A    between atoms: C11_15  and  C19_23 
REMARK    7  A    between atoms: C12_16  and  C13_17 
REMARK    8  A    between atoms: C19_23  and  O3_24 
REMARK    9  A    between atoms: C19_23  and  C20_26 
REMARK   10  A    between atoms: C20_26  and  C21_27 
REMARK   11  A    between atoms: C21_27  and  C22_28 
REMARK   12  A    between atoms: C21_27  and  N2_35 
REMARK   13  A    between atoms: C22_28  and  C23_29 
REMARK       I    between atoms: N2_35  and  C29_37 
REMARK   14  A    between atoms: C29_37  and  C30_39 
REMARK   15  A    between atoms: C30_39  and  C31_40 
REMARK   16  A    between atoms: C30_39  and  N3_43 
ROOT
HETATM    1  C19 UNL     1      21.088  30.185  14.862  1.00  0.00     0.143 C 
ENDROOT
BRANCH   1   2
HETATM    2  C11 UNL     1      20.871  31.492  14.093  1.00  0.00     0.117 C 
BRANCH   2   3
HETATM    3  N1  UNL     1      19.708  32.206  14.449  1.00  0.00    -0.352 N 
HETATM    4  C10 UNL     1      18.509  32.242  13.652  1.00  0.00     0.242 C 
HETATM    5  O2  UNL     1      18.602  31.567  12.615  1.00  0.00    -0.271 OA
ATOM      6  H1  UNL     1      19.716  32.730  15.324  1.00  0.00     0.163 HD
BRANCH   4   7
HETATM    7  C9  UNL     1      17.357  33.030  14.121  1.00  0.00     0.278 C 
BRANCH   7   8
HETATM    8  O1  UNL     1      17.027  33.084  15.418  1.00  0.00    -0.341 OA
BRANCH   8   9
HETATM    9  C8  UNL     1      16.332  34.010  16.114  1.00  0.00     0.081 A 
HETATM   10  C2  UNL     1      14.966  34.038  16.149  1.00  0.00    -0.028 A 
HETATM   11  C1  UNL     1      14.174  32.976  15.455  1.00  0.00     0.051 C 
HETATM   12  C3  UNL     1      14.217  34.981  16.848  1.00  0.00     0.009 A 
HETATM   13  C4  UNL     1      14.946  35.948  17.552  1.00  0.00     0.001 A 
HETATM   14  C5  UNL     1      16.325  35.941  17.535  1.00  0.00     0.009 A 
HETATM   15  C6  UNL     1      17.017  35.000  16.837  1.00  0.00    -0.028 A 
HETATM   16  C7  UNL     1      18.484  34.968  16.806  1.00  0.00     0.051 C 
ENDBRANCH   8   9
ENDBRANCH   7   8
ENDBRANCH   4   7
ENDBRANCH   2   3
BRANCH   2  17
HETATM   17  C12 UNL     1      22.132  32.302  14.015  1.00  0.00     0.066 C 
BRANCH  17  18
HETATM   18  C13 UNL     1      22.105  33.520  14.855  1.00  0.00    -0.056 A 
HETATM   19  C14 UNL     1      22.168  33.461  16.225  1.00  0.00     0.007 A 
HETATM   20  C15 UNL     1      22.150  34.611  16.979  1.00  0.00     0.001 A 
HETATM   21  C16 UNL     1      22.068  35.830  16.321  1.00  0.00     0.000 A 
HETATM   22  C17 UNL     1      22.004  35.916  14.945  1.00  0.00     0.001 A 
HETATM   23  C18 UNL     1      22.023  34.733  14.212  1.00  0.00     0.007 A 
ENDBRANCH  17  18
ENDBRANCH   2  17
ENDBRANCH   1   2
BRANCH   1  24
HETATM   24  O3  UNL     1      21.295  30.527  16.193  1.00  0.00    -0.393 OA
ATOM     25  H3  UNL     1      20.519  30.259  16.672  1.00  0.00     0.210 HD
ENDBRANCH   1  24
BRANCH   1  26
HETATM   26  C20 UNL     1      20.104  29.144  14.597  1.00  0.00     0.059 C 
BRANCH  26  27
HETATM   27  C21 UNL     1      19.991  28.574  13.220  1.00  0.00     0.091 C 
BRANCH  27  28
HETATM   28  C22 UNL     1      18.726  27.907  12.872  1.00  0.00     0.063 C 
BRANCH  28  29
HETATM   29  C23 UNL     1      18.424  27.689  11.449  1.00  0.00    -0.056 A 
HETATM   30  C24 UNL     1      17.727  28.620  10.683  1.00  0.00     0.007 A 
HETATM   31  C25 UNL     1      17.425  28.397   9.357  1.00  0.00     0.001 A 
HETATM   32  C26 UNL     1      17.820  27.217   8.762  1.00  0.00     0.000 A 
HETATM   33  C27 UNL     1      18.511  26.267   9.472  1.00  0.00     0.001 A 
HETATM   34  C28 UNL     1      18.794  26.520  10.780  1.00  0.00     0.007 A 
ENDBRANCH  28  29
ENDBRANCH  27  28
BRANCH  27  35
HETATM   35  N2  UNL     1      21.126  27.706  12.906  1.00  0.00    -0.354 N 
HETATM   36  C29 UNL     1      22.020  27.942  11.825  1.00  0.00     0.241 C 
HETATM   37  O4  UNL     1      21.785  28.978  11.097  1.00  0.00    -0.271 OA
ATOM     38  H2  UNL     1      21.285  26.888  13.493  1.00  0.00     0.162 HD
BRANCH  36  39
HETATM   39  C30 UNL     1      23.160  27.084  11.512  1.00  0.00     0.184 C 
BRANCH  39  40
HETATM   40  C31 UNL     1      24.511  27.754  11.642  1.00  0.00     0.010 C 
HETATM   41  C32 UNL     1      24.585  28.753  12.760  1.00  0.00     0.012 C 
HETATM   42  C33 UNL     1      25.676  26.801  11.583  1.00  0.00     0.012 C 
ENDBRANCH  39  40
BRANCH  39  43
HETATM   43  N3  UNL     1      22.995  26.423  10.253  1.00  0.00    -0.320 N 
HETATM   44  C34 UNL     1      23.203  26.969   8.945  1.00  0.00     0.130 C 
HETATM   45  C35 UNL     1      24.217  26.126   8.210  1.00  0.00     0.040 C 
HETATM   46  C36 UNL     1      23.864  24.661   8.216  1.00  0.00     0.126 C 
HETATM   47  N4  UNL     1      22.719  24.341   9.035  1.00  0.00    -0.343 N 
HETATM   48  C37 UNL     1      22.564  25.037  10.265  1.00  0.00     0.319 C 
ATOM     49  H4  UNL     1      22.041  23.637   8.740  1.00  0.00     0.164 HD
HETATM   50  O5  UNL     1      22.100  24.537  11.301  1.00  0.00    -0.247 OA
ENDBRANCH  39  43
ENDBRANCH  36  39
ENDBRANCH  27  35
ENDBRANCH  26  27
ENDBRANCH   1  26
TORSDOF 16
ENDMDL
