MODEL 10
REMARK VINA RESULT: -10.276226318      1.478      5.667
REMARK  16 active torsions:
REMARK  status: ('A' for Active; 'I' for Inactive)
REMARK    1  A    between atoms: C8_8  and  O1_9 
REMARK    2  A    between atoms: O1_9  and  C9_10 
REMARK    3  A    between atoms: C9_10  and  C10_11 
REMARK       I    between atoms: C10_11  and  N1_13 
REMARK    4  A    between atoms: N1_13  and  C11_15 
REMARK    5  A    between atoms: C11_15  and  C12_16 
REMARK    6  A    between atoms: C11_15  and  C19_23 
REMARK    7  A    between atoms: C12_16  and  C13_17 
REMARK    8  A    between atoms: C19_23  and  O3_24 
REMARK    9  A    between atoms: C19_23  and  C20_26 
REMARK   10  A    between atoms: C20_26  and  C21_27 
REMARK   11  A    between atoms: C21_27  and  C22_28 
REMARK   12  A    between atoms: C21_27  and  N2_35 
REMARK   13  A    between atoms: C22_28  and  C23_29 
REMARK       I    between atoms: N2_35  and  C29_37 
REMARK   14  A    between atoms: C29_37  and  C30_39 
REMARK   15  A    between atoms: C30_39  and  C31_40 
REMARK   16  A    between atoms: C30_39  and  N3_43 
ROOT
HETATM    1  C19 UNL     1      19.928  30.831  14.267  1.00  0.00     0.143 C 
ENDROOT
BRANCH   1   2
HETATM    2  C11 UNL     1      18.573  30.268  13.827  1.00  0.00     0.117 C 
BRANCH   2   3
HETATM    3  N1  UNL     1      17.457  30.808  14.500  1.00  0.00    -0.352 N 
HETATM    4  C10 UNL     1      16.981  32.155  14.317  1.00  0.00     0.242 C 
HETATM    5  O2  UNL     1      17.654  32.793  13.493  1.00  0.00    -0.271 OA
ATOM      6  H1  UNL     1      16.957  30.209  15.157  1.00  0.00     0.163 HD
BRANCH   4   7
HETATM    7  C9  UNL     1      15.809  32.614  15.082  1.00  0.00     0.278 C 
BRANCH   7   8
HETATM    8  O1  UNL     1      15.940  33.183  16.287  1.00  0.00    -0.341 OA
BRANCH   8   9
HETATM    9  C8  UNL     1      16.161  34.470  16.636  1.00  0.00     0.081 A 
HETATM   10  C2  UNL     1      17.414  34.984  16.814  1.00  0.00    -0.028 A 
HETATM   11  C1  UNL     1      18.618  34.136  16.556  1.00  0.00     0.051 C 
HETATM   12  C3  UNL     1      17.678  36.301  17.181  1.00  0.00     0.009 A 
HETATM   13  C4  UNL     1      16.561  37.124  17.368  1.00  0.00     0.001 A 
HETATM   14  C5  UNL     1      15.285  36.632  17.193  1.00  0.00     0.009 A 
HETATM   15  C6  UNL     1      15.073  35.336  16.834  1.00  0.00    -0.028 A 
HETATM   16  C7  UNL     1      13.725  34.787  16.637  1.00  0.00     0.051 C 
ENDBRANCH   8   9
ENDBRANCH   7   8
ENDBRANCH   4   7
ENDBRANCH   2   3
BRANCH   2  17
HETATM   17  C12 UNL     1      18.461  30.203  12.332  1.00  0.00     0.066 C 
BRANCH  17  18
HETATM   18  C13 UNL     1      18.086  28.866  11.825  1.00  0.00    -0.056 A 
HETATM   19  C14 UNL     1      17.660  28.668  10.534  1.00  0.00     0.007 A 
HETATM   20  C15 UNL     1      17.327  27.411  10.088  1.00  0.00     0.001 A 
HETATM   21  C16 UNL     1      17.434  26.347  10.974  1.00  0.00     0.000 A 
HETATM   22  C17 UNL     1      17.859  26.519  12.275  1.00  0.00     0.001 A 
HETATM   23  C18 UNL     1      18.188  27.805  12.694  1.00  0.00     0.007 A 
ENDBRANCH  17  18
ENDBRANCH   2  17
ENDBRANCH   1   2
BRANCH   1  24
HETATM   24  O3  UNL     1      20.423  29.978  15.246  1.00  0.00    -0.393 OA
ATOM     25  H3  UNL     1      21.344  29.841  15.054  1.00  0.00     0.210 HD
ENDBRANCH   1  24
BRANCH   1  26
HETATM   26  C20 UNL     1      20.833  31.178  13.179  1.00  0.00     0.059 C 
BRANCH  26  27
HETATM   27  C21 UNL     1      22.309  31.082  13.393  1.00  0.00     0.091 C 
BRANCH  27  28
HETATM   28  C22 UNL     1      23.071  32.340  13.382  1.00  0.00     0.063 C 
BRANCH  28  29
HETATM   29  C23 UNL     1      22.771  33.345  14.413  1.00  0.00    -0.056 A 
HETATM   30  C24 UNL     1      22.635  33.014  15.758  1.00  0.00     0.007 A 
HETATM   31  C25 UNL     1      22.326  33.957  16.716  1.00  0.00     0.001 A 
HETATM   32  C26 UNL     1      22.146  35.271  16.339  1.00  0.00     0.000 A 
HETATM   33  C27 UNL     1      22.270  35.649  15.025  1.00  0.00     0.001 A 
HETATM   34  C28 UNL     1      22.575  34.693  14.105  1.00  0.00     0.007 A 
ENDBRANCH  28  29
ENDBRANCH  27  28
BRANCH  27  35
HETATM   35  N2  UNL     1      22.919  30.110  12.485  1.00  0.00    -0.354 N 
HETATM   36  C29 UNL     1      22.860  28.704  12.685  1.00  0.00     0.241 C 
HETATM   37  O4  UNL     1      22.238  28.295  13.737  1.00  0.00    -0.271 OA
ATOM     38  H2  UNL     1      23.412  30.460  11.664  1.00  0.00     0.162 HD
BRANCH  36  39
HETATM   39  C30 UNL     1      23.459  27.728  11.778  1.00  0.00     0.184 C 
BRANCH  39  40
HETATM   40  C31 UNL     1      24.471  28.303  10.810  1.00  0.00     0.010 C 
HETATM   41  C32 UNL     1      25.863  27.779  11.008  1.00  0.00     0.012 C 
HETATM   42  C33 UNL     1      24.011  28.313   9.376  1.00  0.00     0.012 C 
ENDBRANCH  39  40
BRANCH  39  43
HETATM   43  N3  UNL     1      22.465  26.932  11.124  1.00  0.00    -0.320 N 
HETATM   44  C34 UNL     1      21.116  27.300  10.814  1.00  0.00     0.130 C 
HETATM   45  C35 UNL     1      20.888  27.150   9.329  1.00  0.00     0.040 C 
HETATM   46  C36 UNL     1      21.289  25.791   8.817  1.00  0.00     0.126 C 
HETATM   47  N4  UNL     1      21.935  24.962   9.807  1.00  0.00    -0.343 N 
HETATM   48  C37 UNL     1      22.831  25.588  10.716  1.00  0.00     0.319 C 
ATOM     49  H4  UNL     1      21.755  23.960   9.853  1.00  0.00     0.164 HD
HETATM   50  O5  UNL     1      23.865  25.063  11.158  1.00  0.00    -0.247 OA
ENDBRANCH  39  43
ENDBRANCH  36  39
ENDBRANCH  27  35
ENDBRANCH  26  27
ENDBRANCH   1  26
TORSDOF 16
ENDMDL
