MODEL 1
REMARK VINA RESULT: -10.975351752      0.000      0.000
REMARK  16 active torsions:
REMARK  status: ('A' for Active; 'I' for Inactive)
REMARK    1  A    between atoms: C8_8  and  O1_9 
REMARK    2  A    between atoms: O1_9  and  C9_10 
REMARK    3  A    between atoms: C9_10  and  C10_11 
REMARK       I    between atoms: C10_11  and  N1_13 
REMARK    4  A    between atoms: N1_13  and  C11_15 
REMARK    5  A    between atoms: C11_15  and  C12_16 
REMARK    6  A    between atoms: C11_15  and  C19_23 
REMARK    7  A    between atoms: C12_16  and  C13_17 
REMARK    8  A    between atoms: C19_23  and  O3_24 
REMARK    9  A    between atoms: C19_23  and  C20_26 
REMARK   10  A    between atoms: C20_26  and  C21_27 
REMARK   11  A    between atoms: C21_27  and  C22_28 
REMARK   12  A    between atoms: C21_27  and  N2_35 
REMARK   13  A    between atoms: C22_28  and  C23_29 
REMARK       I    between atoms: N2_35  and  C29_37 
REMARK   14  A    between atoms: C29_37  and  C30_39 
REMARK   15  A    between atoms: C30_39  and  C31_40 
REMARK   16  A    between atoms: C30_39  and  N3_43 
ROOT
HETATM    1  C19 UNL     1      20.122  29.275  14.507  1.00  0.00     0.143 C 
ENDROOT
BRANCH   1   2
HETATM    2  C11 UNL     1      20.146  30.794  14.711  1.00  0.00     0.117 C 
BRANCH   2   3
HETATM    3  N1  UNL     1      18.891  31.377  14.986  1.00  0.00    -0.352 N 
HETATM    4  C10 UNL     1      18.103  32.088  14.013  1.00  0.00     0.242 C 
HETATM    5  O2  UNL     1      18.642  32.127  12.896  1.00  0.00    -0.271 OA
ATOM      6  H1  UNL     1      18.520  31.291  15.932  1.00  0.00     0.163 HD
BRANCH   4   7
HETATM    7  C9  UNL     1      16.810  32.664  14.417  1.00  0.00     0.278 C 
BRANCH   7   8
HETATM    8  O1  UNL     1      16.518  32.896  15.704  1.00  0.00    -0.341 OA
BRANCH   8   9
HETATM    9  C8  UNL     1      16.029  33.998  16.314  1.00  0.00     0.081 A 
HETATM   10  C2  UNL     1      14.694  34.278  16.376  1.00  0.00    -0.028 A 
HETATM   11  C1  UNL     1      13.696  33.315  15.816  1.00  0.00     0.051 C 
HETATM   12  C3  UNL     1      14.155  35.407  16.988  1.00  0.00     0.009 A 
HETATM   13  C4  UNL     1      15.073  36.289  17.570  1.00  0.00     0.001 A 
HETATM   14  C5  UNL     1      16.427  36.029  17.523  1.00  0.00     0.009 A 
HETATM   15  C6  UNL     1      16.910  34.913  16.913  1.00  0.00    -0.028 A 
HETATM   16  C7  UNL     1      18.345  34.611  16.852  1.00  0.00     0.051 C 
ENDBRANCH   8   9
ENDBRANCH   7   8
ENDBRANCH   4   7
ENDBRANCH   2   3
BRANCH   2  17
HETATM   17  C12 UNL     1      21.268  31.211  15.616  1.00  0.00     0.066 C 
BRANCH  17  18
HETATM   18  C13 UNL     1      21.900  32.490  15.223  1.00  0.00    -0.056 A 
HETATM   19  C14 UNL     1      21.816  33.615  16.005  1.00  0.00     0.007 A 
HETATM   20  C15 UNL     1      22.422  34.787  15.617  1.00  0.00     0.001 A 
HETATM   21  C16 UNL     1      23.120  34.803  14.417  1.00  0.00     0.000 A 
HETATM   22  C17 UNL     1      23.219  33.686  13.614  1.00  0.00     0.001 A 
HETATM   23  C18 UNL     1      22.593  32.516  14.036  1.00  0.00     0.007 A 
ENDBRANCH  17  18
ENDBRANCH   2  17
ENDBRANCH   1   2
BRANCH   1  24
HETATM   24  O3  UNL     1      20.377  28.696  15.745  1.00  0.00    -0.393 OA
ATOM     25  H3  UNL     1      19.571  28.281  16.028  1.00  0.00     0.210 HD
ENDBRANCH   1  24
BRANCH   1  26
HETATM   26  C20 UNL     1      18.970  28.771  13.772  1.00  0.00     0.059 C 
BRANCH  26  27
HETATM   27  C21 UNL     1      19.168  28.176  12.414  1.00  0.00     0.091 C 
BRANCH  27  28
HETATM   28  C22 UNL     1      18.094  27.315  11.897  1.00  0.00     0.063 C 
BRANCH  28  29
HETATM   29  C23 UNL     1      18.173  26.871  10.497  1.00  0.00    -0.056 A 
HETATM   30  C24 UNL     1      18.726  25.647  10.133  1.00  0.00     0.007 A 
HETATM   31  C25 UNL     1      18.821  25.249   8.816  1.00  0.00     0.001 A 
HETATM   32  C26 UNL     1      18.355  26.083   7.822  1.00  0.00     0.000 A 
HETATM   33  C27 UNL     1      17.799  27.301   8.128  1.00  0.00     0.001 A 
HETATM   34  C28 UNL     1      17.720  27.663   9.438  1.00  0.00     0.007 A 
ENDBRANCH  28  29
ENDBRANCH  27  28
BRANCH  27  35
HETATM   35  N2  UNL     1      20.460  27.496  12.312  1.00  0.00    -0.354 N 
HETATM   36  C29 UNL     1      21.483  27.886  11.405  1.00  0.00     0.241 C 
HETATM   37  O4  UNL     1      21.224  28.888  10.638  1.00  0.00    -0.271 OA
ATOM     38  H2  UNL     1      20.636  26.701  12.925  1.00  0.00     0.162 HD
BRANCH  36  39
HETATM   39  C30 UNL     1      22.776  27.216  11.304  1.00  0.00     0.184 C 
BRANCH  39  40
HETATM   40  C31 UNL     1      23.973  28.110  11.551  1.00  0.00     0.010 C 
HETATM   41  C32 UNL     1      23.767  29.103  12.657  1.00  0.00     0.012 C 
HETATM   42  C33 UNL     1      25.286  27.374  11.614  1.00  0.00     0.012 C 
ENDBRANCH  39  40
BRANCH  39  43
HETATM   43  N3  UNL     1      22.893  26.468  10.089  1.00  0.00    -0.320 N 
HETATM   44  C34 UNL     1      23.189  26.968   8.780  1.00  0.00     0.130 C 
HETATM   45  C35 UNL     1      24.414  26.269   8.244  1.00  0.00     0.040 C 
HETATM   46  C36 UNL     1      24.303  24.768   8.319  1.00  0.00     0.126 C 
HETATM   47  N4  UNL     1      23.122  24.305   9.009  1.00  0.00    -0.343 N 
HETATM   48  C37 UNL     1      22.692  25.032  10.153  1.00  0.00     0.319 C 
ATOM     49  H4  UNL     1      22.612  23.483   8.687  1.00  0.00     0.164 HD
HETATM   50  O5  UNL     1      22.176  24.519  11.158  1.00  0.00    -0.247 OA
ENDBRANCH  39  43
ENDBRANCH  36  39
ENDBRANCH  27  35
ENDBRANCH  26  27
ENDBRANCH   1  26
TORSDOF 16
ENDMDL
