MODEL 12
REMARK VINA RESULT: -10.088274353      1.333      5.422
REMARK  16 active torsions:
REMARK  status: ('A' for Active; 'I' for Inactive)
REMARK    1  A    between atoms: C8_8  and  O1_9 
REMARK    2  A    between atoms: O1_9  and  C9_10 
REMARK    3  A    between atoms: C9_10  and  C10_11 
REMARK       I    between atoms: C10_11  and  N1_13 
REMARK    4  A    between atoms: N1_13  and  C11_15 
REMARK    5  A    between atoms: C11_15  and  C12_16 
REMARK    6  A    between atoms: C11_15  and  C19_23 
REMARK    7  A    between atoms: C12_16  and  C13_17 
REMARK    8  A    between atoms: C19_23  and  O3_24 
REMARK    9  A    between atoms: C19_23  and  C20_26 
REMARK   10  A    between atoms: C20_26  and  C21_27 
REMARK   11  A    between atoms: C21_27  and  C22_28 
REMARK   12  A    between atoms: C21_27  and  N2_35 
REMARK   13  A    between atoms: C22_28  and  C23_29 
REMARK       I    between atoms: N2_35  and  C29_37 
REMARK   14  A    between atoms: C29_37  and  C30_39 
REMARK   15  A    between atoms: C30_39  and  C31_40 
REMARK   16  A    between atoms: C30_39  and  N3_43 
ROOT
HETATM    1  C19 UNL     1      19.987  30.733  13.990  1.00  0.00     0.143 C 
ENDROOT
BRANCH   1   2
HETATM    2  C11 UNL     1      18.614  30.237  13.522  1.00  0.00     0.117 C 
BRANCH   2   3
HETATM    3  N1  UNL     1      17.513  30.828  14.177  1.00  0.00    -0.352 N 
HETATM    4  C10 UNL     1      17.160  32.219  14.064  1.00  0.00     0.242 C 
HETATM    5  O2  UNL     1      17.926  32.849  13.317  1.00  0.00    -0.271 OA
ATOM      6  H1  UNL     1      16.932  30.233  14.768  1.00  0.00     0.163 HD
BRANCH   4   7
HETATM    7  C9  UNL     1      15.992  32.728  14.803  1.00  0.00     0.278 C 
BRANCH   7   8
HETATM    8  O1  UNL     1      16.101  33.172  16.062  1.00  0.00    -0.341 OA
BRANCH   8   9
HETATM    9  C8  UNL     1      16.093  34.428  16.559  1.00  0.00     0.081 A 
HETATM   10  C2  UNL     1      14.943  35.137  16.762  1.00  0.00    -0.028 A 
HETATM   11  C1  UNL     1      13.614  34.506  16.498  1.00  0.00     0.051 C 
HETATM   12  C3  UNL     1      14.898  36.436  17.263  1.00  0.00     0.009 A 
HETATM   13  C4  UNL     1      16.133  37.020  17.571  1.00  0.00     0.001 A 
HETATM   14  C5  UNL     1      17.309  36.326  17.378  1.00  0.00     0.009 A 
HETATM   15  C6  UNL     1      17.306  35.058  16.883  1.00  0.00    -0.028 A 
HETATM   16  C7  UNL     1      18.543  34.295  16.672  1.00  0.00     0.051 C 
ENDBRANCH   8   9
ENDBRANCH   7   8
ENDBRANCH   4   7
ENDBRANCH   2   3
BRANCH   2  17
HETATM   17  C12 UNL     1      18.527  30.186  12.024  1.00  0.00     0.066 C 
BRANCH  17  18
HETATM   18  C13 UNL     1      18.289  28.826  11.493  1.00  0.00    -0.056 A 
HETATM   19  C14 UNL     1      17.956  28.605  10.180  1.00  0.00     0.007 A 
HETATM   20  C15 UNL     1      17.750  27.328   9.712  1.00  0.00     0.001 A 
HETATM   21  C16 UNL     1      17.888  26.270  10.600  1.00  0.00     0.000 A 
HETATM   22  C17 UNL     1      18.223  26.466  11.924  1.00  0.00     0.001 A 
HETATM   23  C18 UNL     1      18.423  27.771  12.365  1.00  0.00     0.007 A 
ENDBRANCH  17  18
ENDBRANCH   2  17
ENDBRANCH   1   2
BRANCH   1  24
HETATM   24  O3  UNL     1      20.361  29.935  15.065  1.00  0.00    -0.393 OA
ATOM     25  H3  UNL     1      20.674  29.114  14.704  1.00  0.00     0.210 HD
ENDBRANCH   1  24
BRANCH   1  26
HETATM   26  C20 UNL     1      20.970  30.910  12.930  1.00  0.00     0.059 C 
BRANCH  26  27
HETATM   27  C21 UNL     1      22.425  30.934  13.274  1.00  0.00     0.091 C 
BRANCH  27  28
HETATM   28  C22 UNL     1      23.101  32.240  13.239  1.00  0.00     0.063 C 
BRANCH  28  29
HETATM   29  C23 UNL     1      22.802  33.207  14.307  1.00  0.00    -0.056 A 
HETATM   30  C24 UNL     1      22.544  32.815  15.617  1.00  0.00     0.007 A 
HETATM   31  C25 UNL     1      22.238  33.724  16.607  1.00  0.00     0.001 A 
HETATM   32  C26 UNL     1      22.185  35.067  16.297  1.00  0.00     0.000 A 
HETATM   33  C27 UNL     1      22.432  35.507  15.021  1.00  0.00     0.001 A 
HETATM   34  C28 UNL     1      22.732  34.581  14.067  1.00  0.00     0.007 A 
ENDBRANCH  28  29
ENDBRANCH  27  28
BRANCH  27  35
HETATM   35  N2  UNL     1      23.176  29.951  12.492  1.00  0.00    -0.354 N 
HETATM   36  C29 UNL     1      23.052  28.546  12.670  1.00  0.00     0.241 C 
HETATM   37  O4  UNL     1      22.236  28.149  13.584  1.00  0.00    -0.271 OA
ATOM     38  H2  UNL     1      23.821  30.293  11.781  1.00  0.00     0.162 HD
BRANCH  36  39
HETATM   39  C30 UNL     1      23.793  27.560  11.887  1.00  0.00     0.184 C 
BRANCH  39  40
HETATM   40  C31 UNL     1      25.271  27.849  11.741  1.00  0.00     0.010 C 
HETATM   41  C32 UNL     1      25.904  28.407  12.983  1.00  0.00     0.012 C 
HETATM   42  C33 UNL     1      26.053  26.736  11.094  1.00  0.00     0.012 C 
ENDBRANCH  39  40
BRANCH  39  43
HETATM   43  N3  UNL     1      23.159  27.297  10.630  1.00  0.00    -0.320 N 
HETATM   44  C34 UNL     1      23.056  28.176   9.503  1.00  0.00     0.130 C 
HETATM   45  C35 UNL     1      23.658  27.504   8.292  1.00  0.00     0.040 C 
HETATM   46  C36 UNL     1      23.093  26.128   8.054  1.00  0.00     0.126 C 
HETATM   47  N4  UNL     1      22.204  25.673   9.099  1.00  0.00    -0.343 N 
HETATM   48  C37 UNL     1      22.535  26.001  10.442  1.00  0.00     0.319 C 
ATOM     49  H4  UNL     1      21.366  25.135   8.880  1.00  0.00     0.164 HD
HETATM   50  O5  UNL     1      22.323  25.264  11.417  1.00  0.00    -0.247 OA
ENDBRANCH  39  43
ENDBRANCH  36  39
ENDBRANCH  27  35
ENDBRANCH  26  27
ENDBRANCH   1  26
TORSDOF 16
ENDMDL
