MODEL 5
REMARK VINA RESULT: -10.563226257      1.032      2.098
REMARK  16 active torsions:
REMARK  status: ('A' for Active; 'I' for Inactive)
REMARK    1  A    between atoms: C8_8  and  O1_9 
REMARK    2  A    between atoms: O1_9  and  C9_10 
REMARK    3  A    between atoms: C9_10  and  C10_11 
REMARK       I    between atoms: C10_11  and  N1_13 
REMARK    4  A    between atoms: N1_13  and  C11_15 
REMARK    5  A    between atoms: C11_15  and  C12_16 
REMARK    6  A    between atoms: C11_15  and  C19_23 
REMARK    7  A    between atoms: C12_16  and  C13_17 
REMARK    8  A    between atoms: C19_23  and  O3_24 
REMARK    9  A    between atoms: C19_23  and  C20_26 
REMARK   10  A    between atoms: C20_26  and  C21_27 
REMARK   11  A    between atoms: C21_27  and  C22_28 
REMARK   12  A    between atoms: C21_27  and  N2_35 
REMARK   13  A    between atoms: C22_28  and  C23_29 
REMARK       I    between atoms: N2_35  and  C29_37 
REMARK   14  A    between atoms: C29_37  and  C30_39 
REMARK   15  A    between atoms: C30_39  and  C31_40 
REMARK   16  A    between atoms: C30_39  and  N3_43 
ROOT
HETATM    1  C19 UNL     1      21.617  30.759  14.355  1.00  0.00     0.143 C 
ENDROOT
BRANCH   1   2
HETATM    2  C11 UNL     1      21.080  32.124  14.798  1.00  0.00     0.117 C 
BRANCH   2   3
HETATM    3  N1  UNL     1      19.700  32.155  15.089  1.00  0.00    -0.352 N 
HETATM    4  C10 UNL     1      18.675  32.399  14.108  1.00  0.00     0.242 C 
HETATM    5  O2  UNL     1      19.134  32.573  12.968  1.00  0.00    -0.271 OA
ATOM      6  H1  UNL     1      19.410  31.995  16.054  1.00  0.00     0.163 HD
BRANCH   4   7
HETATM    7  C9  UNL     1      17.264  32.417  14.530  1.00  0.00     0.278 C 
BRANCH   7   8
HETATM    8  O1  UNL     1      16.915  32.712  15.788  1.00  0.00    -0.341 OA
BRANCH   8   9
HETATM    9  C8  UNL     1      16.269  33.785  16.296  1.00  0.00     0.081 A 
HETATM   10  C2  UNL     1      16.918  34.818  16.910  1.00  0.00    -0.028 A 
HETATM   11  C1  UNL     1      18.412  34.831  16.982  1.00  0.00     0.051 C 
HETATM   12  C3  UNL     1      16.285  35.934  17.451  1.00  0.00     0.009 A 
HETATM   13  C4  UNL     1      14.890  35.966  17.339  1.00  0.00     0.001 A 
HETATM   14  C5  UNL     1      14.209  34.937  16.722  1.00  0.00     0.009 A 
HETATM   15  C6  UNL     1      14.869  33.864  16.208  1.00  0.00    -0.028 A 
HETATM   16  C7  UNL     1      14.170  32.757  15.543  1.00  0.00     0.051 C 
ENDBRANCH   8   9
ENDBRANCH   7   8
ENDBRANCH   4   7
ENDBRANCH   2   3
BRANCH   2  17
HETATM   17  C12 UNL     1      21.973  32.763  15.821  1.00  0.00     0.066 C 
BRANCH  17  18
HETATM   18  C13 UNL     1      22.062  34.234  15.692  1.00  0.00    -0.056 A 
HETATM   19  C14 UNL     1      22.016  34.863  14.472  1.00  0.00     0.007 A 
HETATM   20  C15 UNL     1      22.092  36.233  14.383  1.00  0.00     0.001 A 
HETATM   21  C16 UNL     1      22.216  36.963  15.558  1.00  0.00     0.000 A 
HETATM   22  C17 UNL     1      22.264  36.356  16.795  1.00  0.00     0.001 A 
HETATM   23  C18 UNL     1      22.185  34.967  16.849  1.00  0.00     0.007 A 
ENDBRANCH  17  18
ENDBRANCH   2  17
ENDBRANCH   1   2
BRANCH   1  24
HETATM   24  O3  UNL     1      22.821  30.561  15.021  1.00  0.00    -0.393 OA
ATOM     25  H3  UNL     1      22.806  29.674  15.362  1.00  0.00     0.210 HD
ENDBRANCH   1  24
BRANCH   1  26
HETATM   26  C20 UNL     1      20.650  29.671  14.409  1.00  0.00     0.059 C 
BRANCH  26  27
HETATM   27  C21 UNL     1      20.340  28.902  13.164  1.00  0.00     0.091 C 
BRANCH  27  28
HETATM   28  C22 UNL     1      19.011  28.276  13.077  1.00  0.00     0.063 C 
BRANCH  28  29
HETATM   29  C23 UNL     1      18.514  27.883  11.750  1.00  0.00    -0.056 A 
HETATM   30  C24 UNL     1      17.940  28.795  10.868  1.00  0.00     0.007 A 
HETATM   31  C25 UNL     1      17.452  28.414   9.636  1.00  0.00     0.001 A 
HETATM   32  C26 UNL     1      17.531  27.090   9.257  1.00  0.00     0.000 A 
HETATM   33  C27 UNL     1      18.089  26.152  10.089  1.00  0.00     0.001 A 
HETATM   34  C28 UNL     1      18.561  26.562  11.299  1.00  0.00     0.007 A 
ENDBRANCH  28  29
ENDBRANCH  27  28
BRANCH  27  35
HETATM   35  N2  UNL     1      21.384  27.922  12.867  1.00  0.00    -0.354 N 
HETATM   36  C29 UNL     1      22.280  28.037  11.769  1.00  0.00     0.241 C 
HETATM   37  O4  UNL     1      22.132  29.066  11.008  1.00  0.00    -0.271 OA
ATOM     38  H2  UNL     1      21.475  27.112  13.481  1.00  0.00     0.162 HD
BRANCH  36  39
HETATM   39  C30 UNL     1      23.330  27.066  11.472  1.00  0.00     0.184 C 
BRANCH  39  40
HETATM   40  C31 UNL     1      24.740  27.605  11.583  1.00  0.00     0.010 C 
HETATM   41  C32 UNL     1      24.932  28.569  12.717  1.00  0.00     0.012 C 
HETATM   42  C33 UNL     1      25.810  26.550  11.479  1.00  0.00     0.012 C 
ENDBRANCH  39  40
BRANCH  39  43
HETATM   43  N3  UNL     1      23.096  26.395  10.229  1.00  0.00    -0.320 N 
HETATM   44  C34 UNL     1      23.284  26.915   8.907  1.00  0.00     0.130 C 
HETATM   45  C35 UNL     1      24.236  26.019   8.152  1.00  0.00     0.040 C 
HETATM   46  C36 UNL     1      23.822  24.571   8.191  1.00  0.00     0.126 C 
HETATM   47  N4  UNL     1      22.692  24.311   9.051  1.00  0.00    -0.343 N 
HETATM   48  C37 UNL     1      22.608  25.029  10.275  1.00  0.00     0.319 C 
ATOM     49  H4  UNL     1      21.976  23.634   8.789  1.00  0.00     0.164 HD
HETATM   50  O5  UNL     1      22.157  24.564  11.333  1.00  0.00    -0.247 OA
ENDBRANCH  39  43
ENDBRANCH  36  39
ENDBRANCH  27  35
ENDBRANCH  26  27
ENDBRANCH   1  26
TORSDOF 16
ENDMDL
