MODEL 3
REMARK VINA RESULT: -10.815109056      0.537      1.652
REMARK  16 active torsions:
REMARK  status: ('A' for Active; 'I' for Inactive)
REMARK    1  A    between atoms: C8_8  and  O1_9 
REMARK    2  A    between atoms: O1_9  and  C9_10 
REMARK    3  A    between atoms: C9_10  and  C10_11 
REMARK       I    between atoms: C10_11  and  N1_13 
REMARK    4  A    between atoms: N1_13  and  C11_15 
REMARK    5  A    between atoms: C11_15  and  C12_16 
REMARK    6  A    between atoms: C11_15  and  C19_23 
REMARK    7  A    between atoms: C12_16  and  C13_17 
REMARK    8  A    between atoms: C19_23  and  O3_24 
REMARK    9  A    between atoms: C19_23  and  C20_26 
REMARK   10  A    between atoms: C20_26  and  C21_27 
REMARK   11  A    between atoms: C21_27  and  C22_28 
REMARK   12  A    between atoms: C21_27  and  N2_35 
REMARK   13  A    between atoms: C22_28  and  C23_29 
REMARK       I    between atoms: N2_35  and  C29_37 
REMARK   14  A    between atoms: C29_37  and  C30_39 
REMARK   15  A    between atoms: C30_39  and  C31_40 
REMARK   16  A    between atoms: C30_39  and  N3_43 
ROOT
HETATM    1  C19 UNL     1      20.313  28.966  14.428  1.00  0.00     0.143 C 
ENDROOT
BRANCH   1   2
HETATM    2  C11 UNL     1      20.616  30.458  14.253  1.00  0.00     0.117 C 
BRANCH   2   3
HETATM    3  N1  UNL     1      19.553  31.324  14.582  1.00  0.00    -0.352 N 
HETATM    4  C10 UNL     1      18.717  31.979  13.610  1.00  0.00     0.242 C 
HETATM    5  O2  UNL     1      19.026  31.694  12.442  1.00  0.00    -0.271 OA
ATOM      6  H1  UNL     1      19.364  31.498  15.570  1.00  0.00     0.163 HD
BRANCH   4   7
HETATM    7  C9  UNL     1      17.640  32.871  14.071  1.00  0.00     0.278 C 
BRANCH   7   8
HETATM    8  O1  UNL     1      17.269  32.913  15.357  1.00  0.00    -0.341 OA
BRANCH   8   9
HETATM    9  C8  UNL     1      16.508  33.805  16.028  1.00  0.00     0.081 A 
HETATM   10  C2  UNL     1      17.040  34.809  16.788  1.00  0.00    -0.028 A 
HETATM   11  C1  UNL     1      18.522  35.000  16.850  1.00  0.00     0.051 C 
HETATM   12  C3  UNL     1      16.288  35.740  17.498  1.00  0.00     0.009 A 
HETATM   13  C4  UNL     1      14.897  35.610  17.402  1.00  0.00     0.001 A 
HETATM   14  C5  UNL     1      14.333  34.608  16.641  1.00  0.00     0.009 A 
HETATM   15  C6  UNL     1      15.108  33.718  15.963  1.00  0.00    -0.028 A 
HETATM   16  C7  UNL     1      14.534  32.644  15.142  1.00  0.00     0.051 C 
ENDBRANCH   8   9
ENDBRANCH   7   8
ENDBRANCH   4   7
ENDBRANCH   2   3
BRANCH   2  17
HETATM   17  C12 UNL     1      21.952  30.820  14.832  1.00  0.00     0.066 C 
BRANCH  17  18
HETATM   18  C13 UNL     1      22.207  32.277  14.864  1.00  0.00    -0.056 A 
HETATM   19  C14 UNL     1      22.659  32.962  13.763  1.00  0.00     0.007 A 
HETATM   20  C15 UNL     1      22.878  34.318  13.820  1.00  0.00     0.001 A 
HETATM   21  C16 UNL     1      22.631  34.977  15.017  1.00  0.00     0.000 A 
HETATM   22  C17 UNL     1      22.177  34.311  16.137  1.00  0.00     0.001 A 
HETATM   23  C18 UNL     1      21.966  32.938  16.045  1.00  0.00     0.007 A 
ENDBRANCH  17  18
ENDBRANCH   2  17
ENDBRANCH   1   2
BRANCH   1  24
HETATM   24  O3  UNL     1      20.356  28.700  15.791  1.00  0.00    -0.393 OA
ATOM     25  H3  UNL     1      20.127  29.507  16.238  1.00  0.00     0.210 HD
ENDBRANCH   1  24
BRANCH   1  26
HETATM   26  C20 UNL     1      19.144  28.487  13.702  1.00  0.00     0.059 C 
BRANCH  26  27
HETATM   27  C21 UNL     1      19.301  27.993  12.300  1.00  0.00     0.091 C 
BRANCH  27  28
HETATM   28  C22 UNL     1      18.183  27.225  11.730  1.00  0.00     0.063 C 
BRANCH  28  29
HETATM   29  C23 UNL     1      18.278  26.795  10.327  1.00  0.00    -0.056 A 
HETATM   30  C24 UNL     1      17.868  27.602   9.270  1.00  0.00     0.007 A 
HETATM   31  C25 UNL     1      17.936  27.181   7.959  1.00  0.00     0.001 A 
HETATM   32  C26 UNL     1      18.425  25.923   7.677  1.00  0.00     0.000 A 
HETATM   33  C27 UNL     1      18.844  25.088   8.682  1.00  0.00     0.001 A 
HETATM   34  C28 UNL     1      18.763  25.535   9.966  1.00  0.00     0.007 A 
ENDBRANCH  28  29
ENDBRANCH  27  28
BRANCH  27  35
HETATM   35  N2  UNL     1      20.558  27.264  12.128  1.00  0.00    -0.354 N 
HETATM   36  C29 UNL     1      21.668  27.775  11.401  1.00  0.00     0.241 C 
HETATM   37  O4  UNL     1      21.525  28.939  10.869  1.00  0.00    -0.271 OA
ATOM     38  H2  UNL     1      20.642  26.341  12.552  1.00  0.00     0.162 HD
BRANCH  36  39
HETATM   39  C30 UNL     1      22.928  27.056  11.233  1.00  0.00     0.184 C 
BRANCH  39  40
HETATM   40  C31 UNL     1      24.169  27.894  11.450  1.00  0.00     0.010 C 
HETATM   41  C32 UNL     1      24.044  28.880  12.575  1.00  0.00     0.012 C 
HETATM   42  C33 UNL     1      25.451  27.103  11.460  1.00  0.00     0.012 C 
ENDBRANCH  39  40
BRANCH  39  43
HETATM   43  N3  UNL     1      22.965  26.332   9.998  1.00  0.00    -0.320 N 
HETATM   44  C34 UNL     1      23.308  26.835   8.701  1.00  0.00     0.130 C 
HETATM   45  C35 UNL     1      24.455  26.028   8.141  1.00  0.00     0.040 C 
HETATM   46  C36 UNL     1      24.190  24.545   8.177  1.00  0.00     0.126 C 
HETATM   47  N4  UNL     1      22.969  24.188   8.860  1.00  0.00    -0.343 N 
HETATM   48  C37 UNL     1      22.618  24.924  10.024  1.00  0.00     0.319 C 
ATOM     49  H4  UNL     1      22.377  23.431   8.518  1.00  0.00     0.164 HD
HETATM   50  O5  UNL     1      22.054  24.440  11.018  1.00  0.00    -0.247 OA
ENDBRANCH  39  43
ENDBRANCH  36  39
ENDBRANCH  27  35
ENDBRANCH  26  27
ENDBRANCH   1  26
TORSDOF 16
ENDMDL
