MODEL 2
REMARK VINA RESULT: -10.939723976      0.058      1.248
REMARK  16 active torsions:
REMARK  status: ('A' for Active; 'I' for Inactive)
REMARK    1  A    between atoms: C8_8  and  O1_9 
REMARK    2  A    between atoms: O1_9  and  C9_10 
REMARK    3  A    between atoms: C9_10  and  C10_11 
REMARK       I    between atoms: C10_11  and  N1_13 
REMARK    4  A    between atoms: N1_13  and  C11_15 
REMARK    5  A    between atoms: C11_15  and  C12_16 
REMARK    6  A    between atoms: C11_15  and  C19_23 
REMARK    7  A    between atoms: C12_16  and  C13_17 
REMARK    8  A    between atoms: C19_23  and  O3_24 
REMARK    9  A    between atoms: C19_23  and  C20_26 
REMARK   10  A    between atoms: C20_26  and  C21_27 
REMARK   11  A    between atoms: C21_27  and  C22_28 
REMARK   12  A    between atoms: C21_27  and  N2_35 
REMARK   13  A    between atoms: C22_28  and  C23_29 
REMARK       I    between atoms: N2_35  and  C29_37 
REMARK   14  A    between atoms: C29_37  and  C30_39 
REMARK   15  A    between atoms: C30_39  and  C31_40 
REMARK   16  A    between atoms: C30_39  and  N3_43 
ROOT
HETATM    1  C19 UNL     1      20.128  29.288  14.550  1.00  0.00     0.143 C 
ENDROOT
BRANCH   1   2
HETATM    2  C11 UNL     1      20.153  30.809  14.742  1.00  0.00     0.117 C 
BRANCH   2   3
HETATM    3  N1  UNL     1      18.898  31.396  15.005  1.00  0.00    -0.352 N 
HETATM    4  C10 UNL     1      18.118  32.104  14.024  1.00  0.00     0.242 C 
HETATM    5  O2  UNL     1      18.665  32.137  12.910  1.00  0.00    -0.271 OA
ATOM      6  H1  UNL     1      18.520  31.315  15.949  1.00  0.00     0.163 HD
BRANCH   4   7
HETATM    7  C9  UNL     1      16.823  32.685  14.417  1.00  0.00     0.278 C 
BRANCH   7   8
HETATM    8  O1  UNL     1      16.518  32.909  15.701  1.00  0.00    -0.341 OA
BRANCH   8   9
HETATM    9  C8  UNL     1      16.041  34.013  16.315  1.00  0.00     0.081 A 
HETATM   10  C2  UNL     1      16.852  34.938  16.910  1.00  0.00    -0.028 A 
HETATM   11  C1  UNL     1      18.338  34.790  16.841  1.00  0.00     0.051 C 
HETATM   12  C3  UNL     1      16.395  36.083  17.559  1.00  0.00     0.009 A 
HETATM   13  C4  UNL     1      15.007  36.266  17.581  1.00  0.00     0.001 A 
HETATM   14  C5  UNL     1      14.166  35.349  16.986  1.00  0.00     0.009 A 
HETATM   15  C6  UNL     1      14.656  34.243  16.364  1.00  0.00    -0.028 A 
HETATM   16  C7  UNL     1      13.783  33.254  15.719  1.00  0.00     0.051 C 
ENDBRANCH   8   9
ENDBRANCH   7   8
ENDBRANCH   4   7
ENDBRANCH   2   3
BRANCH   2  17
HETATM   17  C12 UNL     1      21.272  31.232  15.648  1.00  0.00     0.066 C 
BRANCH  17  18
HETATM   18  C13 UNL     1      21.904  32.509  15.250  1.00  0.00    -0.056 A 
HETATM   19  C14 UNL     1      21.834  33.633  16.035  1.00  0.00     0.007 A 
HETATM   20  C15 UNL     1      22.440  34.803  15.642  1.00  0.00     0.001 A 
HETATM   21  C16 UNL     1      23.124  34.819  14.434  1.00  0.00     0.000 A 
HETATM   22  C17 UNL     1      23.209  33.703  13.628  1.00  0.00     0.001 A 
HETATM   23  C18 UNL     1      22.584  32.535  14.055  1.00  0.00     0.007 A 
ENDBRANCH  17  18
ENDBRANCH   2  17
ENDBRANCH   1   2
BRANCH   1  24
HETATM   24  O3  UNL     1      20.384  28.719  15.792  1.00  0.00    -0.393 OA
ATOM     25  H3  UNL     1      20.236  27.785  15.704  1.00  0.00     0.210 HD
ENDBRANCH   1  24
BRANCH   1  26
HETATM   26  C20 UNL     1      18.976  28.779  13.819  1.00  0.00     0.059 C 
BRANCH  26  27
HETATM   27  C21 UNL     1      19.171  28.188  12.460  1.00  0.00     0.091 C 
BRANCH  27  28
HETATM   28  C22 UNL     1      18.096  27.326  11.943  1.00  0.00     0.063 C 
BRANCH  28  29
HETATM   29  C23 UNL     1      18.177  26.877  10.545  1.00  0.00    -0.056 A 
HETATM   30  C24 UNL     1      18.684  25.630  10.191  1.00  0.00     0.007 A 
HETATM   31  C25 UNL     1      18.782  25.225   8.877  1.00  0.00     0.001 A 
HETATM   32  C26 UNL     1      18.366  26.077   7.875  1.00  0.00     0.000 A 
HETATM   33  C27 UNL     1      17.857  27.317   8.170  1.00  0.00     0.001 A 
HETATM   34  C28 UNL     1      17.774  27.685   9.479  1.00  0.00     0.007 A 
ENDBRANCH  28  29
ENDBRANCH  27  28
BRANCH  27  35
HETATM   35  N2  UNL     1      20.463  27.509  12.353  1.00  0.00    -0.354 N 
HETATM   36  C29 UNL     1      21.471  27.883  11.422  1.00  0.00     0.241 C 
HETATM   37  O4  UNL     1      21.198  28.868  10.639  1.00  0.00    -0.271 OA
ATOM     38  H2  UNL     1      20.650  26.727  12.979  1.00  0.00     0.162 HD
BRANCH  36  39
HETATM   39  C30 UNL     1      22.765  27.214  11.316  1.00  0.00     0.184 C 
BRANCH  39  40
HETATM   40  C31 UNL     1      23.962  28.114  11.538  1.00  0.00     0.010 C 
HETATM   41  C32 UNL     1      23.772  29.113  12.642  1.00  0.00     0.012 C 
HETATM   42  C33 UNL     1      25.279  27.384  11.582  1.00  0.00     0.012 C 
ENDBRANCH  39  40
BRANCH  39  43
HETATM   43  N3  UNL     1      22.870  26.450  10.110  1.00  0.00    -0.320 N 
HETATM   44  C34 UNL     1      23.165  26.932   8.793  1.00  0.00     0.130 C 
HETATM   45  C35 UNL     1      24.382  26.214   8.262  1.00  0.00     0.040 C 
HETATM   46  C36 UNL     1      24.257  24.715   8.356  1.00  0.00     0.126 C 
HETATM   47  N4  UNL     1      23.074  24.272   9.056  1.00  0.00    -0.343 N 
HETATM   48  C37 UNL     1      22.655  25.017  10.192  1.00  0.00     0.319 C 
ATOM     49  H4  UNL     1      22.555  23.451   8.746  1.00  0.00     0.164 HD
HETATM   50  O5  UNL     1      22.139  24.522  11.205  1.00  0.00    -0.247 OA
ENDBRANCH  39  43
ENDBRANCH  36  39
ENDBRANCH  27  35
ENDBRANCH  26  27
ENDBRANCH   1  26
TORSDOF 16
ENDMDL
