MODEL 10
REMARK VINA RESULT: -10.492820921      2.237      9.551
REMARK  12 active torsions:
REMARK  status: ('A' for Active; 'I' for Inactive)
REMARK    1  A    between atoms: C3_3  and  O1_4 
REMARK    2  A    between atoms: C7_9  and  C8_10 
REMARK       I    between atoms: C8_10  and  N1_12 
REMARK    3  A    between atoms: N1_12  and  C9_14 
REMARK    4  A    between atoms: C9_14  and  C10_15 
REMARK    5  A    between atoms: C9_14  and  C17_23 
REMARK    6  A    between atoms: C10_15  and  S1_16 
REMARK    7  A    between atoms: S1_16  and  C11_17 
REMARK    8  A    between atoms: C17_23  and  O3_24 
REMARK    9  A    between atoms: C17_23  and  C18_26 
REMARK   10  A    between atoms: C18_26  and  N2_27 
REMARK   11  A    between atoms: C27_36  and  C28_37 
REMARK       I    between atoms: C28_37  and  N3_39 
REMARK   12  A    between atoms: N3_39  and  C29_41 
ROOT
HETATM    1  C9  UNL     1     -13.374  52.727   3.607  1.00  0.00     0.124 C 
ENDROOT
BRANCH   1   2
HETATM    2  N1  UNL     1     -12.972  53.035   2.274  1.00  0.00    -0.349 N 
HETATM    3  C8  UNL     1     -13.708  53.820   1.356  1.00  0.00     0.252 C 
HETATM    4  O2  UNL     1     -14.825  54.297   1.729  1.00  0.00    -0.268 OA
ATOM      5  H1  UNL     1     -12.079  52.657   1.955  1.00  0.00     0.163 HD
BRANCH   3   6
HETATM    6  C7  UNL     1     -13.207  54.085   0.003  1.00  0.00     0.040 A 
HETATM    7  C2  UNL     1     -12.994  53.013  -0.828  1.00  0.00    -0.013 A 
HETATM    8  C1  UNL     1     -13.257  51.614  -0.438  1.00  0.00     0.052 C 
HETATM    9  C3  UNL     1     -12.512  53.282  -2.106  1.00  0.00     0.072 A 
HETATM   10  C4  UNL     1     -12.249  54.565  -2.550  1.00  0.00     0.037 A 
HETATM   11  C5  UNL     1     -12.469  55.611  -1.706  1.00  0.00     0.004 A 
HETATM   12  C6  UNL     1     -12.952  55.367  -0.419  1.00  0.00     0.018 A 
BRANCH   9  13
HETATM   13  O1  UNL     1     -12.276  52.258  -2.988  1.00  0.00    -0.360 OA
ATOM     14  H1  UNL     1     -11.878  52.433  -3.833  1.00  0.00     0.217 HD
ENDBRANCH   9  13
ENDBRANCH   3   6
ENDBRANCH   1   2
BRANCH   1  15
HETATM   15  C10 UNL     1     -13.927  51.297   3.668  1.00  0.00     0.107 C 
BRANCH  15  16
HETATM   16  S1  UNL     1     -12.831  50.114   2.847  1.00  0.00    -0.128 SA
BRANCH  16  17
HETATM   17  C11 UNL     1     -13.828  48.899   2.007  1.00  0.00     0.000 A 
HETATM   18  C12 UNL     1     -15.208  49.066   1.884  1.00  0.00     0.018 A 
HETATM   19  C13 UNL     1     -16.002  48.147   1.241  1.00  0.00     0.001 A 
HETATM   20  C14 UNL     1     -15.446  47.014   0.688  1.00  0.00     0.000 A 
HETATM   21  C15 UNL     1     -14.089  46.830   0.799  1.00  0.00     0.001 A 
HETATM   22  C16 UNL     1     -13.286  47.772   1.456  1.00  0.00     0.018 A 
ENDBRANCH  16  17
ENDBRANCH  15  16
ENDBRANCH   1  15
BRANCH   1  23
HETATM   23  C17 UNL     1     -12.214  52.862   4.578  1.00  0.00     0.170 C 
BRANCH  23  24
HETATM   24  O3  UNL     1     -12.337  52.059   5.679  1.00  0.00    -0.392 OA
ATOM     25  H3  UNL     1     -12.276  52.535   6.499  1.00  0.00     0.210 HD
ENDBRANCH  23  24
BRANCH  23  26
HETATM   26  C18 UNL     1     -11.802  54.269   4.867  1.00  0.00     0.307 C 
BRANCH  26  27
HETATM   27  N2  UNL     1     -12.850  55.261   4.780  1.00  0.00     0.105 N 
HETATM   28  C19 UNL     1     -12.383  56.304   3.906  1.00  0.00     0.278 C 
HETATM   29  C20 UNL     1     -12.996  57.636   4.026  1.00  0.00     0.018 C 
HETATM   30  C21 UNL     1     -14.122  57.774   2.989  1.00  0.00     0.007 C 
HETATM   31  C25 UNL     1     -13.461  58.024   5.391  1.00  0.00    -0.006 C 
HETATM   32  C22 UNL     1     -14.560  59.222   3.044  1.00  0.00     0.000 C 
HETATM   33  C23 UNL     1     -15.314  59.380   4.368  1.00  0.00     0.000 C 
HETATM   34  C24 UNL     1     -14.287  59.243   5.457  1.00  0.00     0.005 C 
HETATM   35  C26 UNL     1     -14.161  56.825   6.021  1.00  0.00     0.050 C 
HETATM   36  C27 UNL     1     -13.040  55.774   6.110  1.00  0.00     0.314 C 
BRANCH  36  37
HETATM   37  C28 UNL     1     -13.448  54.828   7.127  1.00  0.00     0.252 C 
HETATM   38  O4  UNL     1     -14.381  54.008   6.987  1.00  0.00    -0.271 OA
HETATM   39  N3  UNL     1     -12.770  54.791   8.394  1.00  0.00    -0.351 N 
ATOM     40  H3  UNL     1     -12.000  55.441   8.559  1.00  0.00     0.163 HD
BRANCH  39  41
HETATM   41  C29 UNL     1     -13.138  53.868   9.440  1.00  0.00     0.022 C 
HETATM   42  C30 UNL     1     -12.410  54.268  10.705  1.00  0.00     0.037 C 
HETATM   43  C31 UNL     1     -14.621  53.920   9.749  1.00  0.00     0.037 C 
HETATM   44  C32 UNL     1     -12.748  52.442   9.130  1.00  0.00     0.037 C 
ENDBRANCH  39  41
ENDBRANCH  36  37
ENDBRANCH  26  27
ENDBRANCH  23  26
ENDBRANCH   1  23
TORSDOF 12
ENDMDL
