MODEL 4
REMARK VINA RESULT: -10.855383348      1.935      9.737
REMARK  12 active torsions:
REMARK  status: ('A' for Active; 'I' for Inactive)
REMARK    1  A    between atoms: C3_3  and  O1_4 
REMARK    2  A    between atoms: C7_9  and  C8_10 
REMARK       I    between atoms: C8_10  and  N1_12 
REMARK    3  A    between atoms: N1_12  and  C9_14 
REMARK    4  A    between atoms: C9_14  and  C10_15 
REMARK    5  A    between atoms: C9_14  and  C17_23 
REMARK    6  A    between atoms: C10_15  and  S1_16 
REMARK    7  A    between atoms: S1_16  and  C11_17 
REMARK    8  A    between atoms: C17_23  and  O3_24 
REMARK    9  A    between atoms: C17_23  and  C18_26 
REMARK   10  A    between atoms: C18_26  and  N2_27 
REMARK   11  A    between atoms: C27_36  and  C28_37 
REMARK       I    between atoms: C28_37  and  N3_39 
REMARK   12  A    between atoms: N3_39  and  C29_41 
ROOT
HETATM    1  C9  UNL     1     -12.522  53.047   3.568  1.00  0.00     0.124 C 
ENDROOT
BRANCH   1   2
HETATM    2  N1  UNL     1     -12.403  52.541   2.240  1.00  0.00    -0.349 N 
HETATM    3  C8  UNL     1     -13.388  52.649   1.230  1.00  0.00     0.252 C 
HETATM    4  O2  UNL     1     -14.478  53.240   1.510  1.00  0.00    -0.268 OA
ATOM      5  H1  UNL     1     -11.536  52.060   1.998  1.00  0.00     0.163 HD
BRANCH   3   6
HETATM    6  C7  UNL     1     -13.171  52.098  -0.111  1.00  0.00     0.040 A 
HETATM    7  C2  UNL     1     -12.918  52.976  -1.137  1.00  0.00    -0.013 A 
HETATM    8  C1  UNL     1     -12.838  54.439  -0.957  1.00  0.00     0.052 C 
HETATM    9  C3  UNL     1     -12.720  52.437  -2.405  1.00  0.00     0.072 A 
HETATM   10  C4  UNL     1     -12.770  51.077  -2.654  1.00  0.00     0.037 A 
HETATM   11  C5  UNL     1     -13.022  50.228  -1.620  1.00  0.00     0.004 A 
HETATM   12  C6  UNL     1     -13.224  50.745  -0.338  1.00  0.00     0.018 A 
BRANCH   9  13
HETATM   13  O1  UNL     1     -12.464  53.256  -3.475  1.00  0.00    -0.360 OA
ATOM     14  H1  UNL     1     -12.654  52.965  -4.359  1.00  0.00     0.217 HD
ENDBRANCH   9  13
ENDBRANCH   3   6
ENDBRANCH   1   2
BRANCH   1  15
HETATM   15  C10 UNL     1     -12.396  51.898   4.577  1.00  0.00     0.107 C 
BRANCH  15  16
HETATM   16  S1  UNL     1     -13.881  50.864   4.612  1.00  0.00    -0.128 SA
BRANCH  16  17
HETATM   17  C11 UNL     1     -13.706  49.572   3.399  1.00  0.00     0.000 A 
HETATM   18  C12 UNL     1     -12.452  49.045   3.089  1.00  0.00     0.018 A 
HETATM   19  C13 UNL     1     -12.285  48.046   2.159  1.00  0.00     0.001 A 
HETATM   20  C14 UNL     1     -13.376  47.527   1.496  1.00  0.00     0.000 A 
HETATM   21  C15 UNL     1     -14.620  48.031   1.786  1.00  0.00     0.001 A 
HETATM   22  C16 UNL     1     -14.781  49.050   2.735  1.00  0.00     0.018 A 
ENDBRANCH  16  17
ENDBRANCH  15  16
ENDBRANCH   1  15
BRANCH   1  23
HETATM   23  C17 UNL     1     -11.459  54.092   3.857  1.00  0.00     0.170 C 
BRANCH  23  24
HETATM   24  O3  UNL     1     -10.187  53.647   3.622  1.00  0.00    -0.392 OA
ATOM     25  H3  UNL     1      -9.544  54.017   4.216  1.00  0.00     0.210 HD
ENDBRANCH  23  24
BRANCH  23  26
HETATM   26  C18 UNL     1     -11.641  54.828   5.145  1.00  0.00     0.307 C 
BRANCH  26  27
HETATM   27  N2  UNL     1     -12.657  55.858   5.141  1.00  0.00     0.105 N 
HETATM   28  C19 UNL     1     -12.116  56.992   4.439  1.00  0.00     0.278 C 
HETATM   29  C20 UNL     1     -12.699  58.316   4.707  1.00  0.00     0.018 C 
HETATM   30  C21 UNL     1     -13.764  58.628   3.643  1.00  0.00     0.007 C 
HETATM   31  C25 UNL     1     -13.226  58.534   6.087  1.00  0.00    -0.006 C 
HETATM   32  C22 UNL     1     -14.166  60.069   3.871  1.00  0.00     0.000 C 
HETATM   33  C23 UNL     1     -14.986  60.075   5.165  1.00  0.00     0.000 C 
HETATM   34  C24 UNL     1     -14.022  59.760   6.276  1.00  0.00     0.005 C 
HETATM   35  C26 UNL     1     -13.990  57.285   6.514  1.00  0.00     0.050 C 
HETATM   36  C27 UNL     1     -12.904  56.196   6.516  1.00  0.00     0.314 C 
BRANCH  36  37
HETATM   37  C28 UNL     1     -13.391  55.136   7.375  1.00  0.00     0.252 C 
HETATM   38  O4  UNL     1     -14.370  54.409   7.104  1.00  0.00    -0.271 OA
HETATM   39  N3  UNL     1     -12.741  54.867   8.629  1.00  0.00    -0.351 N 
ATOM     40  H3  UNL     1     -11.936  55.433   8.898  1.00  0.00     0.163 HD
BRANCH  39  41
HETATM   41  C29 UNL     1     -13.188  53.824   9.520  1.00  0.00     0.022 C 
HETATM   42  C30 UNL     1     -12.523  54.031  10.865  1.00  0.00     0.037 C 
HETATM   43  C31 UNL     1     -14.684  53.877   9.755  1.00  0.00     0.037 C 
HETATM   44  C32 UNL     1     -12.812  52.441   9.042  1.00  0.00     0.037 C 
ENDBRANCH  39  41
ENDBRANCH  36  37
ENDBRANCH  26  27
ENDBRANCH  23  26
ENDBRANCH   1  23
TORSDOF 12
ENDMDL
