MODEL 2
REMARK VINA RESULT: -10.898576014      1.865      9.720
REMARK  12 active torsions:
REMARK  status: ('A' for Active; 'I' for Inactive)
REMARK    1  A    between atoms: C3_3  and  O1_4 
REMARK    2  A    between atoms: C7_9  and  C8_10 
REMARK       I    between atoms: C8_10  and  N1_12 
REMARK    3  A    between atoms: N1_12  and  C9_14 
REMARK    4  A    between atoms: C9_14  and  C10_15 
REMARK    5  A    between atoms: C9_14  and  C17_23 
REMARK    6  A    between atoms: C10_15  and  S1_16 
REMARK    7  A    between atoms: S1_16  and  C11_17 
REMARK    8  A    between atoms: C17_23  and  O3_24 
REMARK    9  A    between atoms: C17_23  and  C18_26 
REMARK   10  A    between atoms: C18_26  and  N2_27 
REMARK   11  A    between atoms: C27_36  and  C28_37 
REMARK       I    between atoms: C28_37  and  N3_39 
REMARK   12  A    between atoms: N3_39  and  C29_41 
ROOT
HETATM    1  C9  UNL     1     -12.522  53.517   3.685  1.00  0.00     0.124 C 
ENDROOT
BRANCH   1   2
HETATM    2  N1  UNL     1     -12.326  53.577   2.273  1.00  0.00    -0.349 N 
HETATM    3  C8  UNL     1     -13.335  53.836   1.316  1.00  0.00     0.252 C 
HETATM    4  O2  UNL     1     -14.522  54.031   1.726  1.00  0.00    -0.268 OA
ATOM      5  H1  UNL     1     -11.380  53.419   1.925  1.00  0.00     0.163 HD
BRANCH   3   6
HETATM    6  C7  UNL     1     -13.033  53.882  -0.118  1.00  0.00     0.040 A 
HETATM    7  C2  UNL     1     -12.848  52.692  -0.778  1.00  0.00    -0.013 A 
HETATM    8  C1  UNL     1     -12.952  51.373  -0.124  1.00  0.00     0.052 C 
HETATM    9  C3  UNL     1     -12.555  52.754  -2.138  1.00  0.00     0.072 A 
HETATM   10  C4  UNL     1     -12.449  53.950  -2.825  1.00  0.00     0.037 A 
HETATM   11  C5  UNL     1     -12.639  55.117  -2.148  1.00  0.00     0.004 A 
HETATM   12  C6  UNL     1     -12.932  55.081  -0.783  1.00  0.00     0.018 A 
BRANCH   9  13
HETATM   13  O1  UNL     1     -12.357  51.603  -2.858  1.00  0.00    -0.360 OA
ATOM     14  H1  UNL     1     -11.701  51.574  -3.545  1.00  0.00     0.217 HD
ENDBRANCH   9  13
ENDBRANCH   3   6
ENDBRANCH   1   2
BRANCH   1  15
HETATM   15  C10 UNL     1     -12.190  52.109   4.198  1.00  0.00     0.107 C 
BRANCH  15  16
HETATM   16  S1  UNL     1     -13.668  51.076   4.339  1.00  0.00    -0.128 SA
BRANCH  16  17
HETATM   17  C11 UNL     1     -13.518  49.707   3.209  1.00  0.00     0.000 A 
HETATM   18  C12 UNL     1     -12.270  49.156   2.912  1.00  0.00     0.018 A 
HETATM   19  C13 UNL     1     -12.123  48.099   2.046  1.00  0.00     0.001 A 
HETATM   20  C14 UNL     1     -13.226  47.543   1.436  1.00  0.00     0.000 A 
HETATM   21  C15 UNL     1     -14.464  48.070   1.714  1.00  0.00     0.001 A 
HETATM   22  C16 UNL     1     -14.606  49.148   2.598  1.00  0.00     0.018 A 
ENDBRANCH  16  17
ENDBRANCH  15  16
ENDBRANCH   1  15
BRANCH   1  23
HETATM   23  C17 UNL     1     -11.657  54.535   4.406  1.00  0.00     0.170 C 
BRANCH  23  24
HETATM   24  O3  UNL     1     -10.322  54.237   4.359  1.00  0.00    -0.392 OA
ATOM     25  H3  UNL     1      -9.765  55.005   4.409  1.00  0.00     0.210 HD
ENDBRANCH  23  24
BRANCH  23  26
HETATM   26  C18 UNL     1     -12.164  54.947   5.749  1.00  0.00     0.307 C 
BRANCH  26  27
HETATM   27  N2  UNL     1     -12.968  56.148   5.776  1.00  0.00     0.105 N 
HETATM   28  C19 UNL     1     -12.616  56.926   4.617  1.00  0.00     0.278 C 
HETATM   29  C20 UNL     1     -12.884  58.373   4.644  1.00  0.00     0.018 C 
HETATM   30  C21 UNL     1     -14.235  58.653   3.969  1.00  0.00     0.007 C 
HETATM   31  C25 UNL     1     -12.794  59.031   5.981  1.00  0.00    -0.006 C 
HETATM   32  C22 UNL     1     -14.340  60.160   3.863  1.00  0.00     0.000 C 
HETATM   33  C23 UNL     1     -14.576  60.664   5.290  1.00  0.00     0.000 C 
HETATM   34  C24 UNL     1     -13.298  60.415   6.042  1.00  0.00     0.005 C 
HETATM   35  C26 UNL     1     -13.471  58.131   7.009  1.00  0.00     0.050 C 
HETATM   36  C27 UNL     1     -12.611  56.855   6.975  1.00  0.00     0.314 C 
BRANCH  36  37
HETATM   37  C28 UNL     1     -12.843  56.174   8.232  1.00  0.00     0.252 C 
HETATM   38  O4  UNL     1     -12.012  56.123   9.164  1.00  0.00    -0.271 OA
HETATM   39  N3  UNL     1     -14.089  55.500   8.470  1.00  0.00    -0.351 N 
ATOM     40  H3  UNL     1     -14.803  55.512   7.740  1.00  0.00     0.163 HD
BRANCH  39  41
HETATM   41  C29 UNL     1     -14.369  54.807   9.704  1.00  0.00     0.022 C 
HETATM   42  C30 UNL     1     -15.708  54.114   9.568  1.00  0.00     0.037 C 
HETATM   43  C31 UNL     1     -13.343  53.731   9.998  1.00  0.00     0.037 C 
HETATM   44  C32 UNL     1     -14.463  55.736  10.892  1.00  0.00     0.037 C 
ENDBRANCH  39  41
ENDBRANCH  36  37
ENDBRANCH  26  27
ENDBRANCH  23  26
ENDBRANCH   1  23
TORSDOF 12
ENDMDL
