MODEL 1
REMARK VINA RESULT: -10.908022113      0.000      0.000
REMARK  12 active torsions:
REMARK  status: ('A' for Active; 'I' for Inactive)
REMARK    1  A    between atoms: C3_3  and  O1_4 
REMARK    2  A    between atoms: C7_9  and  C8_10 
REMARK       I    between atoms: C8_10  and  N1_12 
REMARK    3  A    between atoms: N1_12  and  C9_14 
REMARK    4  A    between atoms: C9_14  and  C10_15 
REMARK    5  A    between atoms: C9_14  and  C17_23 
REMARK    6  A    between atoms: C10_15  and  S1_16 
REMARK    7  A    between atoms: S1_16  and  C11_17 
REMARK    8  A    between atoms: C17_23  and  O3_24 
REMARK    9  A    between atoms: C17_23  and  C18_26 
REMARK   10  A    between atoms: C18_26  and  N2_27 
REMARK   11  A    between atoms: C27_36  and  C28_37 
REMARK       I    between atoms: C28_37  and  N3_39 
REMARK   12  A    between atoms: N3_39  and  C29_41 
ROOT
HETATM    1  C9  UNL     1     -12.524  55.167   4.492  1.00  0.00     0.124 C 
ENDROOT
BRANCH   1   2
HETATM    2  N1  UNL     1     -12.396  55.670   5.821  1.00  0.00    -0.349 N 
HETATM    3  C8  UNL     1     -13.403  55.627   6.813  1.00  0.00     0.252 C 
HETATM    4  O2  UNL     1     -14.523  55.105   6.516  1.00  0.00    -0.268 OA
ATOM      5  H1  UNL     1     -11.505  56.095   6.076  1.00  0.00     0.163 HD
BRANCH   3   6
HETATM    6  C7  UNL     1     -13.175  56.168   8.157  1.00  0.00     0.040 A 
HETATM    7  C2  UNL     1     -12.917  55.282   9.174  1.00  0.00    -0.013 A 
HETATM    8  C1  UNL     1     -12.842  53.821   8.984  1.00  0.00     0.052 C 
HETATM    9  C3  UNL     1     -12.709  55.812  10.445  1.00  0.00     0.072 A 
HETATM   10  C4  UNL     1     -12.753  57.170  10.704  1.00  0.00     0.037 A 
HETATM   11  C5  UNL     1     -13.011  58.028   9.677  1.00  0.00     0.004 A 
HETATM   12  C6  UNL     1     -13.223  57.520   8.393  1.00  0.00     0.018 A 
BRANCH   9  13
HETATM   13  O1  UNL     1     -12.448  54.985  11.507  1.00  0.00    -0.360 OA
ATOM     14  H1  UNL     1     -13.151  54.702  12.081  1.00  0.00     0.217 HD
ENDBRANCH   9  13
ENDBRANCH   3   6
ENDBRANCH   1   2
BRANCH   1  15
HETATM   15  C10 UNL     1     -12.421  56.322   3.486  1.00  0.00     0.107 C 
BRANCH  15  16
HETATM   16  S1  UNL     1     -13.922  57.331   3.462  1.00  0.00    -0.128 SA
BRANCH  16  17
HETATM   17  C11 UNL     1     -13.747  58.644   4.653  1.00  0.00     0.000 A 
HETATM   18  C12 UNL     1     -12.496  59.194   4.934  1.00  0.00     0.018 A 
HETATM   19  C13 UNL     1     -12.330  60.209   5.847  1.00  0.00     0.001 A 
HETATM   20  C14 UNL     1     -13.417  60.721   6.521  1.00  0.00     0.000 A 
HETATM   21  C15 UNL     1     -14.658  60.193   6.260  1.00  0.00     0.001 A 
HETATM   22  C16 UNL     1     -14.819  59.159   5.328  1.00  0.00     0.018 A 
ENDBRANCH  16  17
ENDBRANCH  15  16
ENDBRANCH   1  15
BRANCH   1  23
HETATM   23  C17 UNL     1     -11.453  54.135   4.187  1.00  0.00     0.170 C 
BRANCH  23  24
HETATM   24  O3  UNL     1     -10.183  54.592   4.415  1.00  0.00    -0.392 OA
ATOM     25  H3  UNL     1     -10.159  55.406   4.905  1.00  0.00     0.210 HD
ENDBRANCH  23  24
BRANCH  23  26
HETATM   26  C18 UNL     1     -11.638  53.404   2.897  1.00  0.00     0.307 C 
BRANCH  26  27
HETATM   27  N2  UNL     1     -12.655  52.377   2.899  1.00  0.00     0.105 N 
HETATM   28  C19 UNL     1     -12.115  51.238   3.593  1.00  0.00     0.278 C 
HETATM   29  C20 UNL     1     -12.701  49.916   3.320  1.00  0.00     0.018 C 
HETATM   30  C21 UNL     1     -13.763  49.600   4.384  1.00  0.00     0.007 C 
HETATM   31  C25 UNL     1     -13.232  49.706   1.940  1.00  0.00    -0.006 C 
HETATM   32  C22 UNL     1     -14.168  48.161   4.150  1.00  0.00     0.000 C 
HETATM   33  C23 UNL     1     -14.992  48.164   2.858  1.00  0.00     0.000 C 
HETATM   34  C24 UNL     1     -14.031  48.483   1.746  1.00  0.00     0.005 C 
HETATM   35  C26 UNL     1     -13.996  50.959   1.521  1.00  0.00     0.050 C 
HETATM   36  C27 UNL     1     -12.907  52.047   1.522  1.00  0.00     0.314 C 
BRANCH  36  37
HETATM   37  C28 UNL     1     -13.395  53.111   0.670  1.00  0.00     0.252 C 
HETATM   38  O4  UNL     1     -14.385  53.824   0.937  1.00  0.00    -0.271 OA
HETATM   39  N3  UNL     1     -12.732  53.404  -0.571  1.00  0.00    -0.351 N 
ATOM     40  H3  UNL     1     -11.916  52.851  -0.837  1.00  0.00     0.163 HD
BRANCH  39  41
HETATM   41  C29 UNL     1     -13.178  54.453  -1.455  1.00  0.00     0.022 C 
HETATM   42  C30 UNL     1     -12.520  54.251  -2.804  1.00  0.00     0.037 C 
HETATM   43  C31 UNL     1     -14.676  54.408  -1.684  1.00  0.00     0.037 C 
HETATM   44  C32 UNL     1     -12.795  55.833  -0.971  1.00  0.00     0.037 C 
ENDBRANCH  39  41
ENDBRANCH  36  37
ENDBRANCH  26  27
ENDBRANCH  23  26
ENDBRANCH   1  23
TORSDOF 12
ENDMDL
