MODEL 5
REMARK VINA RESULT: -10.751685867      1.868      9.744
REMARK  12 active torsions:
REMARK  status: ('A' for Active; 'I' for Inactive)
REMARK    1  A    between atoms: C3_3  and  O1_4 
REMARK    2  A    between atoms: C7_9  and  C8_10 
REMARK       I    between atoms: C8_10  and  N1_12 
REMARK    3  A    between atoms: N1_12  and  C9_14 
REMARK    4  A    between atoms: C9_14  and  C10_15 
REMARK    5  A    between atoms: C9_14  and  C17_23 
REMARK    6  A    between atoms: C10_15  and  S1_16 
REMARK    7  A    between atoms: S1_16  and  C11_17 
REMARK    8  A    between atoms: C17_23  and  O3_24 
REMARK    9  A    between atoms: C17_23  and  C18_26 
REMARK   10  A    between atoms: C18_26  and  N2_27 
REMARK   11  A    between atoms: C27_36  and  C28_37 
REMARK       I    between atoms: C28_37  and  N3_39 
REMARK   12  A    between atoms: N3_39  and  C29_41 
ROOT
HETATM    1  C9  UNL     1     -12.495  53.512   3.663  1.00  0.00     0.124 C 
ENDROOT
BRANCH   1   2
HETATM    2  N1  UNL     1     -12.305  53.571   2.250  1.00  0.00    -0.349 N 
HETATM    3  C8  UNL     1     -13.317  53.835   1.298  1.00  0.00     0.252 C 
HETATM    4  O2  UNL     1     -14.501  54.036   1.714  1.00  0.00    -0.268 OA
ATOM      5  H1  UNL     1     -11.362  53.409   1.898  1.00  0.00     0.163 HD
BRANCH   3   6
HETATM    6  C7  UNL     1     -13.022  53.880  -0.138  1.00  0.00     0.040 A 
HETATM    7  C2  UNL     1     -12.853  52.689  -0.800  1.00  0.00    -0.013 A 
HETATM    8  C1  UNL     1     -12.969  51.370  -0.148  1.00  0.00     0.052 C 
HETATM    9  C3  UNL     1     -12.567  52.750  -2.161  1.00  0.00     0.072 A 
HETATM   10  C4  UNL     1     -12.451  53.945  -2.847  1.00  0.00     0.037 A 
HETATM   11  C5  UNL     1     -12.623  55.113  -2.167  1.00  0.00     0.004 A 
HETATM   12  C6  UNL     1     -12.911  55.078  -0.801  1.00  0.00     0.018 A 
BRANCH   9  13
HETATM   13  O1  UNL     1     -12.385  51.598  -2.884  1.00  0.00    -0.360 OA
ATOM     14  H1  UNL     1     -12.440  50.750  -2.459  1.00  0.00     0.217 HD
ENDBRANCH   9  13
ENDBRANCH   3   6
ENDBRANCH   1   2
BRANCH   1  15
HETATM   15  C10 UNL     1     -12.157  52.105   4.175  1.00  0.00     0.107 C 
BRANCH  15  16
HETATM   16  S1  UNL     1     -13.624  51.050   4.269  1.00  0.00    -0.128 SA
BRANCH  16  17
HETATM   17  C11 UNL     1     -13.422  49.688   3.139  1.00  0.00     0.000 A 
HETATM   18  C12 UNL     1     -14.524  49.109   2.510  1.00  0.00     0.018 A 
HETATM   19  C13 UNL     1     -14.400  48.059   1.632  1.00  0.00     0.001 A 
HETATM   20  C14 UNL     1     -13.157  47.539   1.343  1.00  0.00     0.000 A 
HETATM   21  C15 UNL     1     -12.057  48.095   1.952  1.00  0.00     0.001 A 
HETATM   22  C16 UNL     1     -12.193  49.166   2.846  1.00  0.00     0.018 A 
ENDBRANCH  16  17
ENDBRANCH  15  16
ENDBRANCH   1  15
BRANCH   1  23
HETATM   23  C17 UNL     1     -11.628  54.532   4.379  1.00  0.00     0.170 C 
BRANCH  23  24
HETATM   24  O3  UNL     1     -10.294  54.232   4.335  1.00  0.00    -0.392 OA
ATOM     25  H3  UNL     1      -9.826  54.702   3.654  1.00  0.00     0.210 HD
ENDBRANCH  23  24
BRANCH  23  26
HETATM   26  C18 UNL     1     -12.136  54.952   5.720  1.00  0.00     0.307 C 
BRANCH  26  27
HETATM   27  N2  UNL     1     -12.956  56.143   5.736  1.00  0.00     0.105 N 
HETATM   28  C19 UNL     1     -12.591  56.930   4.587  1.00  0.00     0.278 C 
HETATM   29  C20 UNL     1     -12.878  58.373   4.615  1.00  0.00     0.018 C 
HETATM   30  C21 UNL     1     -14.220  58.640   3.916  1.00  0.00     0.007 C 
HETATM   31  C25 UNL     1     -12.822  59.027   5.957  1.00  0.00    -0.006 C 
HETATM   32  C22 UNL     1     -14.341  60.146   3.814  1.00  0.00     0.000 C 
HETATM   33  C23 UNL     1     -14.611  60.640   5.238  1.00  0.00     0.000 C 
HETATM   34  C24 UNL     1     -13.345  60.404   6.014  1.00  0.00     0.005 C 
HETATM   35  C26 UNL     1     -13.508  58.113   6.967  1.00  0.00     0.050 C 
HETATM   36  C27 UNL     1     -12.631  56.849   6.945  1.00  0.00     0.314 C 
BRANCH  36  37
HETATM   37  C28 UNL     1     -12.878  56.160   8.194  1.00  0.00     0.252 C 
HETATM   38  O4  UNL     1     -12.080  56.146   9.156  1.00  0.00    -0.271 OA
HETATM   39  N3  UNL     1     -14.101  55.430   8.388  1.00  0.00    -0.351 N 
ATOM     40  H3  UNL     1     -14.787  55.410   7.632  1.00  0.00     0.163 HD
BRANCH  39  41
HETATM   41  C29 UNL     1     -14.394  54.726   9.612  1.00  0.00     0.022 C 
HETATM   42  C30 UNL     1     -14.410  55.730  10.746  1.00  0.00     0.037 C 
HETATM   43  C31 UNL     1     -15.762  54.074   9.582  1.00  0.00     0.037 C 
HETATM   44  C32 UNL     1     -13.356  53.682   9.953  1.00  0.00     0.037 C 
ENDBRANCH  39  41
ENDBRANCH  36  37
ENDBRANCH  26  27
ENDBRANCH  23  26
ENDBRANCH   1  23
TORSDOF 12
ENDMDL
