MODEL 6
REMARK VINA RESULT: -10.700851658      2.086      8.073
REMARK  12 active torsions:
REMARK  status: ('A' for Active; 'I' for Inactive)
REMARK    1  A    between atoms: C3_3  and  O1_4 
REMARK    2  A    between atoms: C7_9  and  C8_10 
REMARK       I    between atoms: C8_10  and  N1_12 
REMARK    3  A    between atoms: N1_12  and  C9_14 
REMARK    4  A    between atoms: C9_14  and  C10_15 
REMARK    5  A    between atoms: C9_14  and  C17_23 
REMARK    6  A    between atoms: C10_15  and  S1_16 
REMARK    7  A    between atoms: S1_16  and  C11_17 
REMARK    8  A    between atoms: C17_23  and  O3_24 
REMARK    9  A    between atoms: C17_23  and  C18_26 
REMARK   10  A    between atoms: C18_26  and  N2_27 
REMARK   11  A    between atoms: C27_36  and  C28_37 
REMARK       I    between atoms: C28_37  and  N3_39 
REMARK   12  A    between atoms: N3_39  and  C29_41 
ROOT
HETATM    1  C9  UNL     1     -12.735  55.339   2.409  1.00  0.00     0.124 C 
ENDROOT
BRANCH   1   2
HETATM    2  N1  UNL     1     -13.407  54.092   2.573  1.00  0.00    -0.349 N 
HETATM    3  C8  UNL     1     -12.790  52.867   2.921  1.00  0.00     0.252 C 
HETATM    4  O2  UNL     1     -11.532  52.854   3.103  1.00  0.00    -0.268 OA
ATOM      5  H1  UNL     1     -14.417  54.082   2.428  1.00  0.00     0.163 HD
BRANCH   3   6
HETATM    6  C7  UNL     1     -13.570  51.634   3.072  1.00  0.00     0.040 A 
HETATM    7  C2  UNL     1     -13.897  50.934   1.936  1.00  0.00    -0.013 A 
HETATM    8  C1  UNL     1     -13.492  51.348   0.579  1.00  0.00     0.052 C 
HETATM    9  C3  UNL     1     -14.643  49.770   2.097  1.00  0.00     0.072 A 
HETATM   10  C4  UNL     1     -15.053  49.311   3.335  1.00  0.00     0.037 A 
HETATM   11  C5  UNL     1     -14.715  50.024   4.446  1.00  0.00     0.004 A 
HETATM   12  C6  UNL     1     -13.967  51.195   4.311  1.00  0.00     0.018 A 
BRANCH   9  13
HETATM   13  O1  UNL     1     -15.006  49.022   1.005  1.00  0.00    -0.360 OA
ATOM     14  H1  UNL     1     -15.080  49.427   0.149  1.00  0.00     0.217 HD
ENDBRANCH   9  13
ENDBRANCH   3   6
ENDBRANCH   1   2
BRANCH   1  15
HETATM   15  C10 UNL     1     -13.391  56.139   1.276  1.00  0.00     0.107 C 
BRANCH  15  16
HETATM   16  S1  UNL     1     -12.478  55.983  -0.278  1.00  0.00    -0.128 SA
BRANCH  16  17
HETATM   17  C11 UNL     1     -13.243  54.713  -1.265  1.00  0.00     0.000 A 
HETATM   18  C12 UNL     1     -14.614  54.469  -1.182  1.00  0.00     0.018 A 
HETATM   19  C13 UNL     1     -15.233  53.498  -1.932  1.00  0.00     0.001 A 
HETATM   20  C14 UNL     1     -14.501  52.723  -2.805  1.00  0.00     0.000 A 
HETATM   21  C15 UNL     1     -13.149  52.946  -2.902  1.00  0.00     0.001 A 
HETATM   22  C16 UNL     1     -12.525  53.939  -2.134  1.00  0.00     0.018 A 
ENDBRANCH  16  17
ENDBRANCH  15  16
ENDBRANCH   1  15
BRANCH   1  23
HETATM   23  C17 UNL     1     -12.766  56.155   3.688  1.00  0.00     0.170 C 
BRANCH  23  24
HETATM   24  O3  UNL     1     -11.524  56.371   4.222  1.00  0.00    -0.392 OA
ATOM     25  H3  UNL     1     -11.384  57.270   4.494  1.00  0.00     0.210 HD
ENDBRANCH  23  24
BRANCH  23  26
HETATM   26  C18 UNL     1     -13.810  55.736   4.671  1.00  0.00     0.307 C 
BRANCH  26  27
HETATM   27  N2  UNL     1     -13.326  55.378   5.986  1.00  0.00     0.105 N 
HETATM   28  C19 UNL     1     -13.703  54.009   6.224  1.00  0.00     0.278 C 
HETATM   29  C20 UNL     1     -13.794  53.546   7.617  1.00  0.00     0.018 C 
HETATM   30  C21 UNL     1     -12.473  52.869   8.016  1.00  0.00     0.007 C 
HETATM   31  C25 UNL     1     -14.208  54.570   8.623  1.00  0.00    -0.006 C 
HETATM   32  C22 UNL     1     -12.719  52.254   9.378  1.00  0.00     0.000 C 
HETATM   33  C23 UNL     1     -12.794  53.428  10.359  1.00  0.00     0.000 C 
HETATM   34  C24 UNL     1     -14.061  54.169  10.034  1.00  0.00     0.005 C 
HETATM   35  C26 UNL     1     -13.472  55.870   8.318  1.00  0.00     0.050 C 
HETATM   36  C27 UNL     1     -13.992  56.246   6.920  1.00  0.00     0.314 C 
BRANCH  36  37
HETATM   37  C28 UNL     1     -13.767  57.668   6.769  1.00  0.00     0.252 C 
HETATM   38  O4  UNL     1     -12.641  58.186   6.605  1.00  0.00    -0.271 OA
HETATM   39  N3  UNL     1     -14.875  58.583   6.805  1.00  0.00    -0.351 N 
ATOM     40  H3  UNL     1     -15.816  58.211   6.936  1.00  0.00     0.163 HD
BRANCH  39  41
HETATM   41  C29 UNL     1     -14.703  60.008   6.660  1.00  0.00     0.022 C 
HETATM   42  C30 UNL     1     -16.021  60.681   6.984  1.00  0.00     0.037 C 
HETATM   43  C31 UNL     1     -13.676  60.560   7.629  1.00  0.00     0.037 C 
HETATM   44  C32 UNL     1     -14.325  60.415   5.255  1.00  0.00     0.037 C 
ENDBRANCH  39  41
ENDBRANCH  36  37
ENDBRANCH  26  27
ENDBRANCH  23  26
ENDBRANCH   1  23
TORSDOF 12
ENDMDL
