MODEL 3
REMARK VINA RESULT: -10.858202076      1.074      1.808
REMARK  12 active torsions:
REMARK  status: ('A' for Active; 'I' for Inactive)
REMARK    1  A    between atoms: C3_3  and  O1_4 
REMARK    2  A    between atoms: C7_9  and  C8_10 
REMARK       I    between atoms: C8_10  and  N1_12 
REMARK    3  A    between atoms: N1_12  and  C9_14 
REMARK    4  A    between atoms: C9_14  and  C10_15 
REMARK    5  A    between atoms: C9_14  and  C17_23 
REMARK    6  A    between atoms: C10_15  and  S1_16 
REMARK    7  A    between atoms: S1_16  and  C11_17 
REMARK    8  A    between atoms: C17_23  and  O3_24 
REMARK    9  A    between atoms: C17_23  and  C18_26 
REMARK   10  A    between atoms: C18_26  and  N2_27 
REMARK   11  A    between atoms: C27_36  and  C28_37 
REMARK       I    between atoms: C28_37  and  N3_39 
REMARK   12  A    between atoms: N3_39  and  C29_41 
ROOT
HETATM    1  C9  UNL     1     -12.498  54.710   4.343  1.00  0.00     0.124 C 
ENDROOT
BRANCH   1   2
HETATM    2  N1  UNL     1     -12.305  54.628   5.754  1.00  0.00    -0.349 N 
HETATM    3  C8  UNL     1     -13.333  54.484   6.715  1.00  0.00     0.252 C 
HETATM    4  O2  UNL     1     -14.536  54.425   6.309  1.00  0.00    -0.268 OA
ATOM      5  H1  UNL     1     -11.346  54.677   6.099  1.00  0.00     0.163 HD
BRANCH   3   6
HETATM    6  C7  UNL     1     -13.033  54.404   8.148  1.00  0.00     0.040 A 
HETATM    7  C2  UNL     1     -12.830  55.577   8.832  1.00  0.00    -0.013 A 
HETATM    8  C1  UNL     1     -12.913  56.910   8.206  1.00  0.00     0.052 C 
HETATM    9  C3  UNL     1     -12.539  55.482  10.191  1.00  0.00     0.072 A 
HETATM   10  C4  UNL     1     -12.453  54.271  10.853  1.00  0.00     0.037 A 
HETATM   11  C5  UNL     1     -12.659  53.121  10.151  1.00  0.00     0.004 A 
HETATM   12  C6  UNL     1     -12.951  53.190   8.787  1.00  0.00     0.018 A 
BRANCH   9  13
HETATM   13  O1  UNL     1     -12.324  56.614  10.935  1.00  0.00    -0.360 OA
ATOM     14  H1  UNL     1     -11.538  56.700  11.462  1.00  0.00     0.217 HD
ENDBRANCH   9  13
ENDBRANCH   3   6
ENDBRANCH   1   2
BRANCH   1  15
HETATM   15  C10 UNL     1     -12.139  56.118   3.850  1.00  0.00     0.107 C 
BRANCH  15  16
HETATM   16  S1  UNL     1     -13.605  57.165   3.672  1.00  0.00    -0.128 SA
BRANCH  16  17
HETATM   17  C11 UNL     1     -13.469  58.535   4.801  1.00  0.00     0.000 A 
HETATM   18  C12 UNL     1     -12.232  59.125   5.067  1.00  0.00     0.018 A 
HETATM   19  C13 UNL     1     -12.096  60.184   5.932  1.00  0.00     0.001 A 
HETATM   20  C14 UNL     1     -13.199  60.704   6.573  1.00  0.00     0.000 A 
HETATM   21  C15 UNL     1     -14.427  60.138   6.325  1.00  0.00     0.001 A 
HETATM   22  C16 UNL     1     -14.557  59.058   5.442  1.00  0.00     0.018 A 
ENDBRANCH  16  17
ENDBRANCH  15  16
ENDBRANCH   1  15
BRANCH   1  23
HETATM   23  C17 UNL     1     -11.650  53.687   3.610  1.00  0.00     0.170 C 
BRANCH  23  24
HETATM   24  O3  UNL     1     -10.311  53.968   3.648  1.00  0.00    -0.392 OA
ATOM     25  H3  UNL     1      -9.822  53.389   4.222  1.00  0.00     0.210 HD
ENDBRANCH  23  24
BRANCH  23  26
HETATM   26  C18 UNL     1     -12.172  53.289   2.267  1.00  0.00     0.307 C 
BRANCH  26  27
HETATM   27  N2  UNL     1     -12.974  52.087   2.237  1.00  0.00     0.105 N 
HETATM   28  C19 UNL     1     -12.618  51.304   3.391  1.00  0.00     0.278 C 
HETATM   29  C20 UNL     1     -12.883  49.857   3.356  1.00  0.00     0.018 C 
HETATM   30  C21 UNL     1     -14.233  49.571   4.033  1.00  0.00     0.007 C 
HETATM   31  C25 UNL     1     -12.796  49.205   2.016  1.00  0.00    -0.006 C 
HETATM   32  C22 UNL     1     -14.335  48.063   4.131  1.00  0.00     0.000 C 
HETATM   33  C23 UNL     1     -14.574  47.566   2.702  1.00  0.00     0.000 C 
HETATM   34  C24 UNL     1     -13.298  47.821   1.948  1.00  0.00     0.005 C 
HETATM   35  C26 UNL     1     -13.477  50.110   0.994  1.00  0.00     0.050 C 
HETATM   36  C27 UNL     1     -12.619  51.387   1.032  1.00  0.00     0.314 C 
BRANCH  36  37
HETATM   37  C28 UNL     1     -12.855  52.074  -0.221  1.00  0.00     0.252 C 
HETATM   38  O4  UNL     1     -12.037  52.107  -1.166  1.00  0.00    -0.271 OA
HETATM   39  N3  UNL     1     -14.089  52.777  -0.438  1.00  0.00    -0.351 N 
ATOM     40  H3  UNL     1     -14.791  52.780   0.303  1.00  0.00     0.163 HD
BRANCH  39  41
HETATM   41  C29 UNL     1     -14.372  53.477  -1.667  1.00  0.00     0.022 C 
HETATM   42  C30 UNL     1     -15.719  54.154  -1.531  1.00  0.00     0.037 C 
HETATM   43  C31 UNL     1     -13.357  54.568  -1.948  1.00  0.00     0.037 C 
HETATM   44  C32 UNL     1     -14.451  52.558  -2.863  1.00  0.00     0.037 C 
ENDBRANCH  39  41
ENDBRANCH  36  37
ENDBRANCH  26  27
ENDBRANCH  23  26
ENDBRANCH   1  23
TORSDOF 12
ENDMDL
