MODEL 2
REMARK VINA RESULT: -10.817908690      1.057      1.814
REMARK  12 active torsions:
REMARK  status: ('A' for Active; 'I' for Inactive)
REMARK    1  A    between atoms: C3_3  and  O1_4 
REMARK    2  A    between atoms: C7_9  and  C8_10 
REMARK       I    between atoms: C8_10  and  N1_12 
REMARK    3  A    between atoms: N1_12  and  C9_14 
REMARK    4  A    between atoms: C9_14  and  C10_15 
REMARK    5  A    between atoms: C9_14  and  C17_23 
REMARK    6  A    between atoms: C10_15  and  S1_16 
REMARK    7  A    between atoms: S1_16  and  C11_17 
REMARK    8  A    between atoms: C17_23  and  O3_24 
REMARK    9  A    between atoms: C17_23  and  C18_26 
REMARK   10  A    between atoms: C18_26  and  N2_27 
REMARK   11  A    between atoms: C27_36  and  C28_37 
REMARK       I    between atoms: C28_37  and  N3_39 
REMARK   12  A    between atoms: N3_39  and  C29_41 
ROOT
HETATM    1  C9  UNL     1      -8.478  16.306  26.804  1.00  0.00     0.124 C 
ENDROOT
BRANCH   1   2
HETATM    2  N1  UNL     1      -8.067  16.709  25.498  1.00  0.00    -0.349 N 
HETATM    3  C8  UNL     1      -7.515  15.856  24.514  1.00  0.00     0.252 C 
HETATM    4  O2  UNL     1      -7.360  14.627  24.796  1.00  0.00    -0.268 OA
ATOM      5  H1  UNL     1      -8.181  17.693  25.255  1.00  0.00     0.163 HD
BRANCH   3   6
HETATM    6  C7  UNL     1      -7.126  16.365  23.194  1.00  0.00     0.040 A 
HETATM    7  C2  UNL     1      -8.030  16.251  22.166  1.00  0.00    -0.013 A 
HETATM    8  C1  UNL     1      -9.373  15.660  22.324  1.00  0.00     0.052 C 
HETATM    9  C3  UNL     1      -7.642  16.732  20.919  1.00  0.00     0.072 A 
HETATM   10  C4  UNL     1      -6.405  17.307  20.692  1.00  0.00     0.037 A 
HETATM   11  C5  UNL     1      -5.527  17.409  21.729  1.00  0.00     0.004 A 
HETATM   12  C6  UNL     1      -5.892  16.933  22.990  1.00  0.00     0.018 A 
BRANCH   9  13
HETATM   13  O1  UNL     1      -8.495  16.649  19.847  1.00  0.00    -0.360 OA
ATOM     14  H1  UNL     1      -8.404  15.947  19.214  1.00  0.00     0.217 HD
ENDBRANCH   9  13
ENDBRANCH   3   6
ENDBRANCH   1   2
BRANCH   1  15
HETATM   15  C10 UNL     1      -7.514  16.879  27.852  1.00  0.00     0.107 C 
BRANCH  15  16
HETATM   16  S1  UNL     1      -5.936  15.994  27.873  1.00  0.00    -0.128 SA
BRANCH  16  17
HETATM   17  C11 UNL     1      -4.815  16.798  26.746  1.00  0.00     0.000 A 
HETATM   18  C12 UNL     1      -4.883  18.174  26.527  1.00  0.00     0.018 A 
HETATM   19  C13 UNL     1      -4.032  18.823  25.665  1.00  0.00     0.001 A 
HETATM   20  C14 UNL     1      -3.067  18.117  24.980  1.00  0.00     0.000 A 
HETATM   21  C15 UNL     1      -2.983  16.760  25.180  1.00  0.00     0.001 A 
HETATM   22  C16 UNL     1      -3.855  16.106  26.061  1.00  0.00     0.018 A 
ENDBRANCH  16  17
ENDBRANCH  15  16
ENDBRANCH   1  15
BRANCH   1  23
HETATM   23  C17 UNL     1      -9.890  16.774  27.107  1.00  0.00     0.170 C 
BRANCH  23  24
HETATM   24  O3  UNL     1     -10.075  18.111  26.882  1.00  0.00    -0.392 OA
ATOM     25  H3  UNL     1     -10.988  18.349  26.766  1.00  0.00     0.210 HD
ENDBRANCH  23  24
BRANCH  23  26
HETATM   26  C18 UNL     1     -10.453  16.268  28.394  1.00  0.00     0.307 C 
BRANCH  26  27
HETATM   27  N2  UNL     1     -10.854  14.879  28.401  1.00  0.00     0.105 N 
HETATM   28  C19 UNL     1     -12.155  14.804  27.792  1.00  0.00     0.278 C 
HETATM   29  C20 UNL     1     -13.004  13.644  28.106  1.00  0.00     0.018 C 
HETATM   30  C21 UNL     1     -12.834  12.577  27.013  1.00  0.00     0.007 C 
HETATM   31  C25 UNL     1     -12.836  13.059  29.470  1.00  0.00    -0.006 C 
HETATM   32  C22 UNL     1     -13.875  11.518  27.303  1.00  0.00     0.000 C 
HETATM   33  C23 UNL     1     -13.386  10.783  28.555  1.00  0.00     0.000 C 
HETATM   34  C24 UNL     1     -13.501  11.762  29.690  1.00  0.00     0.005 C 
HETATM   35  C26 UNL     1     -11.346  12.998  29.788  1.00  0.00     0.050 C 
HETATM   36  C27 UNL     1     -10.927  14.479  29.780  1.00  0.00     0.314 C 
BRANCH  36  37
HETATM   37  C28 UNL     1      -9.705  14.561  30.553  1.00  0.00     0.252 C 
HETATM   38  O4  UNL     1      -8.611  14.081  30.188  1.00  0.00    -0.271 OA
HETATM   39  N3  UNL     1      -9.700  15.226  31.827  1.00  0.00    -0.351 N 
ATOM     40  H3  UNL     1     -10.569  15.636  32.172  1.00  0.00     0.163 HD
BRANCH  39  41
HETATM   41  C29 UNL     1      -8.510  15.335  32.636  1.00  0.00     0.022 C 
HETATM   42  C30 UNL     1      -8.908  15.862  33.999  1.00  0.00     0.037 C 
HETATM   43  C31 UNL     1      -7.848  13.990  32.859  1.00  0.00     0.037 C 
HETATM   44  C32 UNL     1      -7.495  16.296  32.062  1.00  0.00     0.037 C 
ENDBRANCH  39  41
ENDBRANCH  36  37
ENDBRANCH  26  27
ENDBRANCH  23  26
ENDBRANCH   1  23
TORSDOF 12
ENDMDL
