MODEL 13
REMARK VINA RESULT: -9.959403375      1.452      1.785
REMARK  12 active torsions:
REMARK  status: ('A' for Active; 'I' for Inactive)
REMARK    1  A    between atoms: C3_3  and  O1_4 
REMARK    2  A    between atoms: C7_9  and  C8_10 
REMARK       I    between atoms: C8_10  and  N1_12 
REMARK    3  A    between atoms: N1_12  and  C9_14 
REMARK    4  A    between atoms: C9_14  and  C10_15 
REMARK    5  A    between atoms: C9_14  and  C17_23 
REMARK    6  A    between atoms: C10_15  and  S1_16 
REMARK    7  A    between atoms: S1_16  and  C11_17 
REMARK    8  A    between atoms: C17_23  and  O3_24 
REMARK    9  A    between atoms: C17_23  and  C18_26 
REMARK   10  A    between atoms: C18_26  and  N2_27 
REMARK   11  A    between atoms: C27_36  and  C28_37 
REMARK       I    between atoms: C28_37  and  N3_39 
REMARK   12  A    between atoms: N3_39  and  C29_41 
ROOT
HETATM    1  C9  UNL     1      -6.996  16.455  26.601  1.00  0.00     0.124 C 
ENDROOT
BRANCH   1   2
HETATM    2  N1  UNL     1      -7.758  16.396  25.397  1.00  0.00    -0.349 N 
HETATM    3  C8  UNL     1      -7.667  15.379  24.418  1.00  0.00     0.252 C 
HETATM    4  O2  UNL     1      -6.840  14.432  24.605  1.00  0.00    -0.268 OA
ATOM      5  H1  UNL     1      -8.425  17.150  25.228  1.00  0.00     0.163 HD
BRANCH   3   6
HETATM    6  C7  UNL     1      -8.500  15.404  23.211  1.00  0.00     0.040 A 
HETATM    7  C2  UNL     1      -8.062  16.142  22.139  1.00  0.00    -0.013 A 
HETATM    8  C1  UNL     1      -6.794  16.896  22.133  1.00  0.00     0.052 C 
HETATM    9  C3  UNL     1      -8.869  16.160  21.004  1.00  0.00     0.072 A 
HETATM   10  C4  UNL     1     -10.067  15.472  20.928  1.00  0.00     0.037 A 
HETATM   11  C5  UNL     1     -10.478  14.747  22.006  1.00  0.00     0.004 A 
HETATM   12  C6  UNL     1      -9.687  14.714  23.156  1.00  0.00     0.018 A 
BRANCH   9  13
HETATM   13  O1  UNL     1      -8.493  16.878  19.898  1.00  0.00    -0.360 OA
ATOM     14  H1  UNL     1      -9.042  16.889  19.123  1.00  0.00     0.217 HD
ENDBRANCH   9  13
ENDBRANCH   3   6
ENDBRANCH   1   2
BRANCH   1  15
HETATM   15  C10 UNL     1      -6.937  17.902  27.110  1.00  0.00     0.107 C 
BRANCH  15  16
HETATM   16  S1  UNL     1      -5.253  18.562  27.075  1.00  0.00    -0.128 SA
BRANCH  16  17
HETATM   17  C11 UNL     1      -4.346  17.746  25.777  1.00  0.00     0.000 A 
HETATM   18  C12 UNL     1      -4.223  18.327  24.514  1.00  0.00     0.018 A 
HETATM   19  C13 UNL     1      -3.529  17.723  23.493  1.00  0.00     0.001 A 
HETATM   20  C14 UNL     1      -2.922  16.502  23.694  1.00  0.00     0.000 A 
HETATM   21  C15 UNL     1      -3.032  15.911  24.930  1.00  0.00     0.001 A 
HETATM   22  C16 UNL     1      -3.741  16.534  25.965  1.00  0.00     0.018 A 
ENDBRANCH  16  17
ENDBRANCH  15  16
ENDBRANCH   1  15
BRANCH   1  23
HETATM   23  C17 UNL     1      -7.593  15.565  27.677  1.00  0.00     0.170 C 
BRANCH  23  24
HETATM   24  O3  UNL     1      -7.120  14.282  27.639  1.00  0.00    -0.392 OA
ATOM     25  H3  UNL     1      -7.749  13.661  27.290  1.00  0.00     0.210 HD
ENDBRANCH  23  24
BRANCH  23  26
HETATM   26  C18 UNL     1      -9.073  15.687  27.838  1.00  0.00     0.307 C 
BRANCH  26  27
HETATM   27  N2  UNL     1      -9.795  14.441  27.971  1.00  0.00     0.105 N 
HETATM   28  C19 UNL     1     -10.860  14.457  27.004  1.00  0.00     0.278 C 
HETATM   29  C20 UNL     1     -12.024  13.587  27.240  1.00  0.00     0.018 C 
HETATM   30  C21 UNL     1     -11.838  12.269  26.472  1.00  0.00     0.007 C 
HETATM   31  C25 UNL     1     -12.380  13.341  28.668  1.00  0.00    -0.006 C 
HETATM   32  C22 UNL     1     -13.150  11.525  26.605  1.00  0.00     0.000 C 
HETATM   33  C23 UNL     1     -13.215  11.050  28.059  1.00  0.00     0.000 C 
HETATM   34  C24 UNL     1     -13.382  12.285  28.900  1.00  0.00     0.005 C 
HETATM   35  C26 UNL     1     -11.095  13.090  29.450  1.00  0.00     0.050 C 
HETATM   36  C27 UNL     1     -10.333  14.419  29.304  1.00  0.00     0.314 C 
BRANCH  36  37
HETATM   37  C28 UNL     1      -9.384  14.467  30.397  1.00  0.00     0.252 C 
HETATM   38  O4  UNL     1      -8.323  13.808  30.433  1.00  0.00    -0.271 OA
HETATM   39  N3  UNL     1      -9.634  15.310  31.534  1.00  0.00    -0.351 N 
ATOM     40  H3  UNL     1     -10.487  15.870  31.555  1.00  0.00     0.163 HD
BRANCH  39  41
HETATM   41  C29 UNL     1      -8.721  15.393  32.648  1.00  0.00     0.022 C 
HETATM   42  C30 UNL     1      -9.456  16.005  33.822  1.00  0.00     0.037 C 
HETATM   43  C31 UNL     1      -8.239  14.026  33.093  1.00  0.00     0.037 C 
HETATM   44  C32 UNL     1      -7.523  16.269  32.363  1.00  0.00     0.037 C 
ENDBRANCH  39  41
ENDBRANCH  36  37
ENDBRANCH  26  27
ENDBRANCH  23  26
ENDBRANCH   1  23
TORSDOF 12
ENDMDL
