MODEL 8
REMARK VINA RESULT: -10.063626904      1.114      1.530
REMARK  12 active torsions:
REMARK  status: ('A' for Active; 'I' for Inactive)
REMARK    1  A    between atoms: C3_3  and  O1_4 
REMARK    2  A    between atoms: C7_9  and  C8_10 
REMARK       I    between atoms: C8_10  and  N1_12 
REMARK    3  A    between atoms: N1_12  and  C9_14 
REMARK    4  A    between atoms: C9_14  and  C10_15 
REMARK    5  A    between atoms: C9_14  and  C17_23 
REMARK    6  A    between atoms: C10_15  and  S1_16 
REMARK    7  A    between atoms: S1_16  and  C11_17 
REMARK    8  A    between atoms: C17_23  and  O3_24 
REMARK    9  A    between atoms: C17_23  and  C18_26 
REMARK   10  A    between atoms: C18_26  and  N2_27 
REMARK   11  A    between atoms: C27_36  and  C28_37 
REMARK       I    between atoms: C28_37  and  N3_39 
REMARK   12  A    between atoms: N3_39  and  C29_41 
ROOT
HETATM    1  C9  UNL     1      -8.014  15.699  27.921  1.00  0.00     0.124 C 
ENDROOT
BRANCH   1   2
HETATM    2  N1  UNL     1      -8.422  15.783  26.557  1.00  0.00    -0.349 N 
HETATM    3  C8  UNL     1      -8.481  14.699  25.650  1.00  0.00     0.252 C 
HETATM    4  O2  UNL     1      -8.142  13.546  26.063  1.00  0.00    -0.268 OA
ATOM      5  H1  UNL     1      -8.694  16.702  26.206  1.00  0.00     0.163 HD
BRANCH   3   6
HETATM    6  C7  UNL     1      -8.920  14.886  24.263  1.00  0.00     0.040 A 
HETATM    7  C2  UNL     1      -8.032  15.440  23.374  1.00  0.00    -0.013 A 
HETATM    8  C1  UNL     1      -6.659  15.840  23.735  1.00  0.00     0.052 C 
HETATM    9  C3  UNL     1      -8.468  15.617  22.063  1.00  0.00     0.072 A 
HETATM   10  C4  UNL     1      -9.736  15.259  21.643  1.00  0.00     0.037 A 
HETATM   11  C5  UNL     1     -10.598  14.711  22.545  1.00  0.00     0.004 A 
HETATM   12  C6  UNL     1     -10.185  14.525  23.866  1.00  0.00     0.018 A 
BRANCH   9  13
HETATM   13  O1  UNL     1      -7.633  16.165  21.123  1.00  0.00    -0.360 OA
ATOM     14  H1  UNL     1      -7.575  17.108  21.024  1.00  0.00     0.217 HD
ENDBRANCH   9  13
ENDBRANCH   3   6
ENDBRANCH   1   2
BRANCH   1  15
HETATM   15  C10 UNL     1      -6.527  16.060  28.042  1.00  0.00     0.107 C 
BRANCH  15  16
HETATM   16  S1  UNL     1      -6.161  17.671  27.304  1.00  0.00    -0.128 SA
BRANCH  16  17
HETATM   17  C11 UNL     1      -4.779  17.490  26.195  1.00  0.00     0.000 A 
HETATM   18  C12 UNL     1      -4.051  16.300  26.144  1.00  0.00     0.018 A 
HETATM   19  C13 UNL     1      -2.982  16.130  25.298  1.00  0.00     0.001 A 
HETATM   20  C14 UNL     1      -2.592  17.150  24.459  1.00  0.00     0.000 A 
HETATM   21  C15 UNL     1      -3.294  18.331  24.493  1.00  0.00     0.001 A 
HETATM   22  C16 UNL     1      -4.384  18.496  25.359  1.00  0.00     0.018 A 
ENDBRANCH  16  17
ENDBRANCH  15  16
ENDBRANCH   1  15
BRANCH   1  23
HETATM   23  C17 UNL     1      -8.832  16.626  28.801  1.00  0.00     0.170 C 
BRANCH  23  24
HETATM   24  O3  UNL     1      -8.229  16.906  29.997  1.00  0.00    -0.392 OA
ATOM     25  H3  UNL     1      -8.717  17.527  30.526  1.00  0.00     0.210 HD
ENDBRANCH  23  24
BRANCH  23  26
HETATM   26  C18 UNL     1     -10.283  16.282  28.891  1.00  0.00     0.307 C 
BRANCH  26  27
HETATM   27  N2  UNL     1     -10.604  14.877  28.774  1.00  0.00     0.105 N 
HETATM   28  C19 UNL     1     -11.413  14.718  27.594  1.00  0.00     0.278 C 
HETATM   29  C20 UNL     1     -12.280  13.533  27.502  1.00  0.00     0.018 C 
HETATM   30  C21 UNL     1     -11.556  12.433  26.709  1.00  0.00     0.007 C 
HETATM   31  C25 UNL     1     -12.817  13.010  28.793  1.00  0.00    -0.006 C 
HETATM   32  C22 UNL     1     -12.579  11.339  26.491  1.00  0.00     0.000 C 
HETATM   33  C23 UNL     1     -12.779  10.677  27.858  1.00  0.00     0.000 C 
HETATM   34  C24 UNL     1     -13.475  11.694  28.721  1.00  0.00     0.005 C 
HETATM   35  C26 UNL     1     -11.695  13.032  29.826  1.00  0.00     0.050 C 
HETATM   36  C27 UNL     1     -11.360  14.528  29.946  1.00  0.00     0.314 C 
BRANCH  36  37
HETATM   37  C28 UNL     1     -10.703  14.698  31.225  1.00  0.00     0.252 C 
HETATM   38  O4  UNL     1     -11.197  15.322  32.189  1.00  0.00    -0.271 OA
HETATM   39  N3  UNL     1      -9.401  14.133  31.450  1.00  0.00    -0.351 N 
ATOM     40  H3  UNL     1      -8.953  13.614  30.695  1.00  0.00     0.163 HD
BRANCH  39  41
HETATM   41  C29 UNL     1      -8.705  14.275  32.706  1.00  0.00     0.022 C 
HETATM   42  C30 UNL     1      -9.482  13.526  33.768  1.00  0.00     0.037 C 
HETATM   43  C31 UNL     1      -7.318  13.666  32.661  1.00  0.00     0.037 C 
HETATM   44  C32 UNL     1      -8.597  15.713  33.159  1.00  0.00     0.037 C 
ENDBRANCH  39  41
ENDBRANCH  36  37
ENDBRANCH  26  27
ENDBRANCH  23  26
ENDBRANCH   1  23
TORSDOF 12
ENDMDL
