MODEL 3
REMARK VINA RESULT: -10.585766054      1.851      9.624
REMARK  12 active torsions:
REMARK  status: ('A' for Active; 'I' for Inactive)
REMARK    1  A    between atoms: C3_3  and  O1_4 
REMARK    2  A    between atoms: C7_9  and  C8_10 
REMARK       I    between atoms: C8_10  and  N1_12 
REMARK    3  A    between atoms: N1_12  and  C9_14 
REMARK    4  A    between atoms: C9_14  and  C10_15 
REMARK    5  A    between atoms: C9_14  and  C17_23 
REMARK    6  A    between atoms: C10_15  and  S1_16 
REMARK    7  A    between atoms: S1_16  and  C11_17 
REMARK    8  A    between atoms: C17_23  and  O3_24 
REMARK    9  A    between atoms: C17_23  and  C18_26 
REMARK   10  A    between atoms: C18_26  and  N2_27 
REMARK   11  A    between atoms: C27_36  and  C28_37 
REMARK       I    between atoms: C28_37  and  N3_39 
REMARK   12  A    between atoms: N3_39  and  C29_41 
ROOT
HETATM    1  C9  UNL     1      -9.926  15.573  27.457  1.00  0.00     0.124 C 
ENDROOT
BRANCH   1   2
HETATM    2  N1  UNL     1     -10.435  15.407  28.779  1.00  0.00    -0.349 N 
HETATM    3  C8  UNL     1      -9.932  14.504  29.744  1.00  0.00     0.252 C 
HETATM    4  O2  UNL     1      -8.946  13.767  29.427  1.00  0.00    -0.268 OA
ATOM      5  H1  UNL     1     -11.229  15.988  29.051  1.00  0.00     0.163 HD
BRANCH   3   6
HETATM    6  C7  UNL     1     -10.523  14.410  31.083  1.00  0.00     0.040 A 
HETATM    7  C2  UNL     1      -9.893  15.063  32.114  1.00  0.00    -0.013 A 
HETATM    8  C1  UNL     1      -8.667  15.865  31.943  1.00  0.00     0.052 C 
HETATM    9  C3  UNL     1     -10.464  14.957  33.380  1.00  0.00     0.072 A 
HETATM   10  C4  UNL     1     -11.616  14.232  33.621  1.00  0.00     0.037 A 
HETATM   11  C5  UNL     1     -12.222  13.593  32.581  1.00  0.00     0.004 A 
HETATM   12  C6  UNL     1     -11.668  13.684  31.302  1.00  0.00     0.018 A 
BRANCH   9  13
HETATM   13  O1  UNL     1      -9.887  15.583  34.456  1.00  0.00    -0.360 OA
ATOM     14  H1  UNL     1     -10.202  15.414  35.336  1.00  0.00     0.217 HD
ENDBRANCH   9  13
ENDBRANCH   3   6
ENDBRANCH   1   2
BRANCH   1  15
HETATM   15  C10 UNL     1     -10.949  15.058  26.436  1.00  0.00     0.107 C 
BRANCH  15  16
HETATM   16  S1  UNL     1     -10.988  13.250  26.372  1.00  0.00    -0.128 SA
BRANCH  16  17
HETATM   17  C11 UNL     1     -12.210  12.664  27.528  1.00  0.00     0.000 A 
HETATM   18  C12 UNL     1     -13.376  13.391  27.768  1.00  0.00     0.018 A 
HETATM   19  C13 UNL     1     -14.338  12.964  28.652  1.00  0.00     0.001 A 
HETATM   20  C14 UNL     1     -14.173  11.780  29.338  1.00  0.00     0.000 A 
HETATM   21  C15 UNL     1     -13.032  11.048  29.116  1.00  0.00     0.001 A 
HETATM   22  C16 UNL     1     -12.056  11.491  28.213  1.00  0.00     0.018 A 
ENDBRANCH  16  17
ENDBRANCH  15  16
ENDBRANCH   1  15
BRANCH   1  23
HETATM   23  C17 UNL     1      -9.610  17.029  27.166  1.00  0.00     0.170 C 
BRANCH  23  24
HETATM   24  O3  UNL     1     -10.671  17.865  27.385  1.00  0.00    -0.392 OA
ATOM     25  H3  UNL     1     -11.510  17.470  27.176  1.00  0.00     0.210 HD
ENDBRANCH  23  24
BRANCH  23  26
HETATM   26  C18 UNL     1      -8.876  17.266  25.887  1.00  0.00     0.307 C 
BRANCH  26  27
HETATM   27  N2  UNL     1      -7.476  16.901  25.890  1.00  0.00     0.105 N 
HETATM   28  C19 UNL     1      -6.752  17.985  26.501  1.00  0.00     0.278 C 
HETATM   29  C20 UNL     1      -5.319  18.122  26.195  1.00  0.00     0.018 C 
HETATM   30  C21 UNL     1      -4.496  17.435  27.296  1.00  0.00     0.007 C 
HETATM   31  C25 UNL     1      -4.893  17.675  24.835  1.00  0.00    -0.006 C 
HETATM   32  C22 UNL     1      -3.051  17.789  27.013  1.00  0.00     0.000 C 
HETATM   33  C23 UNL     1      -2.661  16.990  25.767  1.00  0.00     0.000 C 
HETATM   34  C24 UNL     1      -3.437  17.584  24.624  1.00  0.00     0.005 C 
HETATM   35  C26 UNL     1      -5.599  16.361  24.516  1.00  0.00     0.050 C 
HETATM   36  C27 UNL     1      -7.086  16.756  24.514  1.00  0.00     0.314 C 
BRANCH  36  37
HETATM   37  C28 UNL     1      -7.776  15.745  23.739  1.00  0.00     0.252 C 
HETATM   38  O4  UNL     1      -7.851  14.542  24.068  1.00  0.00    -0.271 OA
HETATM   39  N3  UNL     1      -8.428  16.098  22.508  1.00  0.00    -0.351 N 
ATOM     40  H3  UNL     1      -8.396  17.069  22.195  1.00  0.00     0.163 HD
BRANCH  39  41
HETATM   41  C29 UNL     1      -9.127  15.129  21.700  1.00  0.00     0.022 C 
HETATM   42  C30 UNL     1      -9.357  15.730  20.329  1.00  0.00     0.037 C 
HETATM   43  C31 UNL     1      -8.316  13.865  21.497  1.00  0.00     0.037 C 
HETATM   44  C32 UNL     1     -10.481  14.762  22.262  1.00  0.00     0.037 C 
ENDBRANCH  39  41
ENDBRANCH  36  37
ENDBRANCH  26  27
ENDBRANCH  23  26
ENDBRANCH   1  23
TORSDOF 12
ENDMDL
