MODEL 1
REMARK VINA RESULT: -10.827568599      0.000      0.000
REMARK  12 active torsions:
REMARK  status: ('A' for Active; 'I' for Inactive)
REMARK    1  A    between atoms: C3_3  and  O1_4 
REMARK    2  A    between atoms: C7_9  and  C8_10 
REMARK       I    between atoms: C8_10  and  N1_12 
REMARK    3  A    between atoms: N1_12  and  C9_14 
REMARK    4  A    between atoms: C9_14  and  C10_15 
REMARK    5  A    between atoms: C9_14  and  C17_23 
REMARK    6  A    between atoms: C10_15  and  S1_16 
REMARK    7  A    between atoms: S1_16  and  C11_17 
REMARK    8  A    between atoms: C17_23  and  O3_24 
REMARK    9  A    between atoms: C17_23  and  C18_26 
REMARK   10  A    between atoms: C18_26  and  N2_27 
REMARK   11  A    between atoms: C27_36  and  C28_37 
REMARK       I    between atoms: C28_37  and  N3_39 
REMARK   12  A    between atoms: N3_39  and  C29_41 
ROOT
HETATM    1  C9  UNL     1      -8.845  16.254  26.832  1.00  0.00     0.124 C 
ENDROOT
BRANCH   1   2
HETATM    2  N1  UNL     1      -9.074  16.288  25.425  1.00  0.00    -0.349 N 
HETATM    3  C8  UNL     1      -8.470  15.429  24.476  1.00  0.00     0.252 C 
HETATM    4  O2  UNL     1      -7.650  14.551  24.891  1.00  0.00    -0.268 OA
ATOM      5  H1  UNL     1      -9.726  16.988  25.073  1.00  0.00     0.163 HD
BRANCH   3   6
HETATM    6  C7  UNL     1      -8.773  15.538  23.046  1.00  0.00     0.040 A 
HETATM    7  C2  UNL     1      -7.971  16.343  22.275  1.00  0.00    -0.013 A 
HETATM    8  C1  UNL     1      -6.815  17.090  22.806  1.00  0.00     0.052 C 
HETATM    9  C3  UNL     1      -8.278  16.441  20.920  1.00  0.00     0.072 A 
HETATM   10  C4  UNL     1      -9.339  15.766  20.344  1.00  0.00     0.037 A 
HETATM   11  C5  UNL     1     -10.119  14.973  21.130  1.00  0.00     0.004 A 
HETATM   12  C6  UNL     1      -9.832  14.859  22.493  1.00  0.00     0.018 A 
BRANCH   9  13
HETATM   13  O1  UNL     1      -7.519  17.229  20.092  1.00  0.00    -0.360 OA
ATOM     14  H1  UNL     1      -6.588  17.067  19.995  1.00  0.00     0.217 HD
ENDBRANCH   9  13
ENDBRANCH   3   6
ENDBRANCH   1   2
BRANCH   1  15
HETATM   15  C10 UNL     1      -7.794  17.306  27.214  1.00  0.00     0.107 C 
BRANCH  15  16
HETATM   16  S1  UNL     1      -6.193  16.553  27.593  1.00  0.00    -0.128 SA
BRANCH  16  17
HETATM   17  C11 UNL     1      -5.027  17.025  26.332  1.00  0.00     0.000 A 
HETATM   18  C12 UNL     1      -4.707  18.366  26.117  1.00  0.00     0.018 A 
HETATM   19  C13 UNL     1      -3.810  18.760  25.153  1.00  0.00     0.001 A 
HETATM   20  C14 UNL     1      -3.190  17.823  24.357  1.00  0.00     0.000 A 
HETATM   21  C15 UNL     1      -3.491  16.496  24.551  1.00  0.00     0.001 A 
HETATM   22  C16 UNL     1      -4.407  16.102  25.537  1.00  0.00     0.018 A 
ENDBRANCH  16  17
ENDBRANCH  15  16
ENDBRANCH   1  15
BRANCH   1  23
HETATM   23  C17 UNL     1     -10.125  16.516  27.605  1.00  0.00     0.170 C 
BRANCH  23  24
HETATM   24  O3  UNL     1     -10.519  17.826  27.569  1.00  0.00    -0.392 OA
ATOM     25  H3  UNL     1     -10.939  18.114  28.372  1.00  0.00     0.210 HD
ENDBRANCH  23  24
BRANCH  23  26
HETATM   26  C18 UNL     1     -10.182  15.878  28.955  1.00  0.00     0.307 C 
BRANCH  26  27
HETATM   27  N2  UNL     1     -10.794  14.569  29.006  1.00  0.00     0.105 N 
HETATM   28  C19 UNL     1     -11.718  14.484  27.906  1.00  0.00     0.278 C 
HETATM   29  C20 UNL     1     -12.816  13.508  27.995  1.00  0.00     0.018 C 
HETATM   30  C21 UNL     1     -12.406  12.215  27.274  1.00  0.00     0.007 C 
HETATM   31  C25 UNL     1     -13.334  13.227  29.367  1.00  0.00    -0.006 C 
HETATM   32  C22 UNL     1     -13.648  11.349  27.240  1.00  0.00     0.000 C 
HETATM   33  C23 UNL     1     -13.860  10.868  28.679  1.00  0.00     0.000 C 
HETATM   34  C24 UNL     1     -14.253  12.081  29.476  1.00  0.00     0.005 C 
HETATM   35  C26 UNL     1     -12.146  13.098  30.315  1.00  0.00     0.050 C 
HETATM   36  C27 UNL     1     -11.500  14.494  30.256  1.00  0.00     0.314 C 
BRANCH  36  37
HETATM   37  C28 UNL     1     -10.713  14.630  31.464  1.00  0.00     0.252 C 
HETATM   38  O4  UNL     1     -11.032  15.358  32.429  1.00  0.00    -0.271 OA
HETATM   39  N3  UNL     1      -9.481  13.906  31.609  1.00  0.00    -0.351 N 
ATOM     40  H3  UNL     1      -9.175  13.297  30.850  1.00  0.00     0.163 HD
BRANCH  39  41
HETATM   41  C29 UNL     1      -8.661  14.008  32.792  1.00  0.00     0.022 C 
HETATM   42  C30 UNL     1      -7.412  13.179  32.578  1.00  0.00     0.037 C 
HETATM   43  C31 UNL     1      -8.207  15.431  33.049  1.00  0.00     0.037 C 
HETATM   44  C32 UNL     1      -9.345  13.477  34.030  1.00  0.00     0.037 C 
ENDBRANCH  39  41
ENDBRANCH  36  37
ENDBRANCH  26  27
ENDBRANCH  23  26
ENDBRANCH   1  23
TORSDOF 12
ENDMDL
