MODEL 4
REMARK VINA RESULT: -10.299760662      1.882      9.845
REMARK  12 active torsions:
REMARK  status: ('A' for Active; 'I' for Inactive)
REMARK    1  A    between atoms: C3_3  and  O1_4 
REMARK    2  A    between atoms: C7_9  and  C8_10 
REMARK       I    between atoms: C8_10  and  N1_12 
REMARK    3  A    between atoms: N1_12  and  C9_14 
REMARK    4  A    between atoms: C9_14  and  C10_15 
REMARK    5  A    between atoms: C9_14  and  C17_23 
REMARK    6  A    between atoms: C10_15  and  S1_16 
REMARK    7  A    between atoms: S1_16  and  C11_17 
REMARK    8  A    between atoms: C17_23  and  O3_24 
REMARK    9  A    between atoms: C17_23  and  C18_26 
REMARK   10  A    between atoms: C18_26  and  N2_27 
REMARK   11  A    between atoms: C27_36  and  C28_37 
REMARK       I    between atoms: C28_37  and  N3_39 
REMARK   12  A    between atoms: N3_39  and  C29_41 
ROOT
HETATM    1  C9  UNL     1      -9.620  15.807  27.360  1.00  0.00     0.124 C 
ENDROOT
BRANCH   1   2
HETATM    2  N1  UNL     1      -9.606  15.981  28.775  1.00  0.00    -0.349 N 
HETATM    3  C8  UNL     1      -9.079  15.058  29.709  1.00  0.00     0.252 C 
HETATM    4  O2  UNL     1      -8.575  13.976  29.272  1.00  0.00    -0.268 OA
ATOM      5  H1  UNL     1     -10.009  16.842  29.145  1.00  0.00     0.163 HD
BRANCH   3   6
HETATM    6  C7  UNL     1      -9.107  15.330  31.150  1.00  0.00     0.040 A 
HETATM    7  C2  UNL     1     -10.233  14.976  31.853  1.00  0.00    -0.013 A 
HETATM    8  C1  UNL     1     -11.405  14.324  31.238  1.00  0.00     0.052 C 
HETATM    9  C3  UNL     1     -10.245  15.247  33.218  1.00  0.00     0.072 A 
HETATM   10  C4  UNL     1      -9.182  15.847  33.870  1.00  0.00     0.037 A 
HETATM   11  C5  UNL     1      -8.077  16.187  33.150  1.00  0.00     0.004 A 
HETATM   12  C6  UNL     1      -8.041  15.926  31.779  1.00  0.00     0.018 A 
BRANCH   9  13
HETATM   13  O1  UNL     1     -11.338  14.921  33.980  1.00  0.00    -0.360 OA
ATOM     14  H1  UNL     1     -12.095  15.494  34.005  1.00  0.00     0.217 HD
ENDBRANCH   9  13
ENDBRANCH   3   6
ENDBRANCH   1   2
BRANCH   1  15
HETATM   15  C10 UNL     1     -11.020  15.379  26.901  1.00  0.00     0.107 C 
BRANCH  15  16
HETATM   16  S1  UNL     1     -11.127  13.593  26.635  1.00  0.00    -0.128 SA
BRANCH  16  17
HETATM   17  C11 UNL     1     -12.289  12.910  27.799  1.00  0.00     0.000 A 
HETATM   18  C12 UNL     1     -13.551  13.480  27.970  1.00  0.00     0.018 A 
HETATM   19  C13 UNL     1     -14.470  12.975  28.859  1.00  0.00     0.001 A 
HETATM   20  C14 UNL     1     -14.163  11.868  29.621  1.00  0.00     0.000 A 
HETATM   21  C15 UNL     1     -12.925  11.291  29.469  1.00  0.00     0.001 A 
HETATM   22  C16 UNL     1     -11.994  11.813  28.560  1.00  0.00     0.018 A 
ENDBRANCH  16  17
ENDBRANCH  15  16
ENDBRANCH   1  15
BRANCH   1  23
HETATM   23  C17 UNL     1      -9.222  17.085  26.643  1.00  0.00     0.170 C 
BRANCH  23  24
HETATM   24  O3  UNL     1     -10.177  18.062  26.712  1.00  0.00    -0.392 OA
ATOM     25  H3  UNL     1      -9.820  18.940  26.654  1.00  0.00     0.210 HD
ENDBRANCH  23  24
BRANCH  23  26
HETATM   26  C18 UNL     1      -8.625  16.881  25.288  1.00  0.00     0.307 C 
BRANCH  26  27
HETATM   27  N2  UNL     1      -7.186  16.748  25.250  1.00  0.00     0.105 N 
HETATM   28  C19 UNL     1      -6.664  17.389  26.428  1.00  0.00     0.278 C 
HETATM   29  C20 UNL     1      -5.264  17.844  26.408  1.00  0.00     0.018 C 
HETATM   30  C21 UNL     1      -4.370  16.767  27.043  1.00  0.00     0.007 C 
HETATM   31  C25 UNL     1      -4.735  18.280  25.082  1.00  0.00    -0.006 C 
HETATM   32  C22 UNL     1      -2.996  17.389  27.163  1.00  0.00     0.000 C 
HETATM   33  C23 UNL     1      -2.447  17.468  25.735  1.00  0.00     0.000 C 
HETATM   34  C24 UNL     1      -3.279  18.498  25.021  1.00  0.00     0.005 C 
HETATM   35  C26 UNL     1      -5.210  17.290  24.024  1.00  0.00     0.050 C 
HETATM   36  C27 UNL     1      -6.740  17.438  24.070  1.00  0.00     0.314 C 
BRANCH  36  37
HETATM   37  C28 UNL     1      -7.236  16.951  22.799  1.00  0.00     0.252 C 
HETATM   38  O4  UNL     1      -7.297  17.643  21.760  1.00  0.00    -0.271 OA
HETATM   39  N3  UNL     1      -7.698  15.596  22.674  1.00  0.00    -0.351 N 
ATOM     40  H3  UNL     1      -7.669  14.989  23.494  1.00  0.00     0.163 HD
BRANCH  39  41
HETATM   41  C29 UNL     1      -8.201  15.064  21.431  1.00  0.00     0.022 C 
HETATM   42  C30 UNL     1      -8.982  13.803  21.735  1.00  0.00     0.037 C 
HETATM   43  C31 UNL     1      -9.157  16.021  20.747  1.00  0.00     0.037 C 
HETATM   44  C32 UNL     1      -7.102  14.689  20.464  1.00  0.00     0.037 C 
ENDBRANCH  39  41
ENDBRANCH  36  37
ENDBRANCH  26  27
ENDBRANCH  23  26
ENDBRANCH   1  23
TORSDOF 12
ENDMDL
