MODEL 5
REMARK VINA RESULT: -10.292970396      1.843      9.859
REMARK  12 active torsions:
REMARK  status: ('A' for Active; 'I' for Inactive)
REMARK    1  A    between atoms: C3_3  and  O1_4 
REMARK    2  A    between atoms: C7_9  and  C8_10 
REMARK       I    between atoms: C8_10  and  N1_12 
REMARK    3  A    between atoms: N1_12  and  C9_14 
REMARK    4  A    between atoms: C9_14  and  C10_15 
REMARK    5  A    between atoms: C9_14  and  C17_23 
REMARK    6  A    between atoms: C10_15  and  S1_16 
REMARK    7  A    between atoms: S1_16  and  C11_17 
REMARK    8  A    between atoms: C17_23  and  O3_24 
REMARK    9  A    between atoms: C17_23  and  C18_26 
REMARK   10  A    between atoms: C18_26  and  N2_27 
REMARK   11  A    between atoms: C27_36  and  C28_37 
REMARK       I    between atoms: C28_37  and  N3_39 
REMARK   12  A    between atoms: N3_39  and  C29_41 
ROOT
HETATM    1  C9  UNL     1      -9.808  15.787  27.615  1.00  0.00     0.124 C 
ENDROOT
BRANCH   1   2
HETATM    2  N1  UNL     1      -9.812  15.908  29.036  1.00  0.00    -0.349 N 
HETATM    3  C8  UNL     1      -9.174  15.023  29.936  1.00  0.00     0.252 C 
HETATM    4  O2  UNL     1      -8.542  14.028  29.460  1.00  0.00    -0.268 OA
ATOM      5  H1  UNL     1     -10.318  16.699  29.437  1.00  0.00     0.163 HD
BRANCH   3   6
HETATM    6  C7  UNL     1      -9.232  15.235  31.386  1.00  0.00     0.040 A 
HETATM    7  C2  UNL     1     -10.374  14.858  32.049  1.00  0.00    -0.013 A 
HETATM    8  C1  UNL     1     -11.536  14.239  31.383  1.00  0.00     0.052 C 
HETATM    9  C3  UNL     1     -10.414  15.073  33.424  1.00  0.00     0.072 A 
HETATM   10  C4  UNL     1      -9.364  15.639  34.123  1.00  0.00     0.037 A 
HETATM   11  C5  UNL     1      -8.241  16.003  33.441  1.00  0.00     0.004 A 
HETATM   12  C6  UNL     1      -8.177  15.799  32.061  1.00  0.00     0.018 A 
BRANCH   9  13
HETATM   13  O1  UNL     1     -11.525  14.721  34.149  1.00  0.00    -0.360 OA
ATOM     14  H1  UNL     1     -11.437  14.407  35.041  1.00  0.00     0.217 HD
ENDBRANCH   9  13
ENDBRANCH   3   6
ENDBRANCH   1   2
BRANCH   1  15
HETATM   15  C10 UNL     1     -11.196  15.351  27.125  1.00  0.00     0.107 C 
BRANCH  15  16
HETATM   16  S1  UNL     1     -11.262  13.576  26.780  1.00  0.00    -0.128 SA
BRANCH  16  17
HETATM   17  C11 UNL     1     -12.358  12.806  27.955  1.00  0.00     0.000 A 
HETATM   18  C12 UNL     1     -13.603  13.364  28.246  1.00  0.00     0.018 A 
HETATM   19  C13 UNL     1     -14.470  12.793  29.147  1.00  0.00     0.001 A 
HETATM   20  C14 UNL     1     -14.126  11.629  29.799  1.00  0.00     0.000 A 
HETATM   21  C15 UNL     1     -12.904  11.063  29.527  1.00  0.00     0.001 A 
HETATM   22  C16 UNL     1     -12.026  11.652  28.607  1.00  0.00     0.018 A 
ENDBRANCH  16  17
ENDBRANCH  15  16
ENDBRANCH   1  15
BRANCH   1  23
HETATM   23  C17 UNL     1      -9.427  17.098  26.951  1.00  0.00     0.170 C 
BRANCH  23  24
HETATM   24  O3  UNL     1     -10.440  18.018  26.953  1.00  0.00    -0.392 OA
ATOM     25  H3  UNL     1     -10.617  18.383  26.093  1.00  0.00     0.210 HD
ENDBRANCH  23  24
BRANCH  23  26
HETATM   26  C18 UNL     1      -8.710  16.953  25.648  1.00  0.00     0.307 C 
BRANCH  26  27
HETATM   27  N2  UNL     1      -7.286  16.720  25.738  1.00  0.00     0.105 N 
HETATM   28  C19 UNL     1      -6.726  17.781  26.533  1.00  0.00     0.278 C 
HETATM   29  C20 UNL     1      -5.294  18.084  26.378  1.00  0.00     0.018 C 
HETATM   30  C21 UNL     1      -4.497  17.344  27.463  1.00  0.00     0.007 C 
HETATM   31  C25 UNL     1      -4.718  17.848  25.021  1.00  0.00    -0.006 C 
HETATM   32  C22 UNL     1      -3.078  17.861  27.357  1.00  0.00     0.000 C 
HETATM   33  C23 UNL     1      -2.510  17.260  26.068  1.00  0.00     0.000 C 
HETATM   34  C24 UNL     1      -3.248  17.917  24.935  1.00  0.00     0.005 C 
HETATM   35  C26 UNL     1      -5.259  16.525  24.489  1.00  0.00     0.050 C 
HETATM   36  C27 UNL     1      -6.774  16.781  24.396  1.00  0.00     0.314 C 
BRANCH  36  37
HETATM   37  C28 UNL     1      -7.293  15.815  23.450  1.00  0.00     0.252 C 
HETATM   38  O4  UNL     1      -7.309  14.581  23.647  1.00  0.00    -0.271 OA
HETATM   39  N3  UNL     1      -7.833  16.253  22.193  1.00  0.00    -0.351 N 
ATOM     40  H3  UNL     1      -7.843  17.251  21.982  1.00  0.00     0.163 HD
BRANCH  39  41
HETATM   41  C29 UNL     1      -8.361  15.331  21.217  1.00  0.00     0.022 C 
HETATM   42  C30 UNL     1      -9.262  16.100  20.274  1.00  0.00     0.037 C 
HETATM   43  C31 UNL     1      -7.268  14.706  20.372  1.00  0.00     0.037 C 
HETATM   44  C32 UNL     1      -9.194  14.233  21.836  1.00  0.00     0.037 C 
ENDBRANCH  39  41
ENDBRANCH  36  37
ENDBRANCH  26  27
ENDBRANCH  23  26
ENDBRANCH   1  23
TORSDOF 12
ENDMDL
