MODEL 16
REMARK VINA RESULT: -4.256333927      5.664      7.124
REMARK  2 active torsions:
REMARK  status: ('A' for Active; 'I' for Inactive)
REMARK    1  A    between atoms: N1_1  and  C1_5 
REMARK    2  A    between atoms: C1_5  and  C2_6 
ROOT
HETATM    1  C2  UNL     1      55.197  22.859  26.384  1.00  0.00    -0.033 A 
HETATM    2  C3  UNL     1      55.941  23.652  27.239  1.00  0.00     0.010 A 
HETATM    3  C4  UNL     1      57.322  23.661  27.188  1.00  0.00     0.024 A 
HETATM    4  C5  UNL     1      58.010  22.875  26.279  1.00  0.00     0.034 A 
HETATM    5 CL1  UNL     1      59.772  22.874  26.200  1.00  0.00    -0.084 Cl
HETATM    6  C6  UNL     1      57.253  22.091  25.433  1.00  0.00     0.024 A 
HETATM    7  C7  UNL     1      55.874  22.077  25.478  1.00  0.00     0.010 A 
ENDROOT
BRANCH   1   8
HETATM    8  C1  UNL     1      53.709  22.891  26.484  1.00  0.00     0.268 C 
BRANCH   8   9
HETATM    9  N1  UNL     1      53.360  23.927  27.462  1.00  0.00    -0.075 N 
ATOM     10  H13 UNL     1      53.165  24.831  27.033  1.00  0.00     0.274 HD
ATOM     11  H12 UNL     1      52.445  23.782  27.887  1.00  0.00     0.274 HD
ATOM     12  H11 UNL     1      54.116  23.964  28.147  1.00  0.00     0.274 HD
ENDBRANCH   8   9
ENDBRANCH   1   8
TORSDOF 2
ENDMDL
