MODEL 19
REMARK VINA RESULT: -3.911625669      6.013      7.144
REMARK  2 active torsions:
REMARK  status: ('A' for Active; 'I' for Inactive)
REMARK    1  A    between atoms: N1_1  and  C1_5 
REMARK    2  A    between atoms: C1_5  and  C2_6 
ROOT
HETATM    1  C2  UNL     1      58.116  22.958  26.315  1.00  0.00    -0.033 A 
HETATM    2  C3  UNL     1      57.446  22.118  25.444  1.00  0.00     0.010 A 
HETATM    3  C4  UNL     1      56.066  22.053  25.430  1.00  0.00     0.024 A 
HETATM    4  C5  UNL     1      55.304  22.827  26.288  1.00  0.00     0.034 A 
HETATM    5 CL1  UNL     1      53.542  22.757  26.284  1.00  0.00    -0.084 Cl
HETATM    6  C6  UNL     1      55.987  23.660  27.151  1.00  0.00     0.024 A 
HETATM    7  C7  UNL     1      57.365  23.730  27.171  1.00  0.00     0.010 A 
ENDROOT
BRANCH   1   8
HETATM    8  C1  UNL     1      59.607  22.987  26.285  1.00  0.00     0.268 C 
BRANCH   8   9
HETATM    9  N1  UNL     1      60.044  23.940  27.311  1.00  0.00    -0.075 N 
ATOM     10  H13 UNL     1      60.717  24.622  26.960  1.00  0.00     0.274 HD
ATOM     11  H12 UNL     1      59.315  24.600  27.579  1.00  0.00     0.274 HD
ATOM     12  H11 UNL     1      60.400  23.397  28.098  1.00  0.00     0.274 HD
ENDBRANCH   8   9
ENDBRANCH   1   8
TORSDOF 2
ENDMDL
