MODEL 10
REMARK VINA RESULT: -5.454204487      1.306      1.616
REMARK  2 active torsions:
REMARK  status: ('A' for Active; 'I' for Inactive)
REMARK    1  A    between atoms: N1_1  and  C1_5 
REMARK    2  A    between atoms: C1_5  and  C2_6 
ROOT
HETATM    1  C2  UNL     1      53.147  22.741  28.310  1.00  0.00    -0.033 A 
HETATM    2  C3  UNL     1      51.999  23.449  28.004  1.00  0.00     0.010 A 
HETATM    3  C4  UNL     1      50.919  23.469  28.866  1.00  0.00     0.024 A 
HETATM    4  C5  UNL     1      50.948  22.779  30.067  1.00  0.00     0.034 A 
HETATM    5 CL1  UNL     1      49.578  22.793  31.178  1.00  0.00    -0.084 Cl
HETATM    6  C6  UNL     1      52.101  22.079  30.357  1.00  0.00     0.024 A 
HETATM    7  C7  UNL     1      53.184  22.054  29.501  1.00  0.00     0.010 A 
ENDROOT
BRANCH   1   8
HETATM    8  C1  UNL     1      54.282  22.757  27.342  1.00  0.00     0.268 C 
BRANCH   8   9
HETATM    9  N1  UNL     1      53.708  22.899  26.000  1.00  0.00    -0.075 N 
ATOM     10  H13 UNL     1      52.689  22.953  26.006  1.00  0.00     0.274 HD
ATOM     11  H12 UNL     1      53.887  23.813  25.584  1.00  0.00     0.274 HD
ATOM     12  H11 UNL     1      54.064  22.127  25.435  1.00  0.00     0.274 HD
ENDBRANCH   8   9
ENDBRANCH   1   8
TORSDOF 2
ENDMDL
