MODEL 1
REMARK VINA RESULT: -6.279712427      0.000      0.000
REMARK  2 active torsions:
REMARK  status: ('A' for Active; 'I' for Inactive)
REMARK    1  A    between atoms: N1_1  and  C1_5 
REMARK    2  A    between atoms: C1_5  and  C2_6 
ROOT
HETATM    1  C2  UNL     1      51.725  22.785  28.917  1.00  0.00    -0.033 A 
HETATM    2  C3  UNL     1      50.465  23.349  29.011  1.00  0.00     0.010 A 
HETATM    3  C4  UNL     1      49.778  23.373  30.210  1.00  0.00     0.024 A 
HETATM    4  C5  UNL     1      50.326  22.832  31.361  1.00  0.00     0.034 A 
HETATM    5 CL1  UNL     1      49.463  22.854  32.898  1.00  0.00    -0.084 Cl
HETATM    6  C6  UNL     1      51.584  22.274  31.251  1.00  0.00     0.024 A 
HETATM    7  C7  UNL     1      52.276  22.247  30.057  1.00  0.00     0.010 A 
ENDROOT
BRANCH   1   8
HETATM    8  C1  UNL     1      52.419  22.789  27.598  1.00  0.00     0.268 C 
BRANCH   8   9
HETATM    9  N1  UNL     1      53.288  23.970  27.566  1.00  0.00    -0.075 N 
ATOM     10  H13 UNL     1      52.793  24.835  27.787  1.00  0.00     0.274 HD
ATOM     11  H12 UNL     1      53.953  23.998  28.339  1.00  0.00     0.274 HD
ATOM     12  H11 UNL     1      53.739  23.991  26.651  1.00  0.00     0.274 HD
ENDBRANCH   8   9
ENDBRANCH   1   8
TORSDOF 2
ENDMDL
