MODEL 4
REMARK VINA RESULT: -6.242917558      1.398      2.094
REMARK  2 active torsions:
REMARK  status: ('A' for Active; 'I' for Inactive)
REMARK    1  A    between atoms: N1_1  and  C1_5 
REMARK    2  A    between atoms: C1_5  and  C2_6 
ROOT
HETATM    1  C2  UNL     1      51.517  22.356  29.514  1.00  0.00    -0.033 A 
HETATM    2  C3  UNL     1      51.768  22.481  30.869  1.00  0.00     0.010 A 
HETATM    3  C4  UNL     1      50.925  23.204  31.690  1.00  0.00     0.024 A 
HETATM    4  C5  UNL     1      49.798  23.831  31.186  1.00  0.00     0.034 A 
HETATM    5 CL1  UNL     1      48.711  24.759  32.220  1.00  0.00    -0.084 Cl
HETATM    6  C6  UNL     1      49.561  23.696  29.833  1.00  0.00     0.024 A 
HETATM    7  C7  UNL     1      50.398  22.975  29.006  1.00  0.00     0.010 A 
ENDROOT
BRANCH   1   8
HETATM    8  C1  UNL     1      52.461  21.562  28.676  1.00  0.00     0.268 C 
BRANCH   8   9
HETATM    9  N1  UNL     1      53.814  21.818  29.183  1.00  0.00    -0.075 N 
ATOM     10  H13 UNL     1      54.262  22.617  28.734  1.00  0.00     0.274 HD
ATOM     11  H12 UNL     1      53.821  22.180  30.136  1.00  0.00     0.274 HD
ATOM     12  H11 UNL     1      54.345  20.953  29.081  1.00  0.00     0.274 HD
ENDBRANCH   8   9
ENDBRANCH   1   8
TORSDOF 2
ENDMDL
