MODEL 3
REMARK VINA RESULT: -6.249195512      1.378      1.462
REMARK  2 active torsions:
REMARK  status: ('A' for Active; 'I' for Inactive)
REMARK    1  A    between atoms: N1_1  and  C1_5 
REMARK    2  A    between atoms: C1_5  and  C2_6 
ROOT
HETATM    1  C2  UNL     1      51.564  22.347  29.546  1.00  0.00    -0.033 A 
HETATM    2  C3  UNL     1      50.440  22.957  29.018  1.00  0.00     0.010 A 
HETATM    3  C4  UNL     1      49.573  23.676  29.818  1.00  0.00     0.024 A 
HETATM    4  C5  UNL     1      49.797  23.811  31.177  1.00  0.00     0.034 A 
HETATM    5 CL1  UNL     1      48.700  24.725  32.213  1.00  0.00    -0.084 Cl
HETATM    6  C6  UNL     1      50.922  23.197  31.689  1.00  0.00     0.024 A 
HETATM    7  C7  UNL     1      51.793  22.477  30.896  1.00  0.00     0.010 A 
ENDROOT
BRANCH   1   8
HETATM    8  C1  UNL     1      52.465  21.585  28.635  1.00  0.00     0.268 C 
BRANCH   8   9
HETATM    9  N1  UNL     1      53.839  21.802  29.101  1.00  0.00    -0.075 N 
ATOM     10  H13 UNL     1      54.373  22.423  28.492  1.00  0.00     0.274 HD
ATOM     11  H12 UNL     1      53.889  22.371  29.945  1.00  0.00     0.274 HD
ATOM     12  H11 UNL     1      54.270  20.884  29.212  1.00  0.00     0.274 HD
ENDBRANCH   8   9
ENDBRANCH   1   8
TORSDOF 2
ENDMDL
