MODEL 18
REMARK VINA RESULT: -4.186254652      5.688      7.128
REMARK  2 active torsions:
REMARK  status: ('A' for Active; 'I' for Inactive)
REMARK    1  A    between atoms: N1_1  and  C1_5 
REMARK    2  A    between atoms: C1_5  and  C2_6 
ROOT
HETATM    1  C2  UNL     1      55.200  22.903  26.402  1.00  0.00    -0.033 A 
HETATM    2  C3  UNL     1      55.846  22.051  25.524  1.00  0.00     0.010 A 
HETATM    3  C4  UNL     1      57.225  22.011  25.449  1.00  0.00     0.024 A 
HETATM    4  C5  UNL     1      58.010  22.824  26.249  1.00  0.00     0.034 A 
HETATM    5 CL1  UNL     1      59.772  22.786  26.164  1.00  0.00    -0.084 Cl
HETATM    6  C6  UNL     1      57.351  23.668  27.119  1.00  0.00     0.024 A 
HETATM    7  C7  UNL     1      55.974  23.713  27.200  1.00  0.00     0.010 A 
ENDROOT
BRANCH   1   8
HETATM    8  C1  UNL     1      53.710  22.903  26.441  1.00  0.00     0.268 C 
BRANCH   8   9
HETATM    9  N1  UNL     1      53.300  23.891  27.445  1.00  0.00    -0.075 N 
ATOM     10  H13 UNL     1      53.808  23.799  28.325  1.00  0.00     0.274 HD
ATOM     11  H12 UNL     1      53.600  24.838  27.218  1.00  0.00     0.274 HD
ATOM     12  H11 UNL     1      52.289  23.808  27.557  1.00  0.00     0.274 HD
ENDBRANCH   8   9
ENDBRANCH   1   8
TORSDOF 2
ENDMDL
