MODEL 2
REMARK VINA RESULT: -6.251072168      0.690      1.716
REMARK  2 active torsions:
REMARK  status: ('A' for Active; 'I' for Inactive)
REMARK    1  A    between atoms: N1_1  and  C1_5 
REMARK    2  A    between atoms: C1_5  and  C2_6 
ROOT
HETATM    1  C2  UNL     1      51.872  22.809  29.049  1.00  0.00    -0.033 A 
HETATM    2  C3  UNL     1      52.309  22.234  30.229  1.00  0.00     0.010 A 
HETATM    3  C4  UNL     1      51.512  22.219  31.357  1.00  0.00     0.024 A 
HETATM    4  C5  UNL     1      50.246  22.780  31.347  1.00  0.00     0.034 A 
HETATM    5 CL1  UNL     1      49.215  22.770  32.778  1.00  0.00    -0.084 Cl
HETATM    6  C6  UNL     1      49.824  23.349  30.162  1.00  0.00     0.024 A 
HETATM    7  C7  UNL     1      50.615  23.367  29.031  1.00  0.00     0.010 A 
ENDROOT
BRANCH   1   8
HETATM    8  C1  UNL     1      52.775  22.795  27.863  1.00  0.00     0.268 C 
BRANCH   8   9
HETATM    9  N1  UNL     1      54.092  22.341  28.323  1.00  0.00    -0.075 N 
ATOM     10  H13 UNL     1      54.061  21.431  28.784  1.00  0.00     0.274 HD
ATOM     11  H12 UNL     1      54.714  22.080  27.558  1.00  0.00     0.274 HD
ATOM     12  H11 UNL     1      54.476  23.076  28.916  1.00  0.00     0.274 HD
ENDBRANCH   8   9
ENDBRANCH   1   8
TORSDOF 2
ENDMDL
