MODEL 8
REMARK VINA RESULT: -3.983427175      7.766      8.499
REMARK  1 active torsions:
REMARK  status: ('A' for Active; 'I' for Inactive)
REMARK    1  A    between atoms: C5_7  and  C6_8 
ROOT
HETATM    1  C1  UNL     1      25.070  37.202  80.647  1.00  0.00     0.088 C 
HETATM    2  C2  UNL     1      24.178  36.189  79.995  1.00  0.00     0.069 C 
HETATM    3  N1  UNL     1      24.673  35.189  79.352  1.00  0.00    -0.380 N 
ATOM      4  H1  UNL     1      25.689  35.114  79.306  1.00  0.00     0.160 HD
HETATM    5  C3  UNL     1      23.900  34.172  78.697  1.00  0.00     0.123 C 
HETATM    6  C4  UNL     1      22.466  34.136  79.189  1.00  0.00     0.056 C 
HETATM    7  C5  UNL     1      21.970  35.567  79.150  1.00  0.00     0.185 C 
HETATM    8  N2  UNL     1      22.761  36.329  80.081  1.00  0.00    -0.366 N 
ATOM      9  H2  UNL     1      22.328  36.941  80.773  1.00  0.00     0.161 HD
ENDROOT
BRANCH   7  10
HETATM   10  C6  UNL     1      20.519  35.666  79.416  1.00  0.00     0.196 C 
HETATM   11  O1  UNL     1      19.694  34.778  79.099  1.00  0.00    -0.646 OA
HETATM   12  O2  UNL     1      20.066  36.815  80.051  1.00  0.00    -0.646 OA
ENDBRANCH   7  10
TORSDOF 1
ENDMDL
