MODEL 9
REMARK VINA RESULT: -3.837637030      7.717      8.498
REMARK  1 active torsions:
REMARK  status: ('A' for Active; 'I' for Inactive)
REMARK    1  A    between atoms: C5_7  and  C6_8 
ROOT
HETATM    1  C1  UNL     1      25.008  37.255  80.750  1.00  0.00     0.088 C 
HETATM    2  C2  UNL     1      24.222  36.188  80.049  1.00  0.00     0.069 C 
HETATM    3  N1  UNL     1      24.815  35.212  79.454  1.00  0.00    -0.380 N 
ATOM      4  H1  UNL     1      25.835  35.194  79.479  1.00  0.00     0.160 HD
HETATM    5  C3  UNL     1      24.148  34.148  78.758  1.00  0.00     0.123 C 
HETATM    6  C4  UNL     1      22.687  34.035  79.149  1.00  0.00     0.056 C 
HETATM    7  C5  UNL     1      22.116  35.436  79.059  1.00  0.00     0.185 C 
HETATM    8  N2  UNL     1      22.797  36.248  80.035  1.00  0.00    -0.366 N 
ATOM      9  H2  UNL     1      22.282  36.840  80.687  1.00  0.00     0.161 HD
ENDROOT
BRANCH   7  10
HETATM   10  C6  UNL     1      20.647  35.455  79.223  1.00  0.00     0.196 C 
HETATM   11  O1  UNL     1      20.003  36.468  79.581  1.00  0.00    -0.646 OA
HETATM   12  O2  UNL     1      19.963  34.276  78.961  1.00  0.00    -0.646 OA
ENDBRANCH   7  10
TORSDOF 1
ENDMDL
