MODEL 2
REMARK VINA RESULT: -7.597703727      0.156      1.020
REMARK  1 active torsions:
REMARK  status: ('A' for Active; 'I' for Inactive)
REMARK    1  A    between atoms: C5_7  and  C6_8 
ROOT
HETATM    1  C1  UNL     1      20.674  36.899  71.801  1.00  0.00     0.088 C 
HETATM    2  C2  UNL     1      21.167  37.957  72.741  1.00  0.00     0.069 C 
HETATM    3  N1  UNL     1      20.647  38.095  73.911  1.00  0.00    -0.380 N 
ATOM      4  H1  UNL     1      19.894  37.460  74.171  1.00  0.00     0.160 HD
HETATM    5  C3  UNL     1      21.052  39.078  74.877  1.00  0.00     0.123 C 
HETATM    6  C4  UNL     1      22.422  39.653  74.572  1.00  0.00     0.056 C 
HETATM    7  C5  UNL     1      22.402  40.036  73.106  1.00  0.00     0.185 C 
HETATM    8  N2  UNL     1      22.223  38.828  72.341  1.00  0.00    -0.366 N 
ATOM      9  H2  UNL     1      22.826  38.606  71.549  1.00  0.00     0.161 HD
ENDROOT
BRANCH   7  10
HETATM   10  C6  UNL     1      23.607  40.794  72.707  1.00  0.00     0.196 C 
HETATM   11  O1  UNL     1      23.856  41.127  71.526  1.00  0.00    -0.646 OA
HETATM   12  O2  UNL     1      24.499  41.142  73.712  1.00  0.00    -0.646 OA
ENDBRANCH   7  10
TORSDOF 1
ENDMDL
