MODEL 7
REMARK VINA RESULT: -4.110116116      9.383     10.224
REMARK  1 active torsions:
REMARK  status: ('A' for Active; 'I' for Inactive)
REMARK    1  A    between atoms: C5_7  and  C6_8 
ROOT
HETATM    1  C1  UNL     1      26.773  47.302  77.912  1.00  0.00     0.088 C 
HETATM    2  C2  UNL     1      27.981  46.672  77.286  1.00  0.00     0.069 C 
HETATM    3  N1  UNL     1      29.076  46.539  77.951  1.00  0.00    -0.380 N 
ATOM      4  H1  UNL     1      29.088  46.876  78.914  1.00  0.00     0.160 HD
HETATM    5  C3  UNL     1      30.281  45.950  77.438  1.00  0.00     0.123 C 
HETATM    6  C4  UNL     1      30.027  45.111  76.199  1.00  0.00     0.056 C 
HETATM    7  C5  UNL     1      29.182  45.966  75.277  1.00  0.00     0.185 C 
HETATM    8  N2  UNL     1      27.926  46.212  75.937  1.00  0.00    -0.366 N 
ATOM      9  H2  UNL     1      27.036  46.064  75.461  1.00  0.00     0.161 HD
ENDROOT
BRANCH   7  10
HETATM   10  C6  UNL     1      29.017  45.356  73.940  1.00  0.00     0.196 C 
HETATM   11  O1  UNL     1      29.683  44.375  73.540  1.00  0.00    -0.646 OA
HETATM   12  O2  UNL     1      28.066  45.918  73.098  1.00  0.00    -0.646 OA
ENDBRANCH   7  10
TORSDOF 1
ENDMDL
