MODEL 1
REMARK VINA RESULT: -7.698332772      0.000      0.000
REMARK  1 active torsions:
REMARK  status: ('A' for Active; 'I' for Inactive)
REMARK    1  A    between atoms: C5_7  and  C6_8 
ROOT
HETATM    1  C1  UNL     1      20.705  36.820  71.783  1.00  0.00     0.088 C 
HETATM    2  C2  UNL     1      21.167  37.898  72.718  1.00  0.00     0.069 C 
HETATM    3  N1  UNL     1      20.627  38.043  73.877  1.00  0.00    -0.380 N 
ATOM      4  H1  UNL     1      19.878  37.399  74.134  1.00  0.00     0.160 HD
HETATM    5  C3  UNL     1      21.001  39.044  74.837  1.00  0.00     0.123 C 
HETATM    6  C4  UNL     1      22.367  39.635  74.546  1.00  0.00     0.056 C 
HETATM    7  C5  UNL     1      22.365  39.999  73.075  1.00  0.00     0.185 C 
HETATM    8  N2  UNL     1      22.216  38.779  72.323  1.00  0.00    -0.366 N 
ATOM      9  H2  UNL     1      22.835  38.556  71.543  1.00  0.00     0.161 HD
ENDROOT
BRANCH   7  10
HETATM   10  C6  UNL     1      23.565  40.770  72.685  1.00  0.00     0.196 C 
HETATM   11  O1  UNL     1      24.328  41.326  73.507  1.00  0.00    -0.646 OA
HETATM   12  O2  UNL     1      23.842  40.871  71.328  1.00  0.00    -0.646 OA
ENDBRANCH   7  10
TORSDOF 1
ENDMDL
