MODEL 7
REMARK VINA RESULT: -2.968342985      7.952      8.910
REMARK  2 active torsions:
REMARK  status: ('A' for Active; 'I' for Inactive)
REMARK    1  A    between atoms: C3_5  and  C4_6 
REMARK    2  A    between atoms: C5_9  and  O3_10 
ROOT
HETATM    1  C1  UNL     1      19.939  20.787  40.500  1.00  0.00     0.088 C 
HETATM    2  C2  UNL     1      21.027  21.160  39.529  1.00  0.00     0.069 C 
HETATM    3  N1  UNL     1      21.751  20.248  38.995  1.00  0.00    -0.364 N 
ATOM      4  H1  UNL     1      21.565  19.279  39.249  1.00  0.00     0.161 HD
HETATM    5  C3  UNL     1      22.811  20.508  38.059  1.00  0.00     0.214 C 
HETATM    6  C5  UNL     1      23.341  21.899  38.303  1.00  0.00     0.169 C 
HETATM    7  C6  UNL     1      22.159  22.849  38.160  1.00  0.00     0.155 C 
HETATM    8  N2  UNL     1      21.225  22.521  39.226  1.00  0.00    -0.378 N 
ATOM      9  H2  UNL     1      20.731  23.253  39.737  1.00  0.00     0.160 HD
ENDROOT
BRANCH   5  10
HETATM   10  C4  UNL     1      23.853  19.475  38.139  1.00  0.00     0.199 C 
HETATM   11  O1  UNL     1      23.582  18.301  37.815  1.00  0.00    -0.646 OA
HETATM   12  O2  UNL     1      25.117  19.805  38.570  1.00  0.00    -0.646 OA
ENDBRANCH   5  10
BRANCH   6  13
HETATM   13  O3  UNL     1      24.334  22.245  37.393  1.00  0.00    -0.391 OA
ATOM     14  H3  UNL     1      25.046  22.718  37.806  1.00  0.00     0.210 HD
ENDBRANCH   6  13
TORSDOF 2
ENDMDL
