MODEL 1
REMARK VINA RESULT: -7.895103519      0.000      0.000
REMARK  2 active torsions:
REMARK  status: ('A' for Active; 'I' for Inactive)
REMARK    1  A    between atoms: C3_5  and  C4_6 
REMARK    2  A    between atoms: C5_9  and  O3_10 
ROOT
HETATM    1  C1  UNL     1      20.439  20.972  31.023  1.00  0.00     0.088 C 
HETATM    2  C2  UNL     1      19.272  21.279  31.922  1.00  0.00     0.069 C 
HETATM    3  N1  UNL     1      18.306  22.003  31.496  1.00  0.00    -0.364 N 
ATOM      4  H1  UNL     1      18.359  22.358  30.542  1.00  0.00     0.161 HD
HETATM    5  C3  UNL     1      17.152  22.348  32.282  1.00  0.00     0.214 C 
HETATM    6  C5  UNL     1      17.531  22.313  33.741  1.00  0.00     0.169 C 
HETATM    7  C6  UNL     1      18.060  20.912  34.021  1.00  0.00     0.155 C 
HETATM    8  N2  UNL     1      19.270  20.752  33.230  1.00  0.00    -0.378 N 
ATOM      9  H2  UNL     1      20.088  20.276  33.608  1.00  0.00     0.160 HD
ENDROOT
BRANCH   5  10
HETATM   10  C4  UNL     1      16.596  23.643  31.865  1.00  0.00     0.199 C 
HETATM   11  O1  UNL     1      16.273  23.819  30.673  1.00  0.00    -0.646 OA
HETATM   12  O2  UNL     1      16.435  24.651  32.787  1.00  0.00    -0.646 OA
ENDBRANCH   5  10
BRANCH   6  13
HETATM   13  O3  UNL     1      16.447  22.580  34.568  1.00  0.00    -0.391 OA
ATOM     14  H3  UNL     1      16.630  23.281  35.181  1.00  0.00     0.210 HD
ENDBRANCH   6  13
TORSDOF 2
ENDMDL
