MODEL 3
REMARK VINA RESULT: -4.097575283      7.727      8.588
REMARK  2 active torsions:
REMARK  status: ('A' for Active; 'I' for Inactive)
REMARK    1  A    between atoms: C3_5  and  C4_6 
REMARK    2  A    between atoms: C5_9  and  O3_10 
ROOT
HETATM    1  C1  UNL     1      19.970  24.879  40.023  1.00  0.00     0.088 C 
HETATM    2  C2  UNL     1      21.059  24.141  39.293  1.00  0.00     0.069 C 
HETATM    3  N1  UNL     1      20.914  22.902  39.004  1.00  0.00    -0.364 N 
ATOM      4  H1  UNL     1      20.048  22.443  39.284  1.00  0.00     0.161 HD
HETATM    5  C3  UNL     1      21.899  22.117  38.310  1.00  0.00     0.214 C 
HETATM    6  C5  UNL     1      23.260  22.717  38.558  1.00  0.00     0.169 C 
HETATM    7  C6  UNL     1      23.192  24.163  38.084  1.00  0.00     0.155 C 
HETATM    8  N2  UNL     1      22.229  24.842  38.938  1.00  0.00    -0.378 N 
ATOM      9  H2  UNL     1      22.396  25.792  39.268  1.00  0.00     0.160 HD
ENDROOT
BRANCH   5  10
HETATM   10  C4  UNL     1      21.817  20.702  38.698  1.00  0.00     0.199 C 
HETATM   11  O1  UNL     1      20.888  20.319  39.438  1.00  0.00    -0.646 OA
HETATM   12  O2  UNL     1      22.763  19.809  38.249  1.00  0.00    -0.646 OA
ENDBRANCH   5  10
BRANCH   6  13
HETATM   13  O3  UNL     1      24.261  22.043  37.868  1.00  0.00    -0.391 OA
ATOM     14  H3  UNL     1      24.883  22.640  37.470  1.00  0.00     0.210 HD
ENDBRANCH   6  13
TORSDOF 2
ENDMDL
