MODEL 3
REMARK VINA RESULT: -9.043946626      4.983      8.327
REMARK  9 active torsions:
REMARK  status: ('A' for Active; 'I' for Inactive)
REMARK    1  A    between atoms: N1_2  and  C3_4 
REMARK    2  A    between atoms: C3_4  and  O1_5 
REMARK    3  A    between atoms: C3_4  and  C4_7 
REMARK    4  A    between atoms: C7_10  and  S1_11 
REMARK    5  A    between atoms: S1_11  and  C8_14 
REMARK    6  A    between atoms: C11_17  and  N2_18 
REMARK       I    between atoms: N2_18  and  C12_20 
REMARK    7  A    between atoms: C12_20  and  C13_22 
REMARK    8  A    between atoms: C13_22  and  O5_24 
REMARK    9  A    between atoms: C13_22  and  C15_26 
ROOT
HETATM    1  C8  UNL     1      -3.400  40.827   9.311  1.00  0.00     0.066 A 
HETATM    2  C9  UNL     1      -3.474  39.750   8.458  1.00  0.00     0.026 A 
HETATM    3  C10 UNL     1      -3.595  39.923   7.064  1.00  0.00     0.033 A 
HETATM    4  C11 UNL     1      -3.646  41.159   6.493  1.00  0.00     0.056 A 
HETATM    5  C16 UNL     1      -3.571  42.251   7.364  1.00  0.00     0.062 A 
HETATM    6 CL1  UNL     1      -3.634  43.867   6.663  1.00  0.00    -0.082 Cl
HETATM    7  C17 UNL     1      -3.452  42.067   8.721  1.00  0.00     0.050 A 
ENDROOT
BRANCH   1   8
HETATM    8  S1  UNL     1      -3.250  40.686  11.031  1.00  0.00     0.206 S 
HETATM    9  O2  UNL     1      -2.677  41.973  11.552  1.00  0.00    -0.217 OA
HETATM   10  O3  UNL     1      -2.339  39.537  11.362  1.00  0.00    -0.217 OA
BRANCH   8  11
HETATM   11  C7  UNL     1      -4.767  40.398  11.816  1.00  0.00     0.064 A 
HETATM   12  C6  UNL     1      -5.836  41.189  11.460  1.00  0.00     0.025 A 
HETATM   13  C5  UNL     1      -7.062  41.022  12.034  1.00  0.00     0.017 A 
HETATM   14  C4  UNL     1      -7.321  40.038  13.023  1.00  0.00     0.015 A 
HETATM   15  C19 UNL     1      -6.232  39.277  13.346  1.00  0.00     0.017 A 
HETATM   16  C18 UNL     1      -4.962  39.430  12.769  1.00  0.00     0.025 A 
BRANCH  14  17
HETATM   17  C3  UNL     1      -8.641  39.954  13.558  1.00  0.00     0.147 C 
BRANCH  17  18
HETATM   18  N1  UNL     1      -9.076  39.362  14.735  1.00  0.00    -0.370 N 
HETATM   19  C1  UNL     1      -8.746  39.692  16.097  1.00  0.00     0.151 C 
HETATM   20  C2  UNL     1     -10.031  38.210  14.646  1.00  0.00     0.151 C 
ENDBRANCH  17  18
BRANCH  17  21
HETATM   21  O1  UNL     1      -9.593  40.504  12.857  1.00  0.00    -0.346 OA
ATOM     22  H1  UNL     1      -9.358  40.675  11.952  1.00  0.00     0.219 HD
ENDBRANCH  17  21
ENDBRANCH  14  17
ENDBRANCH   8  11
ENDBRANCH   1   8
BRANCH   4  23
HETATM   23  N2  UNL     1      -3.766  41.422   5.118  1.00  0.00    -0.323 N 
HETATM   24  C12 UNL     1      -4.682  40.776   4.269  1.00  0.00     0.265 C 
HETATM   25  O4  UNL     1      -5.464  39.911   4.675  1.00  0.00    -0.269 OA
ATOM     26  H2  UNL     1      -3.149  42.126   4.710  1.00  0.00     0.169 HD
BRANCH  24  27
HETATM   27  C13 UNL     1      -4.748  41.116   2.815  1.00  0.00     0.233 C 
HETATM   28  C14 UNL     1      -6.172  40.915   2.349  1.00  0.00     0.066 C 
BRANCH  27  29
HETATM   29  O5  UNL     1      -4.349  42.449   2.611  1.00  0.00    -0.373 OA
ATOM     30  H5  UNL     1      -3.713  42.495   1.907  1.00  0.00     0.211 HD
ENDBRANCH  27  29
BRANCH  27  31
HETATM   31  C15 UNL     1      -3.853  40.264   1.965  1.00  0.00     0.427 C 
HETATM   32  F1  UNL     1      -4.428  39.026   1.781  1.00  0.00    -0.167 F 
HETATM   33  F2  UNL     1      -2.573  40.169   2.473  1.00  0.00    -0.167 F 
HETATM   34  F3  UNL     1      -3.770  40.874   0.729  1.00  0.00    -0.167 F 
ENDBRANCH  27  31
ENDBRANCH  24  27
ENDBRANCH   4  23
TORSDOF 9
ENDMDL
