MODEL 5
REMARK VINA RESULT: -8.939072004      6.222      9.658
REMARK  9 active torsions:
REMARK  status: ('A' for Active; 'I' for Inactive)
REMARK    1  A    between atoms: N1_2  and  C3_4 
REMARK    2  A    between atoms: C3_4  and  O1_5 
REMARK    3  A    between atoms: C3_4  and  C4_7 
REMARK    4  A    between atoms: C7_10  and  S1_11 
REMARK    5  A    between atoms: S1_11  and  C8_14 
REMARK    6  A    between atoms: C11_17  and  N2_18 
REMARK       I    between atoms: N2_18  and  C12_20 
REMARK    7  A    between atoms: C12_20  and  C13_22 
REMARK    8  A    between atoms: C13_22  and  O5_24 
REMARK    9  A    between atoms: C13_22  and  C15_26 
ROOT
HETATM    1  C8  UNL     1      -3.073  41.428   9.894  1.00  0.00     0.066 A 
HETATM    2  C9  UNL     1      -2.160  40.492  10.323  1.00  0.00     0.026 A 
HETATM    3  C10 UNL     1      -2.524  39.468  11.221  1.00  0.00     0.033 A 
HETATM    4  C11 UNL     1      -3.791  39.354  11.710  1.00  0.00     0.056 A 
HETATM    5  C16 UNL     1      -4.715  40.309  11.272  1.00  0.00     0.062 A 
HETATM    6 CL1  UNL     1      -6.365  40.197  11.881  1.00  0.00    -0.082 Cl
HETATM    7  C17 UNL     1      -4.346  41.301  10.395  1.00  0.00     0.050 A 
ENDROOT
BRANCH   1   8
HETATM    8  S1  UNL     1      -2.692  42.710   8.793  1.00  0.00     0.206 S 
HETATM    9  O2  UNL     1      -1.197  42.788   8.673  1.00  0.00    -0.217 OA
HETATM   10  O3  UNL     1      -3.242  44.005   9.323  1.00  0.00    -0.217 OA
BRANCH   8  11
HETATM   11  C7  UNL     1      -3.361  42.462   7.215  1.00  0.00     0.064 A 
HETATM   12  C6  UNL     1      -3.488  41.166   6.767  1.00  0.00     0.025 A 
HETATM   13  C5  UNL     1      -4.006  40.891   5.536  1.00  0.00     0.017 A 
HETATM   14  C4  UNL     1      -4.445  41.902   4.642  1.00  0.00     0.015 A 
HETATM   15  C19 UNL     1      -4.300  43.172   5.128  1.00  0.00     0.017 A 
HETATM   16  C18 UNL     1      -3.771  43.479   6.391  1.00  0.00     0.025 A 
BRANCH  14  17
HETATM   17  C3  UNL     1      -4.969  41.499   3.377  1.00  0.00     0.147 C 
BRANCH  17  18
HETATM   18  N1  UNL     1      -6.043  40.669   3.095  1.00  0.00    -0.370 N 
HETATM   19  C1  UNL     1      -6.326  39.345   3.587  1.00  0.00     0.151 C 
HETATM   20  C2  UNL     1      -7.099  41.160   2.150  1.00  0.00     0.151 C 
ENDBRANCH  17  18
BRANCH  17  21
HETATM   21  O1  UNL     1      -4.367  41.967   2.319  1.00  0.00    -0.346 OA
ATOM     22  H1  UNL     1      -4.159  41.306   1.669  1.00  0.00     0.219 HD
ENDBRANCH  17  21
ENDBRANCH  14  17
ENDBRANCH   8  11
ENDBRANCH   1   8
BRANCH   4  23
HETATM   23  N2  UNL     1      -4.239  38.369  12.606  1.00  0.00    -0.323 N 
HETATM   24  C12 UNL     1      -3.669  38.136  13.870  1.00  0.00     0.265 C 
HETATM   25  O4  UNL     1      -2.712  38.790  14.295  1.00  0.00    -0.269 OA
ATOM     26  H2  UNL     1      -5.027  37.787  12.321  1.00  0.00     0.169 HD
BRANCH  24  27
HETATM   27  C13 UNL     1      -4.206  37.067  14.765  1.00  0.00     0.233 C 
HETATM   28  C14 UNL     1      -3.746  37.360  16.176  1.00  0.00     0.066 C 
BRANCH  27  29
HETATM   29  O5  UNL     1      -5.611  37.045  14.703  1.00  0.00    -0.373 OA
ATOM     30  H5  UNL     1      -5.943  36.250  15.101  1.00  0.00     0.211 HD
ENDBRANCH  27  29
BRANCH  27  31
HETATM   31  C15 UNL     1      -3.737  35.691  14.397  1.00  0.00     0.427 C 
HETATM   32  F1  UNL     1      -2.360  35.662  14.367  1.00  0.00    -0.167 F 
HETATM   33  F2  UNL     1      -4.290  35.243  13.214  1.00  0.00    -0.167 F 
HETATM   34  F3  UNL     1      -4.151  34.840  15.403  1.00  0.00    -0.167 F 
ENDBRANCH  27  31
ENDBRANCH  24  27
ENDBRANCH   4  23
TORSDOF 9
ENDMDL
