MODEL 4
REMARK VINA RESULT: -8.970719094      0.817      1.127
REMARK  9 active torsions:
REMARK  status: ('A' for Active; 'I' for Inactive)
REMARK    1  A    between atoms: N1_2  and  C3_4 
REMARK    2  A    between atoms: C3_4  and  O1_5 
REMARK    3  A    between atoms: C3_4  and  C4_7 
REMARK    4  A    between atoms: C7_10  and  S1_11 
REMARK    5  A    between atoms: S1_11  and  C8_14 
REMARK    6  A    between atoms: C11_17  and  N2_18 
REMARK       I    between atoms: N2_18  and  C12_20 
REMARK    7  A    between atoms: C12_20  and  C13_22 
REMARK    8  A    between atoms: C13_22  and  O5_24 
REMARK    9  A    between atoms: C13_22  and  C15_26 
ROOT
HETATM    1  C8  UNL     1      -2.873  43.399   8.120  1.00  0.00     0.066 A 
HETATM    2  C9  UNL     1      -3.357  44.058   7.013  1.00  0.00     0.026 A 
HETATM    3  C10 UNL     1      -3.922  43.356   5.929  1.00  0.00     0.033 A 
HETATM    4  C11 UNL     1      -4.016  41.996   5.920  1.00  0.00     0.056 A 
HETATM    5  C16 UNL     1      -3.521  41.331   7.047  1.00  0.00     0.062 A 
HETATM    6 CL1  UNL     1      -3.624  39.572   7.075  1.00  0.00    -0.082 Cl
HETATM    7  C17 UNL     1      -2.974  42.029   8.097  1.00  0.00     0.050 A 
ENDROOT
BRANCH   1   8
HETATM    8  S1  UNL     1      -2.167  44.199   9.484  1.00  0.00     0.206 S 
HETATM    9  O2  UNL     1      -1.491  43.159  10.331  1.00  0.00    -0.217 OA
HETATM   10  O3  UNL     1      -3.245  44.893  10.270  1.00  0.00    -0.217 OA
BRANCH   8  11
HETATM   11  C7  UNL     1      -0.995  45.392   9.033  1.00  0.00     0.064 A 
HETATM   12  C6  UNL     1       0.337  45.071   9.174  1.00  0.00     0.025 A 
HETATM   13  C5  UNL     1       1.318  45.956   8.839  1.00  0.00     0.017 A 
HETATM   14  C4  UNL     1       1.043  47.252   8.330  1.00  0.00     0.015 A 
HETATM   15  C19 UNL     1      -0.291  47.528   8.207  1.00  0.00     0.017 A 
HETATM   16  C18 UNL     1      -1.317  46.633   8.544  1.00  0.00     0.025 A 
BRANCH  14  17
HETATM   17  C3  UNL     1       2.148  48.099   8.015  1.00  0.00     0.147 C 
BRANCH  17  18
HETATM   18  N1  UNL     1       2.604  48.523   6.775  1.00  0.00    -0.370 N 
HETATM   19  C1  UNL     1       2.900  49.857   6.321  1.00  0.00     0.151 C 
HETATM   20  C2  UNL     1       2.845  47.495   5.710  1.00  0.00     0.151 C 
ENDBRANCH  17  18
BRANCH  17  21
HETATM   21  O1  UNL     1       2.845  48.550   9.020  1.00  0.00    -0.346 OA
ATOM     22  H1  UNL     1       3.784  48.453   8.915  1.00  0.00     0.219 HD
ENDBRANCH  17  21
ENDBRANCH  14  17
ENDBRANCH   8  11
ENDBRANCH   1   8
BRANCH   4  23
HETATM   23  N2  UNL     1      -4.562  41.218   4.886  1.00  0.00    -0.323 N 
HETATM   24  C12 UNL     1      -4.593  41.613   3.536  1.00  0.00     0.265 C 
HETATM   25  O4  UNL     1      -4.137  42.693   3.152  1.00  0.00    -0.269 OA
ATOM     26  H2  UNL     1      -4.960  40.311   5.129  1.00  0.00     0.169 HD
BRANCH  24  27
HETATM   27  C13 UNL     1      -5.192  40.725   2.494  1.00  0.00     0.233 C 
HETATM   28  C14 UNL     1      -5.785  39.519   3.187  1.00  0.00     0.066 C 
BRANCH  27  29
HETATM   29  O5  UNL     1      -6.186  41.418   1.780  1.00  0.00    -0.373 OA
ATOM     30  H5  UNL     1      -5.791  42.099   1.248  1.00  0.00     0.211 HD
ENDBRANCH  27  29
BRANCH  27  31
HETATM   31  C15 UNL     1      -4.196  40.240   1.483  1.00  0.00     0.427 C 
HETATM   32  F1  UNL     1      -4.451  38.921   1.176  1.00  0.00    -0.167 F 
HETATM   33  F2  UNL     1      -2.891  40.433   1.890  1.00  0.00    -0.167 F 
HETATM   34  F3  UNL     1      -4.391  40.981   0.334  1.00  0.00    -0.167 F 
ENDBRANCH  27  31
ENDBRANCH  24  27
ENDBRANCH   4  23
TORSDOF 9
ENDMDL
