MODEL 2
REMARK VINA RESULT: -9.047511137      4.926      8.117
REMARK  9 active torsions:
REMARK  status: ('A' for Active; 'I' for Inactive)
REMARK    1  A    between atoms: N1_2  and  C3_4 
REMARK    2  A    between atoms: C3_4  and  O1_5 
REMARK    3  A    between atoms: C3_4  and  C4_7 
REMARK    4  A    between atoms: C7_10  and  S1_11 
REMARK    5  A    between atoms: S1_11  and  C8_14 
REMARK    6  A    between atoms: C11_17  and  N2_18 
REMARK       I    between atoms: N2_18  and  C12_20 
REMARK    7  A    between atoms: C12_20  and  C13_22 
REMARK    8  A    between atoms: C13_22  and  O5_24 
REMARK    9  A    between atoms: C13_22  and  C15_26 
ROOT
HETATM    1  C8  UNL     1      -3.492  40.817   9.247  1.00  0.00     0.066 A 
HETATM    2  C9  UNL     1      -3.546  39.735   8.399  1.00  0.00     0.026 A 
HETATM    3  C10 UNL     1      -3.634  39.900   7.002  1.00  0.00     0.033 A 
HETATM    4  C11 UNL     1      -3.672  41.133   6.422  1.00  0.00     0.056 A 
HETATM    5  C16 UNL     1      -3.617  42.230   7.289  1.00  0.00     0.062 A 
HETATM    6 CL1  UNL     1      -3.664  43.843   6.578  1.00  0.00    -0.082 Cl
HETATM    7  C17 UNL     1      -3.531  42.054   8.649  1.00  0.00     0.050 A 
ENDROOT
BRANCH   1   8
HETATM    8  S1  UNL     1      -3.383  40.685  10.971  1.00  0.00     0.206 S 
HETATM    9  O2  UNL     1      -2.759  41.949  11.493  1.00  0.00    -0.217 OA
HETATM   10  O3  UNL     1      -2.534  39.498  11.330  1.00  0.00    -0.217 OA
BRANCH   8  11
HETATM   11  C7  UNL     1      -4.926  40.477  11.729  1.00  0.00     0.064 A 
HETATM   12  C6  UNL     1      -5.903  41.411  11.466  1.00  0.00     0.025 A 
HETATM   13  C5  UNL     1      -7.143  41.315  12.024  1.00  0.00     0.017 A 
HETATM   14  C4  UNL     1      -7.512  40.263  12.903  1.00  0.00     0.015 A 
HETATM   15  C19 UNL     1      -6.512  39.360  13.136  1.00  0.00     0.017 A 
HETATM   16  C18 UNL     1      -5.229  39.438  12.572  1.00  0.00     0.025 A 
BRANCH  14  17
HETATM   17  C3  UNL     1      -8.837  40.262  13.432  1.00  0.00     0.147 C 
BRANCH  17  18
HETATM   18  N1  UNL     1      -9.711  41.324  13.612  1.00  0.00    -0.370 N 
HETATM   19  C1  UNL     1      -9.684  42.369  14.602  1.00  0.00     0.151 C 
HETATM   20  C2  UNL     1     -10.874  41.462  12.675  1.00  0.00     0.151 C 
ENDBRANCH  17  18
BRANCH  17  21
HETATM   21  O1  UNL     1      -9.317  39.109  13.807  1.00  0.00    -0.346 OA
ATOM     22  H1  UNL     1      -9.816  38.661  13.135  1.00  0.00     0.219 HD
ENDBRANCH  17  21
ENDBRANCH  14  17
ENDBRANCH   8  11
ENDBRANCH   1   8
BRANCH   4  23
HETATM   23  N2  UNL     1      -3.759  41.389   5.044  1.00  0.00    -0.323 N 
HETATM   24  C12 UNL     1      -4.697  40.784   4.189  1.00  0.00     0.265 C 
HETATM   25  O4  UNL     1      -5.529  39.965   4.591  1.00  0.00    -0.269 OA
ATOM     26  H2  UNL     1      -3.101  42.055   4.638  1.00  0.00     0.169 HD
BRANCH  24  27
HETATM   27  C13 UNL     1      -4.726  41.112   2.731  1.00  0.00     0.233 C 
HETATM   28  C14 UNL     1      -6.145  40.940   2.237  1.00  0.00     0.066 C 
BRANCH  27  29
HETATM   29  O5  UNL     1      -4.292  42.434   2.524  1.00  0.00    -0.373 OA
ATOM     30  H5  UNL     1      -4.733  42.808   1.771  1.00  0.00     0.211 HD
ENDBRANCH  27  29
BRANCH  27  31
HETATM   31  C15 UNL     1      -3.834  40.232   1.906  1.00  0.00     0.427 C 
HETATM   32  F1  UNL     1      -4.441  39.012   1.707  1.00  0.00    -0.167 F 
HETATM   33  F2  UNL     1      -2.572  40.100   2.450  1.00  0.00    -0.167 F 
HETATM   34  F3  UNL     1      -3.698  40.837   0.672  1.00  0.00    -0.167 F 
ENDBRANCH  27  31
ENDBRANCH  24  27
ENDBRANCH   4  23
TORSDOF 9
ENDMDL
