MODEL 1
REMARK VINA RESULT: -9.196905630      0.000      0.000
REMARK  9 active torsions:
REMARK  status: ('A' for Active; 'I' for Inactive)
REMARK    1  A    between atoms: N1_2  and  C3_4 
REMARK    2  A    between atoms: C3_4  and  O1_5 
REMARK    3  A    between atoms: C3_4  and  C4_7 
REMARK    4  A    between atoms: C7_10  and  S1_11 
REMARK    5  A    between atoms: S1_11  and  C8_14 
REMARK    6  A    between atoms: C11_17  and  N2_18 
REMARK       I    between atoms: N2_18  and  C12_20 
REMARK    7  A    between atoms: C12_20  and  C13_22 
REMARK    8  A    between atoms: C13_22  and  O5_24 
REMARK    9  A    between atoms: C13_22  and  C15_26 
ROOT
HETATM    1  C8  UNL     1      -2.850  43.553   7.983  1.00  0.00     0.066 A 
HETATM    2  C9  UNL     1      -3.351  44.163   6.856  1.00  0.00     0.026 A 
HETATM    3  C10 UNL     1      -3.921  43.415   5.806  1.00  0.00     0.033 A 
HETATM    4  C11 UNL     1      -4.004  42.054   5.852  1.00  0.00     0.056 A 
HETATM    5  C16 UNL     1      -3.492  41.439   7.000  1.00  0.00     0.062 A 
HETATM    6 CL1  UNL     1      -3.579  39.681   7.097  1.00  0.00    -0.082 Cl
HETATM    7  C17 UNL     1      -2.940  42.182   8.015  1.00  0.00     0.050 A 
ENDROOT
BRANCH   1   8
HETATM    8  S1  UNL     1      -2.137  44.412   9.307  1.00  0.00     0.206 S 
HETATM    9  O2  UNL     1      -1.257  43.454  10.059  1.00  0.00    -0.217 OA
HETATM   10  O3  UNL     1      -3.222  44.938  10.205  1.00  0.00    -0.217 OA
BRANCH   8  11
HETATM   11  C7  UNL     1      -1.177  45.759   8.796  1.00  0.00     0.064 A 
HETATM   12  C6  UNL     1       0.155  45.536   8.529  1.00  0.00     0.025 A 
HETATM   13  C5  UNL     1       0.975  46.547   8.122  1.00  0.00     0.017 A 
HETATM   14  C4  UNL     1       0.523  47.880   7.946  1.00  0.00     0.015 A 
HETATM   15  C19 UNL     1      -0.805  48.056   8.223  1.00  0.00     0.017 A 
HETATM   16  C18 UNL     1      -1.667  47.032   8.643  1.00  0.00     0.025 A 
BRANCH  14  17
HETATM   17  C3  UNL     1       1.468  48.860   7.519  1.00  0.00     0.147 C 
BRANCH  17  18
HETATM   18  N1  UNL     1       2.854  48.807   7.530  1.00  0.00    -0.370 N 
HETATM   19  C1  UNL     1       3.765  48.998   8.629  1.00  0.00     0.151 C 
HETATM   20  C2  UNL     1       3.570  48.510   6.246  1.00  0.00     0.151 C 
ENDBRANCH  17  18
BRANCH  17  21
HETATM   21  O1  UNL     1       0.983  49.974   7.045  1.00  0.00    -0.346 OA
ATOM     22  H1  UNL     1       0.355  49.855   6.343  1.00  0.00     0.219 HD
ENDBRANCH  17  21
ENDBRANCH  14  17
ENDBRANCH   8  11
ENDBRANCH   1   8
BRANCH   4  23
HETATM   23  N2  UNL     1      -4.553  41.232   4.855  1.00  0.00    -0.323 N 
HETATM   24  C12 UNL     1      -4.646  41.593   3.499  1.00  0.00     0.265 C 
HETATM   25  O4  UNL     1      -4.245  42.681   3.075  1.00  0.00    -0.269 OA
ATOM     26  H2  UNL     1      -4.908  40.317   5.132  1.00  0.00     0.169 HD
BRANCH  24  27
HETATM   27  C13 UNL     1      -5.244  40.658   2.498  1.00  0.00     0.233 C 
HETATM   28  C14 UNL     1      -5.749  39.439   3.236  1.00  0.00     0.066 C 
BRANCH  27  29
HETATM   29  O5  UNL     1      -6.300  41.291   1.817  1.00  0.00    -0.373 OA
ATOM     30  H5  UNL     1      -6.338  40.985   0.919  1.00  0.00     0.211 HD
ENDBRANCH  27  29
BRANCH  27  31
HETATM   31  C15 UNL     1      -4.269  40.203   1.453  1.00  0.00     0.427 C 
HETATM   32  F1  UNL     1      -4.385  40.996   0.333  1.00  0.00    -0.167 F 
HETATM   33  F2  UNL     1      -4.403  38.862   1.153  1.00  0.00    -0.167 F 
HETATM   34  F3  UNL     1      -3.003  40.393   1.971  1.00  0.00    -0.167 F 
ENDBRANCH  27  31
ENDBRANCH  24  27
ENDBRANCH   4  23
TORSDOF 9
ENDMDL
