MODEL 4
REMARK VINA RESULT: -7.927126570      1.342      1.702
REMARK  6 active torsions:
REMARK  status: ('A' for Active; 'I' for Inactive)
REMARK    1  A    between atoms: N5_13  and  C6_14 
REMARK    2  A    between atoms: C7_16  and  C8_17 
REMARK    3  A    between atoms: C8_17  and  O2_18 
REMARK    4  A    between atoms: O2_18  and  P1_19 
REMARK    5  A    between atoms: C9_23  and  O6_24 
REMARK    6  A    between atoms: C10_26  and  O7_27 
ROOT
HETATM    1  C6  UNL     1     117.886  56.080  18.033  1.00  0.00     0.262 C 
HETATM    2  O1  UNL     1     117.818  56.662  19.266  1.00  0.00    -0.353 OA
HETATM    3  C7  UNL     1     117.608  58.004  19.148  1.00  0.00     0.180 C 
HETATM    4  C9  UNL     1     117.702  58.379  17.683  1.00  0.00     0.182 C 
HETATM    5  C10 UNL     1     117.395  57.068  17.012  1.00  0.00     0.198 C 
ENDROOT
BRANCH   1   6
HETATM    6  N5  UNL     1     117.131  54.865  18.026  1.00  0.00    -0.297 N 
HETATM    7  C3  UNL     1     116.154  54.454  18.879  1.00  0.00     0.142 A 
HETATM    8  N3  UNL     1     115.641  55.069  19.945  1.00  0.00    -0.336 N 
HETATM    9  C4  UNL     1     115.692  53.204  18.499  1.00  0.00     0.119 A 
HETATM   10  C2  UNL     1     114.670  54.443  20.633  1.00  0.00     0.183 A 
ATOM     11  H3  UNL     1     115.977  55.988  20.231  1.00  0.00     0.168 HD
HETATM   12  N2  UNL     1     114.199  53.217  20.281  1.00  0.00    -0.339 N 
HETATM   13  C1  UNL     1     114.691  52.566  19.212  1.00  0.00     0.148 A 
ATOM     14  H2  UNL     1     113.460  52.784  20.836  1.00  0.00     0.167 HD
HETATM   15  N1  UNL     1     114.242  51.284  18.793  1.00  0.00    -0.080 NA
HETATM   16  N4  UNL     1     116.403  52.876  17.412  1.00  0.00    -0.346 N 
HETATM   17  C5  UNL     1     117.261  53.870  17.131  1.00  0.00     0.188 A 
ATOM     18  H4  UNL     1     116.307  52.009  16.883  1.00  0.00     0.167 HD
ENDBRANCH   1   6
BRANCH   5  19
HETATM   19  O7  UNL     1     118.093  57.008  15.813  1.00  0.00    -0.388 OA
ATOM     20  H7  UNL     1     118.938  57.440  15.850  1.00  0.00     0.210 HD
ENDBRANCH   5  19
BRANCH   3  21
HETATM   21  C8  UNL     1     116.175  58.328  19.570  1.00  0.00     0.217 C 
BRANCH  21  22
HETATM   22  O2  UNL     1     115.949  57.891  20.821  1.00  0.00    -0.280 OA
BRANCH  22  23
HETATM   23  P1  UNL     1     114.840  58.526  21.774  1.00  0.00     0.422 P 
HETATM   24  O3  UNL     1     115.092  60.007  22.546  1.00  0.00    -0.617 OA
HETATM   25  O4  UNL     1     113.496  57.660  22.287  1.00  0.00    -0.617 OA
HETATM   26  O5  UNL     1     114.042  59.212  20.681  1.00  0.00    -0.617 OA
ENDBRANCH  22  23
ENDBRANCH  21  22
ENDBRANCH   3  21
BRANCH   4  27
HETATM   27  O6  UNL     1     119.008  58.722  17.399  1.00  0.00    -0.390 OA
ATOM     28  H6  UNL     1     119.173  59.596  17.734  1.00  0.00     0.210 HD
ENDBRANCH   4  27
TORSDOF 6
ENDMDL
