MODEL 15
REMARK VINA RESULT: -6.983873504      1.859      2.799
REMARK  6 active torsions:
REMARK  status: ('A' for Active; 'I' for Inactive)
REMARK    1  A    between atoms: N5_13  and  C6_14 
REMARK    2  A    between atoms: C7_16  and  C8_17 
REMARK    3  A    between atoms: C8_17  and  O2_18 
REMARK    4  A    between atoms: O2_18  and  P1_19 
REMARK    5  A    between atoms: C9_23  and  O6_24 
REMARK    6  A    between atoms: C10_26  and  O7_27 
ROOT
HETATM    1  C6  UNL     1     117.820  55.853  18.366  1.00  0.00     0.262 C 
HETATM    2  O1  UNL     1     118.051  56.856  19.264  1.00  0.00    -0.353 OA
HETATM    3  C7  UNL     1     118.160  58.054  18.622  1.00  0.00     0.180 C 
HETATM    4  C9  UNL     1     118.158  57.801  17.128  1.00  0.00     0.182 C 
HETATM    5  C10 UNL     1     117.460  56.471  17.044  1.00  0.00     0.198 C 
ENDROOT
BRANCH   1   6
HETATM    6  N5  UNL     1     116.798  54.983  18.860  1.00  0.00    -0.297 N 
HETATM    7  C3  UNL     1     116.418  53.758  18.408  1.00  0.00     0.142 A 
HETATM    8  N3  UNL     1     116.893  53.042  17.388  1.00  0.00    -0.336 N 
HETATM    9  C4  UNL     1     115.381  53.269  19.186  1.00  0.00     0.119 A 
HETATM   10  C2  UNL     1     116.340  51.841  17.142  1.00  0.00     0.183 A 
ATOM     11  H3  UNL     1     117.656  53.396  16.811  1.00  0.00     0.168 HD
HETATM   12  N2  UNL     1     115.322  51.339  17.890  1.00  0.00    -0.339 N 
HETATM   13  C1  UNL     1     114.816  52.031  18.927  1.00  0.00     0.148 A 
ATOM     14  H2  UNL     1     114.935  50.423  17.662  1.00  0.00     0.167 HD
HETATM   15  N1  UNL     1     113.753  51.562  19.746  1.00  0.00    -0.080 NA
HETATM   16  N4  UNL     1     115.148  54.215  20.105  1.00  0.00    -0.346 N 
HETATM   17  C5  UNL     1     115.996  55.238  19.910  1.00  0.00     0.188 A 
ATOM     18  H4  UNL     1     114.439  54.165  20.837  1.00  0.00     0.167 HD
ENDBRANCH   1   6
BRANCH   5  19
HETATM   19  O7  UNL     1     117.968  55.770  15.957  1.00  0.00    -0.388 OA
ATOM     20  H7  UNL     1     118.913  55.824  15.886  1.00  0.00     0.210 HD
ENDBRANCH   5  19
BRANCH   3  21
HETATM   21  C8  UNL     1     116.913  58.892  18.904  1.00  0.00     0.217 C 
BRANCH  21  22
HETATM   22  O2  UNL     1     116.482  58.675  20.158  1.00  0.00    -0.280 OA
BRANCH  22  23
HETATM   23  P1  UNL     1     116.883  59.610  21.386  1.00  0.00     0.422 P 
HETATM   24  O3  UNL     1     118.501  59.922  21.758  1.00  0.00    -0.617 OA
HETATM   25  O4  UNL     1     115.765  60.110  22.535  1.00  0.00    -0.617 OA
HETATM   26  O5  UNL     1     116.783  60.929  20.642  1.00  0.00    -0.617 OA
ENDBRANCH  22  23
ENDBRANCH  21  22
ENDBRANCH   3  21
BRANCH   4  27
HETATM   27  O6  UNL     1     119.463  57.640  16.706  1.00  0.00    -0.390 OA
ATOM     28  H6  UNL     1     119.484  57.695  15.758  1.00  0.00     0.210 HD
ENDBRANCH   4  27
TORSDOF 6
ENDMDL
