MODEL 7
REMARK VINA RESULT: -7.630717466      3.826      6.567
REMARK  6 active torsions:
REMARK  status: ('A' for Active; 'I' for Inactive)
REMARK    1  A    between atoms: N5_13  and  C6_14 
REMARK    2  A    between atoms: C7_16  and  C8_17 
REMARK    3  A    between atoms: C8_17  and  O2_18 
REMARK    4  A    between atoms: O2_18  and  P1_19 
REMARK    5  A    between atoms: C9_23  and  O6_24 
REMARK    6  A    between atoms: C10_26  and  O7_27 
ROOT
HETATM    1  C6  UNL     1     115.967  53.682  19.696  1.00  0.00     0.262 C 
HETATM    2  O1  UNL     1     116.978  53.076  19.007  1.00  0.00    -0.353 OA
HETATM    3  C7  UNL     1     116.480  52.117  18.176  1.00  0.00     0.180 C 
HETATM    4  C9  UNL     1     115.000  51.959  18.455  1.00  0.00     0.182 C 
HETATM    5  C10 UNL     1     114.660  53.293  19.063  1.00  0.00     0.198 C 
ENDROOT
BRANCH   1   6
HETATM    6  N5  UNL     1     116.168  55.098  19.711  1.00  0.00    -0.297 N 
HETATM    7  C3  UNL     1     115.496  56.055  20.406  1.00  0.00     0.142 A 
HETATM    8  N3  UNL     1     114.475  55.932  21.255  1.00  0.00    -0.336 N 
HETATM    9  C4  UNL     1     116.025  57.303  20.121  1.00  0.00     0.119 A 
HETATM   10  C2  UNL     1     113.981  57.047  21.821  1.00  0.00     0.183 A 
ATOM     11  H3  UNL     1     114.080  55.016  21.469  1.00  0.00     0.168 HD
HETATM   12  N2  UNL     1     114.482  58.283  21.557  1.00  0.00    -0.339 N 
HETATM   13  C1  UNL     1     115.511  58.448  20.707  1.00  0.00     0.148 A 
ATOM     14  H2  UNL     1     114.071  59.099  22.012  1.00  0.00     0.167 HD
HETATM   15  N1  UNL     1     116.079  59.712  20.390  1.00  0.00    -0.080 NA
HETATM   16  N4  UNL     1     117.018  57.080  19.250  1.00  0.00    -0.346 N 
HETATM   17  C5  UNL     1     117.102  55.761  19.006  1.00  0.00     0.188 A 
ATOM     18  H4  UNL     1     117.614  57.797  18.837  1.00  0.00     0.167 HD
ENDBRANCH   1   6
BRANCH   5  19
HETATM   19  O7  UNL     1     113.637  53.113  19.986  1.00  0.00    -0.388 OA
ATOM     20  H7  UNL     1     112.910  52.608  19.644  1.00  0.00     0.210 HD
ENDBRANCH   5  19
BRANCH   3  21
HETATM   21  C8  UNL     1     116.583  52.602  16.729  1.00  0.00     0.217 C 
BRANCH  21  22
HETATM   22  O2  UNL     1     117.659  53.392  16.580  1.00  0.00    -0.280 OA
BRANCH  22  23
HETATM   23  P1  UNL     1     117.662  54.684  15.646  1.00  0.00     0.422 P 
HETATM   24  O3  UNL     1     118.761  55.943  15.893  1.00  0.00    -0.617 OA
HETATM   25  O4  UNL     1     116.425  55.006  14.556  1.00  0.00    -0.617 OA
HETATM   26  O5  UNL     1     118.542  54.108  14.552  1.00  0.00    -0.617 OA
ENDBRANCH  22  23
ENDBRANCH  21  22
ENDBRANCH   3  21
BRANCH   4  27
HETATM   27  O6  UNL     1     114.833  50.983  19.416  1.00  0.00    -0.390 OA
ATOM     28  H6  UNL     1     114.213  50.341  19.093  1.00  0.00     0.210 HD
ENDBRANCH   4  27
TORSDOF 6
ENDMDL
