MODEL 5
REMARK VINA RESULT: -7.860580768      3.340      5.680
REMARK  6 active torsions:
REMARK  status: ('A' for Active; 'I' for Inactive)
REMARK    1  A    between atoms: N5_13  and  C6_14 
REMARK    2  A    between atoms: C7_16  and  C8_17 
REMARK    3  A    between atoms: C8_17  and  O2_18 
REMARK    4  A    between atoms: O2_18  and  P1_19 
REMARK    5  A    between atoms: C9_23  and  O6_24 
REMARK    6  A    between atoms: C10_26  and  O7_27 
ROOT
HETATM    1  C6  UNL     1     116.924  54.312  18.416  1.00  0.00     0.262 C 
HETATM    2  O1  UNL     1     117.687  55.276  17.821  1.00  0.00    -0.353 OA
HETATM    3  C7  UNL     1     117.739  55.078  16.473  1.00  0.00     0.180 C 
HETATM    4  C9  UNL     1     117.071  53.756  16.155  1.00  0.00     0.182 C 
HETATM    5  C10 UNL     1     116.169  53.575  17.346  1.00  0.00     0.198 C 
ENDROOT
BRANCH   1   6
HETATM    6  N5  UNL     1     116.058  54.907  19.386  1.00  0.00    -0.297 N 
HETATM    7  C3  UNL     1     115.951  56.210  19.760  1.00  0.00     0.142 A 
HETATM    8  N3  UNL     1     116.620  57.278  19.325  1.00  0.00    -0.336 N 
HETATM    9  C4  UNL     1     114.979  56.341  20.739  1.00  0.00     0.119 A 
HETATM   10  C2  UNL     1     116.324  58.476  19.862  1.00  0.00     0.183 A 
ATOM     11  H3  UNL     1     117.337  57.189  18.606  1.00  0.00     0.168 HD
HETATM   12  N2  UNL     1     115.375  58.631  20.823  1.00  0.00    -0.339 N 
HETATM   13  C1  UNL     1     114.679  57.578  21.287  1.00  0.00     0.148 A 
ATOM     14  H2  UNL     1     115.188  59.561  21.199  1.00  0.00     0.167 HD
HETATM   15  N1  UNL     1     113.676  57.673  22.290  1.00  0.00    -0.080 NA
HETATM   16  N4  UNL     1     114.510  55.104  20.944  1.00  0.00    -0.346 N 
HETATM   17  C5  UNL     1     115.155  54.248  20.135  1.00  0.00     0.188 A 
ATOM     18  H4  UNL     1     113.779  54.852  21.609  1.00  0.00     0.167 HD
ENDBRANCH   1   6
BRANCH   5  19
HETATM   19  O7  UNL     1     116.041  52.216  17.604  1.00  0.00    -0.388 OA
ATOM     20  H7  UNL     1     116.553  51.674  17.016  1.00  0.00     0.210 HD
ENDBRANCH   5  19
BRANCH   3  21
HETATM   21  C8  UNL     1     116.899  56.148  15.774  1.00  0.00     0.217 C 
BRANCH  21  22
HETATM   22  O2  UNL     1     116.838  57.257  16.530  1.00  0.00    -0.280 OA
BRANCH  22  23
HETATM   23  P1  UNL     1     117.349  58.680  16.025  1.00  0.00     0.422 P 
HETATM   24  O3  UNL     1     117.255  59.118  14.396  1.00  0.00    -0.617 OA
HETATM   25  O4  UNL     1     118.251  59.707  17.001  1.00  0.00    -0.617 OA
HETATM   26  O5  UNL     1     116.070  59.441  16.321  1.00  0.00    -0.617 OA
ENDBRANCH  22  23
ENDBRANCH  21  22
ENDBRANCH   3  21
BRANCH   4  27
HETATM   27  O6  UNL     1     118.028  52.762  16.174  1.00  0.00    -0.390 OA
ATOM     28  H6  UNL     1     118.107  52.400  15.300  1.00  0.00     0.210 HD
ENDBRANCH   4  27
TORSDOF 6
ENDMDL
