MODEL 8
REMARK VINA RESULT: -7.517404702      3.895      6.641
REMARK  6 active torsions:
REMARK  status: ('A' for Active; 'I' for Inactive)
REMARK    1  A    between atoms: N5_13  and  C6_14 
REMARK    2  A    between atoms: C7_16  and  C8_17 
REMARK    3  A    between atoms: C8_17  and  O2_18 
REMARK    4  A    between atoms: O2_18  and  P1_19 
REMARK    5  A    between atoms: C9_23  and  O6_24 
REMARK    6  A    between atoms: C10_26  and  O7_27 
ROOT
HETATM    1  C6  UNL     1     115.592  53.329  19.765  1.00  0.00     0.262 C 
HETATM    2  O1  UNL     1     116.745  53.202  19.044  1.00  0.00    -0.353 OA
HETATM    3  C7  UNL     1     116.549  52.382  17.973  1.00  0.00     0.180 C 
HETATM    4  C9  UNL     1     115.166  51.775  18.078  1.00  0.00     0.182 C 
HETATM    5  C10 UNL     1     114.457  52.778  18.948  1.00  0.00     0.198 C 
ENDROOT
BRANCH   1   6
HETATM    6  N5  UNL     1     115.392  54.698  20.126  1.00  0.00    -0.297 N 
HETATM    7  C3  UNL     1     116.145  55.788  19.819  1.00  0.00     0.142 A 
HETATM    8  N3  UNL     1     117.267  55.873  19.104  1.00  0.00    -0.336 N 
HETATM    9  C4  UNL     1     115.581  56.923  20.378  1.00  0.00     0.119 A 
HETATM   10  C2  UNL     1     117.828  57.085  18.943  1.00  0.00     0.183 A 
ATOM     11  H3  UNL     1     117.688  55.041  18.690  1.00  0.00     0.168 HD
HETATM   12  N2  UNL     1     117.295  58.214  19.481  1.00  0.00    -0.339 N 
HETATM   13  C1  UNL     1     116.165  58.169  20.208  1.00  0.00     0.148 A 
ATOM     14  H2  UNL     1     117.759  59.110  19.330  1.00  0.00     0.167 HD
HETATM   15  N1  UNL     1     115.558  59.311  20.797  1.00  0.00    -0.080 NA
HETATM   16  N4  UNL     1     114.485  56.499  21.020  1.00  0.00    -0.346 N 
HETATM   17  C5  UNL     1     114.373  55.169  20.868  1.00  0.00     0.188 A 
ATOM     18  H4  UNL     1     113.839  57.091  21.542  1.00  0.00     0.167 HD
ENDBRANCH   1   6
BRANCH   5  19
HETATM   19  O7  UNL     1     113.507  52.111  19.712  1.00  0.00    -0.388 OA
ATOM     20  H7  UNL     1     112.887  51.618  19.189  1.00  0.00     0.210 HD
ENDBRANCH   5  19
BRANCH   3  21
HETATM   21  C8  UNL     1     116.541  53.219  16.693  1.00  0.00     0.217 C 
BRANCH  21  22
HETATM   22  O2  UNL     1     117.389  54.255  16.810  1.00  0.00    -0.280 OA
BRANCH  22  23
HETATM   23  P1  UNL     1     117.829  55.158  15.573  1.00  0.00     0.422 P 
HETATM   24  O3  UNL     1     119.160  56.195  15.674  1.00  0.00    -0.617 OA
HETATM   25  O4  UNL     1     116.863  55.348  14.212  1.00  0.00    -0.617 OA
HETATM   26  O5  UNL     1     118.680  54.108  14.883  1.00  0.00    -0.617 OA
ENDBRANCH  22  23
ENDBRANCH  21  22
ENDBRANCH   3  21
BRANCH   4  27
HETATM   27  O6  UNL     1     115.258  50.583  18.768  1.00  0.00    -0.390 OA
ATOM     28  H6  UNL     1     114.434  50.119  18.684  1.00  0.00     0.210 HD
ENDBRANCH   4  27
TORSDOF 6
ENDMDL
