MODEL 3
REMARK VINA RESULT: -8.019668223      1.436      2.530
REMARK  6 active torsions:
REMARK  status: ('A' for Active; 'I' for Inactive)
REMARK    1  A    between atoms: N5_13  and  C6_14 
REMARK    2  A    between atoms: C7_16  and  C8_17 
REMARK    3  A    between atoms: C8_17  and  O2_18 
REMARK    4  A    between atoms: O2_18  and  P1_19 
REMARK    5  A    between atoms: C9_23  and  O6_24 
REMARK    6  A    between atoms: C10_26  and  O7_27 
ROOT
HETATM    1  C6  UNL     1     117.607  55.925  18.940  1.00  0.00     0.262 C 
HETATM    2  O1  UNL     1     117.691  56.829  19.960  1.00  0.00    -0.353 OA
HETATM    3  C7  UNL     1     117.777  58.097  19.467  1.00  0.00     0.180 C 
HETATM    4  C9  UNL     1     117.923  58.019  17.961  1.00  0.00     0.182 C 
HETATM    5  C10 UNL     1     117.325  56.671  17.666  1.00  0.00     0.198 C 
ENDROOT
BRANCH   1   6
HETATM    6  N5  UNL     1     116.605  54.949  19.236  1.00  0.00    -0.297 N 
HETATM    7  C3  UNL     1     116.335  53.775  18.605  1.00  0.00     0.142 A 
HETATM    8  N3  UNL     1     116.927  53.221  17.547  1.00  0.00    -0.336 N 
HETATM    9  C4  UNL     1     115.273  53.138  19.229  1.00  0.00     0.119 A 
HETATM   10  C2  UNL     1     116.467  52.036  17.108  1.00  0.00     0.183 A 
ATOM     11  H3  UNL     1     117.708  53.684  17.083  1.00  0.00     0.168 HD
HETATM   12  N2  UNL     1     115.428  51.390  17.702  1.00  0.00    -0.339 N 
HETATM   13  C1  UNL     1     114.805  51.917  18.771  1.00  0.00     0.148 A 
ATOM     14  H2  UNL     1     115.116  50.493  17.331  1.00  0.00     0.167 HD
HETATM   15  N1  UNL     1     113.714  51.294  19.436  1.00  0.00    -0.080 NA
HETATM   16  N4  UNL     1     114.915  53.944  20.236  1.00  0.00    -0.346 N 
HETATM   17  C5  UNL     1     115.712  55.026  20.239  1.00  0.00     0.188 A 
ATOM     18  H4  UNL     1     114.157  53.766  20.895  1.00  0.00     0.167 HD
ENDBRANCH   1   6
BRANCH   5  19
HETATM   19  O7  UNL     1     117.971  56.130  16.561  1.00  0.00    -0.388 OA
ATOM     20  H7  UNL     1     117.820  56.620  15.762  1.00  0.00     0.210 HD
ENDBRANCH   5  19
BRANCH   3  21
HETATM   21  C8  UNL     1     116.457  58.827  19.720  1.00  0.00     0.217 C 
BRANCH  21  22
HETATM   22  O2  UNL     1     116.077  58.668  20.999  1.00  0.00    -0.280 OA
BRANCH  22  23
HETATM   23  P1  UNL     1     114.558  58.461  21.432  1.00  0.00     0.422 P 
HETATM   24  O3  UNL     1     114.109  57.227  22.495  1.00  0.00    -0.617 OA
HETATM   25  O4  UNL     1     113.290  59.255  20.667  1.00  0.00    -0.617 OA
HETATM   26  O5  UNL     1     114.562  59.463  22.572  1.00  0.00    -0.617 OA
ENDBRANCH  22  23
ENDBRANCH  21  22
ENDBRANCH   3  21
BRANCH   4  27
HETATM   27  O6  UNL     1     119.267  57.980  17.650  1.00  0.00    -0.390 OA
ATOM     28  H6  UNL     1     119.390  58.358  16.787  1.00  0.00     0.210 HD
ENDBRANCH   4  27
TORSDOF 6
ENDMDL
