MODEL 7
REMARK VINA RESULT: -8.390851893      3.210      6.733
REMARK  7 active torsions:
REMARK  status: ('A' for Active; 'I' for Inactive)
REMARK    1  A    between atoms: C3_6  and  O1_7 
REMARK    2  A    between atoms: N3_13  and  C5_14 
REMARK    3  A    between atoms: C6_16  and  C7_17 
REMARK    4  A    between atoms: C7_17  and  O4_18 
REMARK    5  A    between atoms: O4_18  and  P1_19 
REMARK    6  A    between atoms: C8_23  and  O8_24 
REMARK    7  A    between atoms: C9_26  and  O9_27 
ROOT
HETATM    1  C5  UNL     1       7.796 -28.325 -24.228  1.00  0.00     0.265 C 
HETATM    2  O3  UNL     1       7.007 -27.550 -23.442  1.00  0.00    -0.353 OA
HETATM    3  C6  UNL     1       7.915 -26.613 -23.058  1.00  0.00     0.180 C 
HETATM    4  C8  UNL     1       8.722 -26.176 -24.251  1.00  0.00     0.182 C 
HETATM    5  C9  UNL     1       8.233 -27.146 -25.260  1.00  0.00     0.198 C 
ENDROOT
BRANCH   1   6
HETATM    6  N3  UNL     1       7.369 -29.343 -25.090  1.00  0.00    -0.259 N 
HETATM    7  C1  UNL     1       8.174 -30.453 -25.338  1.00  0.00     0.091 A 
HETATM    8  N1  UNL     1       9.347 -30.481 -24.889  1.00  0.00    -0.388 N 
HETATM    9  C2  UNL     1       7.687 -31.636 -26.072  1.00  0.00     0.160 A 
ATOM     10  H12 UNL     1       9.937 -31.293 -25.071  1.00  0.00     0.157 HD
ATOM     11  H11 UNL     1       9.684 -29.662 -24.382  1.00  0.00     0.157 HD
HETATM   12  C3  UNL     1       6.276 -31.591 -26.453  1.00  0.00     0.126 A 
HETATM   13  N2  UNL     1       5.461 -30.450 -26.238  1.00  0.00    -0.292 N 
HETATM   14  C4  UNL     1       6.023 -29.309 -25.542  1.00  0.00     0.331 A 
ATOM     15  H2  UNL     1       4.496 -30.432 -26.569  1.00  0.00     0.172 HD
HETATM   16  O2  UNL     1       5.270 -28.313 -25.362  1.00  0.00    -0.246 OA
BRANCH  12  17
HETATM   17  O1  UNL     1       5.757 -32.655 -27.009  1.00  0.00    -0.349 OA
ATOM     18  H1  UNL     1       4.994 -32.540 -27.564  1.00  0.00     0.219 HD
ENDBRANCH  12  17
ENDBRANCH   1   6
BRANCH   5  19
HETATM   19  O9  UNL     1       9.141 -27.653 -26.147  1.00  0.00    -0.388 OA
ATOM     20  H9  UNL     1      10.014 -27.403 -25.867  1.00  0.00     0.210 HD
ENDBRANCH   5  19
BRANCH   3  21
HETATM   21  C7  UNL     1       7.665 -25.510 -22.136  1.00  0.00     0.217 C 
BRANCH  21  22
HETATM   22  O4  UNL     1       6.268 -25.193 -22.125  1.00  0.00    -0.280 OA
BRANCH  22  23
HETATM   23  P1  UNL     1       6.041 -23.675 -21.531  1.00  0.00     0.422 P 
HETATM   24  O5  UNL     1       4.440 -23.126 -21.678  1.00  0.00    -0.617 OA
HETATM   25  O6  UNL     1       5.796 -24.121 -20.084  1.00  0.00    -0.617 OA
HETATM   26  O7  UNL     1       7.227 -22.658 -21.048  1.00  0.00    -0.617 OA
ENDBRANCH  22  23
ENDBRANCH  21  22
ENDBRANCH   3  21
BRANCH   4  27
HETATM   27  O8  UNL     1      10.092 -26.487 -24.051  1.00  0.00    -0.390 OA
ATOM     28  H8  UNL     1      10.535 -26.561 -24.889  1.00  0.00     0.210 HD
ENDBRANCH   4  27
TORSDOF 7
ENDMDL
