MODEL 4
REMARK VINA RESULT: -8.897290433      0.487      1.063
REMARK  7 active torsions:
REMARK  status: ('A' for Active; 'I' for Inactive)
REMARK    1  A    between atoms: C3_6  and  O1_7 
REMARK    2  A    between atoms: N3_13  and  C5_14 
REMARK    3  A    between atoms: C6_16  and  C7_17 
REMARK    4  A    between atoms: C7_17  and  O4_18 
REMARK    5  A    between atoms: O4_18  and  P1_19 
REMARK    6  A    between atoms: C8_23  and  O8_24 
REMARK    7  A    between atoms: C9_26  and  O9_27 
ROOT
HETATM    1  C5  UNL     1       7.788 -26.320 -24.261  1.00  0.00     0.265 C 
HETATM    2  O3  UNL     1       7.315 -27.586 -24.138  1.00  0.00    -0.353 OA
HETATM    3  C6  UNL     1       8.306 -28.264 -24.778  1.00  0.00     0.180 C 
HETATM    4  C8  UNL     1       9.644 -27.744 -24.325  1.00  0.00     0.182 C 
HETATM    5  C9  UNL     1       9.207 -26.586 -23.510  1.00  0.00     0.198 C 
ENDROOT
BRANCH   1   6
HETATM    6  N3  UNL     1       7.303 -25.182 -23.603  1.00  0.00    -0.259 N 
HETATM    7  C1  UNL     1       6.704 -25.284 -22.349  1.00  0.00     0.091 A 
HETATM    8  N1  UNL     1       6.477 -26.419 -21.861  1.00  0.00    -0.388 N 
HETATM    9  C2  UNL     1       6.365 -24.101 -21.536  1.00  0.00     0.160 A 
ATOM     10  H12 UNL     1       6.038 -26.494 -20.943  1.00  0.00     0.157 HD
ATOM     11  H11 UNL     1       6.711 -27.237 -22.423  1.00  0.00     0.157 HD
HETATM   12  C3  UNL     1       6.774 -22.819 -22.107  1.00  0.00     0.126 A 
HETATM   13  N2  UNL     1       7.349 -22.704 -23.399  1.00  0.00    -0.292 N 
HETATM   14  C4  UNL     1       7.618 -23.912 -24.154  1.00  0.00     0.331 A 
ATOM     15  H2  UNL     1       7.569 -21.788 -23.789  1.00  0.00     0.172 HD
HETATM   16  O2  UNL     1       8.135 -23.776 -25.296  1.00  0.00    -0.246 OA
BRANCH  12  17
HETATM   17  O1  UNL     1       6.599 -21.742 -21.384  1.00  0.00    -0.349 OA
ATOM     18  H1  UNL     1       6.569 -20.905 -21.832  1.00  0.00     0.219 HD
ENDBRANCH  12  17
ENDBRANCH   1   6
BRANCH   5  19
HETATM   19  O9  UNL     1       9.957 -25.445 -23.571  1.00  0.00    -0.388 OA
ATOM     20  H9  UNL     1      10.622 -25.479 -22.893  1.00  0.00     0.210 HD
ENDBRANCH   5  19
BRANCH   3  21
HETATM   21  C7  UNL     1       8.335 -29.702 -25.023  1.00  0.00     0.217 C 
BRANCH  21  22
HETATM   22  O4  UNL     1       7.775 -29.986 -26.311  1.00  0.00    -0.280 OA
BRANCH  22  23
HETATM   23  P1  UNL     1       6.270 -30.629 -26.141  1.00  0.00     0.422 P 
HETATM   24  O5  UNL     1       5.222 -30.240 -27.420  1.00  0.00    -0.617 OA
HETATM   25  O6  UNL     1       6.616 -31.978 -26.784  1.00  0.00    -0.617 OA
HETATM   26  O7  UNL     1       5.705 -31.379 -24.802  1.00  0.00    -0.617 OA
ENDBRANCH  22  23
ENDBRANCH  21  22
ENDBRANCH   3  21
BRANCH   4  27
HETATM   27  O8  UNL     1      10.349 -27.194 -25.428  1.00  0.00    -0.390 OA
ATOM     28  H8  UNL     1      10.525 -27.870 -26.071  1.00  0.00     0.210 HD
ENDBRANCH   4  27
TORSDOF 7
ENDMDL
