MODEL 10
REMARK VINA RESULT: -7.969470047      1.635      2.419
REMARK  7 active torsions:
REMARK  status: ('A' for Active; 'I' for Inactive)
REMARK    1  A    between atoms: C3_6  and  O1_7 
REMARK    2  A    between atoms: N3_13  and  C5_14 
REMARK    3  A    between atoms: C6_16  and  C7_17 
REMARK    4  A    between atoms: C7_17  and  O4_18 
REMARK    5  A    between atoms: O4_18  and  P1_19 
REMARK    6  A    between atoms: C8_23  and  O8_24 
REMARK    7  A    between atoms: C9_26  and  O9_27 
ROOT
HETATM    1  C5  UNL     1       7.507 -26.412 -24.279  1.00  0.00     0.265 C 
HETATM    2  O3  UNL     1       6.769 -27.542 -24.417  1.00  0.00    -0.353 OA
HETATM    3  C6  UNL     1       7.629 -28.289 -25.161  1.00  0.00     0.180 C 
HETATM    4  C8  UNL     1       9.018 -28.172 -24.592  1.00  0.00     0.182 C 
HETATM    5  C9  UNL     1       8.789 -27.121 -23.572  1.00  0.00     0.198 C 
ENDROOT
BRANCH   1   6
HETATM    6  N3  UNL     1       7.237 -25.340 -23.418  1.00  0.00    -0.259 N 
HETATM    7  C1  UNL     1       7.582 -24.037 -23.771  1.00  0.00     0.091 A 
HETATM    8  N1  UNL     1       8.258 -23.834 -24.810  1.00  0.00    -0.388 N 
HETATM    9  C2  UNL     1       7.139 -22.864 -22.994  1.00  0.00     0.160 A 
ATOM     10  H12 UNL     1       8.510 -22.880 -25.068  1.00  0.00     0.157 HD
ATOM     11  H11 UNL     1       8.564 -24.645 -25.347  1.00  0.00     0.157 HD
HETATM   12  C3  UNL     1       6.249 -23.164 -21.873  1.00  0.00     0.126 A 
HETATM   13  N2  UNL     1       5.925 -24.489 -21.485  1.00  0.00    -0.292 N 
HETATM   14  C4  UNL     1       6.430 -25.593 -22.278  1.00  0.00     0.331 A 
ATOM     15  H2  UNL     1       5.348 -24.662 -20.663  1.00  0.00     0.172 HD
HETATM   16  O2  UNL     1       6.119 -26.758 -21.909  1.00  0.00    -0.246 OA
BRANCH  12  17
HETATM   17  O1  UNL     1       5.735 -22.158 -21.213  1.00  0.00    -0.349 OA
ATOM     18  H1  UNL     1       5.032 -22.340 -20.600  1.00  0.00     0.219 HD
ENDBRANCH  12  17
ENDBRANCH   1   6
BRANCH   5  19
HETATM   19  O9  UNL     1       9.768 -26.183 -23.395  1.00  0.00    -0.388 OA
ATOM     20  H9  UNL     1      10.209 -26.353 -22.570  1.00  0.00     0.210 HD
ENDBRANCH   5  19
BRANCH   3  21
HETATM   21  C7  UNL     1       7.366 -29.625 -25.685  1.00  0.00     0.217 C 
BRANCH  21  22
HETATM   22  O4  UNL     1       8.298 -29.930 -26.729  1.00  0.00    -0.280 OA
BRANCH  22  23
HETATM   23  P1  UNL     1       9.016 -31.381 -26.435  1.00  0.00     0.422 P 
HETATM   24  O5  UNL     1       9.264 -31.688 -24.783  1.00  0.00    -0.617 OA
HETATM   25  O6  UNL     1       7.713 -32.189 -26.429  1.00  0.00    -0.617 OA
HETATM   26  O7  UNL     1       9.658 -32.369 -27.570  1.00  0.00    -0.617 OA
ENDBRANCH  22  23
ENDBRANCH  21  22
ENDBRANCH   3  21
BRANCH   4  27
HETATM   27  O8  UNL     1       9.888 -27.592 -25.553  1.00  0.00    -0.390 OA
ATOM     28  H8  UNL     1      10.074 -28.219 -26.242  1.00  0.00     0.210 HD
ENDBRANCH   4  27
TORSDOF 7
ENDMDL
