MODEL 2
REMARK VINA RESULT: -9.004142817      1.234      2.139
REMARK  7 active torsions:
REMARK  status: ('A' for Active; 'I' for Inactive)
REMARK    1  A    between atoms: C3_6  and  O1_7 
REMARK    2  A    between atoms: N3_13  and  C5_14 
REMARK    3  A    between atoms: C6_16  and  C7_17 
REMARK    4  A    between atoms: C7_17  and  O4_18 
REMARK    5  A    between atoms: O4_18  and  P1_19 
REMARK    6  A    between atoms: C8_23  and  O8_24 
REMARK    7  A    between atoms: C9_26  and  O9_27 
ROOT
HETATM    1  C5  UNL     1       7.770 -26.356 -24.244  1.00  0.00     0.265 C 
HETATM    2  O3  UNL     1       7.195 -27.575 -24.399  1.00  0.00    -0.353 OA
HETATM    3  C6  UNL     1       8.175 -28.203 -25.103  1.00  0.00     0.180 C 
HETATM    4  C8  UNL     1       9.513 -27.899 -24.483  1.00  0.00     0.182 C 
HETATM    5  C9  UNL     1       9.107 -26.884 -23.481  1.00  0.00     0.198 C 
ENDROOT
BRANCH   1   6
HETATM    6  N3  UNL     1       7.327 -25.327 -23.403  1.00  0.00    -0.259 N 
HETATM    7  C1  UNL     1       7.548 -23.991 -23.732  1.00  0.00     0.091 A 
HETATM    8  N1  UNL     1       8.266 -23.707 -24.723  1.00  0.00    -0.388 N 
HETATM    9  C2  UNL     1       6.927 -22.879 -22.988  1.00  0.00     0.160 A 
ATOM     10  H12 UNL     1       8.429 -22.730 -24.964  1.00  0.00     0.157 HD
ATOM     11  H11 UNL     1       8.695 -24.476 -25.238  1.00  0.00     0.157 HD
HETATM   12  C3  UNL     1       6.002 -23.283 -21.929  1.00  0.00     0.126 A 
HETATM   13  N2  UNL     1       5.802 -24.638 -21.564  1.00  0.00    -0.292 N 
HETATM   14  C4  UNL     1       6.477 -25.674 -22.320  1.00  0.00     0.331 A 
ATOM     15  H2  UNL     1       5.193 -24.880 -20.782  1.00  0.00     0.172 HD
HETATM   16  O2  UNL     1       6.272 -26.870 -21.973  1.00  0.00    -0.246 OA
BRANCH  12  17
HETATM   17  O1  UNL     1       5.337 -22.344 -21.306  1.00  0.00    -0.349 OA
ATOM     18  H1  UNL     1       4.418 -22.232 -21.521  1.00  0.00     0.219 HD
ENDBRANCH  12  17
ENDBRANCH   1   6
BRANCH   5  19
HETATM   19  O9  UNL     1       9.944 -25.823 -23.276  1.00  0.00    -0.388 OA
ATOM     20  H9  UNL     1      10.840 -26.112 -23.402  1.00  0.00     0.210 HD
ENDBRANCH   5  19
BRANCH   3  21
HETATM   21  C7  UNL     1       8.113 -29.565 -25.624  1.00  0.00     0.217 C 
BRANCH  21  22
HETATM   22  O4  UNL     1       7.219 -29.616 -26.743  1.00  0.00    -0.280 OA
BRANCH  22  23
HETATM   23  P1  UNL     1       5.936 -30.584 -26.393  1.00  0.00     0.422 P 
HETATM   24  O5  UNL     1       4.828 -29.873 -25.319  1.00  0.00    -0.617 OA
HETATM   25  O6  UNL     1       5.097 -30.156 -27.602  1.00  0.00    -0.617 OA
HETATM   26  O7  UNL     1       5.793 -32.159 -26.813  1.00  0.00    -0.617 OA
ENDBRANCH  22  23
ENDBRANCH  21  22
ENDBRANCH   3  21
BRANCH   4  27
HETATM   27  O8  UNL     1      10.335 -27.213 -25.415  1.00  0.00    -0.390 OA
ATOM     28  H8  UNL     1      10.370 -27.693 -26.234  1.00  0.00     0.210 HD
ENDBRANCH   4  27
TORSDOF 7
ENDMDL
