MODEL 3
REMARK VINA RESULT: -8.973968873      1.194      1.953
REMARK  7 active torsions:
REMARK  status: ('A' for Active; 'I' for Inactive)
REMARK    1  A    between atoms: C3_6  and  O1_7 
REMARK    2  A    between atoms: N3_13  and  C5_14 
REMARK    3  A    between atoms: C6_16  and  C7_17 
REMARK    4  A    between atoms: C7_17  and  O4_18 
REMARK    5  A    between atoms: O4_18  and  P1_19 
REMARK    6  A    between atoms: C8_23  and  O8_24 
REMARK    7  A    between atoms: C9_26  and  O9_27 
ROOT
HETATM    1  C5  UNL     1       7.765 -26.380 -24.225  1.00  0.00     0.265 C 
HETATM    2  O3  UNL     1       7.202 -27.608 -24.344  1.00  0.00    -0.353 OA
HETATM    3  C6  UNL     1       8.176 -28.240 -25.053  1.00  0.00     0.180 C 
HETATM    4  C8  UNL     1       9.522 -27.907 -24.463  1.00  0.00     0.182 C 
HETATM    5  C9  UNL     1       9.121 -26.876 -23.476  1.00  0.00     0.198 C 
ENDROOT
BRANCH   1   6
HETATM    6  N3  UNL     1       7.324 -25.338 -23.397  1.00  0.00    -0.259 N 
HETATM    7  C1  UNL     1       7.551 -24.008 -23.743  1.00  0.00     0.091 A 
HETATM    8  N1  UNL     1       8.271 -23.739 -24.737  1.00  0.00    -0.388 N 
HETATM    9  C2  UNL     1       6.933 -22.884 -23.014  1.00  0.00     0.160 A 
ATOM     10  H12 UNL     1       8.437 -22.765 -24.990  1.00  0.00     0.157 HD
ATOM     11  H11 UNL     1       8.698 -24.516 -25.242  1.00  0.00     0.157 HD
HETATM   12  C3  UNL     1       6.005 -23.271 -21.951  1.00  0.00     0.126 A 
HETATM   13  N2  UNL     1       5.799 -24.621 -21.569  1.00  0.00    -0.292 N 
HETATM   14  C4  UNL     1       6.472 -25.669 -22.311  1.00  0.00     0.331 A 
ATOM     15  H2  UNL     1       5.189 -24.851 -20.785  1.00  0.00     0.172 HD
HETATM   16  O2  UNL     1       6.262 -26.859 -21.949  1.00  0.00    -0.246 OA
BRANCH  12  17
HETATM   17  O1  UNL     1       5.343 -22.322 -21.341  1.00  0.00    -0.349 OA
ATOM     18  H1  UNL     1       5.398 -21.442 -21.695  1.00  0.00     0.219 HD
ENDBRANCH  12  17
ENDBRANCH   1   6
BRANCH   5  19
HETATM   19  O9  UNL     1       9.949 -25.802 -23.307  1.00  0.00    -0.388 OA
ATOM     20  H9  UNL     1      10.608 -26.022 -22.660  1.00  0.00     0.210 HD
ENDBRANCH   5  19
BRANCH   3  21
HETATM   21  C7  UNL     1       8.121 -29.612 -25.544  1.00  0.00     0.217 C 
BRANCH  21  22
HETATM   22  O4  UNL     1       7.214 -29.696 -26.650  1.00  0.00    -0.280 OA
BRANCH  22  23
HETATM   23  P1  UNL     1       5.887 -30.570 -26.223  1.00  0.00     0.422 P 
HETATM   24  O5  UNL     1       5.868 -32.134 -26.887  1.00  0.00    -0.617 OA
HETATM   25  O6  UNL     1       6.476 -31.095 -24.908  1.00  0.00    -0.617 OA
HETATM   26  O7  UNL     1       4.577 -29.985 -25.438  1.00  0.00    -0.617 OA
ENDBRANCH  22  23
ENDBRANCH  21  22
ENDBRANCH   3  21
BRANCH   4  27
HETATM   27  O8  UNL     1      10.318 -27.231 -25.424  1.00  0.00    -0.390 OA
ATOM     28  H8  UNL     1      10.994 -26.725 -24.987  1.00  0.00     0.210 HD
ENDBRANCH   4  27
TORSDOF 7
ENDMDL
