MODEL 5
REMARK VINA RESULT: -8.653741228      3.328      6.628
REMARK  7 active torsions:
REMARK  status: ('A' for Active; 'I' for Inactive)
REMARK    1  A    between atoms: C3_6  and  O1_7 
REMARK    2  A    between atoms: N3_13  and  C5_14 
REMARK    3  A    between atoms: C6_16  and  C7_17 
REMARK    4  A    between atoms: C7_17  and  O4_18 
REMARK    5  A    between atoms: O4_18  and  P1_19 
REMARK    6  A    between atoms: C8_23  and  O8_24 
REMARK    7  A    between atoms: C9_26  and  O9_27 
ROOT
HETATM    1  C5  UNL     1       7.932 -28.864 -24.737  1.00  0.00     0.265 C 
HETATM    2  O3  UNL     1       7.492 -28.102 -23.705  1.00  0.00    -0.353 OA
HETATM    3  C6  UNL     1       8.571 -27.287 -23.545  1.00  0.00     0.180 C 
HETATM    4  C8  UNL     1       9.044 -26.811 -24.893  1.00  0.00     0.182 C 
HETATM    5  C9  UNL     1       8.182 -27.635 -25.773  1.00  0.00     0.198 C 
ENDROOT
BRANCH   1   6
HETATM    6  N3  UNL     1       7.165 -29.755 -25.500  1.00  0.00    -0.259 N 
HETATM    7  C1  UNL     1       7.702 -30.963 -25.939  1.00  0.00     0.091 A 
HETATM    8  N1  UNL     1       8.923 -31.200 -25.762  1.00  0.00    -0.388 N 
HETATM    9  C2  UNL     1       6.878 -32.014 -26.566  1.00  0.00     0.160 A 
ATOM     10  H12 UNL     1       9.316 -32.085 -26.084  1.00  0.00     0.157 HD
ATOM     11  H11 UNL     1       9.493 -30.474 -25.329  1.00  0.00     0.157 HD
HETATM   12  C3  UNL     1       5.445 -31.726 -26.622  1.00  0.00     0.126 A 
HETATM   13  N2  UNL     1       4.897 -30.483 -26.213  1.00  0.00    -0.292 N 
HETATM   14  C4  UNL     1       5.778 -29.485 -25.641  1.00  0.00     0.331 A 
ATOM     15  H2  UNL     1       3.901 -30.295 -26.321  1.00  0.00     0.172 HD
HETATM   16  O2  UNL     1       5.259 -28.393 -25.281  1.00  0.00    -0.246 OA
BRANCH  12  17
HETATM   17  O1  UNL     1       4.649 -32.664 -27.066  1.00  0.00    -0.349 OA
ATOM     18  H1  UNL     1       3.721 -32.468 -27.129  1.00  0.00     0.219 HD
ENDBRANCH  12  17
ENDBRANCH   1   6
BRANCH   5  19
HETATM   19  O9  UNL     1       8.735 -28.133 -26.920  1.00  0.00    -0.388 OA
ATOM     20  H9  UNL     1       8.148 -27.954 -27.646  1.00  0.00     0.210 HD
ENDBRANCH   5  19
BRANCH   3  21
HETATM   21  C7  UNL     1       8.720 -26.260 -22.520  1.00  0.00     0.217 C 
BRANCH  21  22
HETATM   22  O4  UNL     1       8.605 -24.961 -23.115  1.00  0.00    -0.280 OA
BRANCH  22  23
HETATM   23  P1  UNL     1       7.259 -24.202 -22.550  1.00  0.00     0.422 P 
HETATM   24  O5  UNL     1       6.062 -25.274 -22.000  1.00  0.00    -0.617 OA
HETATM   25  O6  UNL     1       7.791 -24.004 -21.126  1.00  0.00    -0.617 OA
HETATM   26  O7  UNL     1       6.944 -22.603 -22.687  1.00  0.00    -0.617 OA
ENDBRANCH  22  23
ENDBRANCH  21  22
ENDBRANCH   3  21
BRANCH   4  27
HETATM   27  O8  UNL     1      10.371 -27.258 -25.126  1.00  0.00    -0.390 OA
ATOM     28  H8  UNL     1      10.810 -27.418 -24.299  1.00  0.00     0.210 HD
ENDBRANCH   4  27
TORSDOF 7
ENDMDL
