MODEL 6
REMARK VINA RESULT: -8.413306619      3.428      7.027
REMARK  7 active torsions:
REMARK  status: ('A' for Active; 'I' for Inactive)
REMARK    1  A    between atoms: C3_6  and  O1_7 
REMARK    2  A    between atoms: N3_13  and  C5_14 
REMARK    3  A    between atoms: C6_16  and  C7_17 
REMARK    4  A    between atoms: C7_17  and  O4_18 
REMARK    5  A    between atoms: O4_18  and  P1_19 
REMARK    6  A    between atoms: C8_23  and  O8_24 
REMARK    7  A    between atoms: C9_26  and  O9_27 
ROOT
HETATM    1  C5  UNL     1       8.341 -28.751 -23.866  1.00  0.00     0.265 C 
HETATM    2  O3  UNL     1       7.197 -28.026 -23.797  1.00  0.00    -0.353 OA
HETATM    3  C6  UNL     1       7.633 -26.979 -23.045  1.00  0.00     0.180 C 
HETATM    4  C8  UNL     1       8.974 -26.520 -23.554  1.00  0.00     0.182 C 
HETATM    5  C9  UNL     1       9.251 -27.587 -24.546  1.00  0.00     0.198 C 
ENDROOT
BRANCH   1   6
HETATM    6  N3  UNL     1       8.581 -29.852 -24.700  1.00  0.00    -0.259 N 
HETATM    7  C1  UNL     1       7.895 -29.997 -25.904  1.00  0.00     0.091 A 
HETATM    8  N1  UNL     1       6.960 -29.206 -26.184  1.00  0.00    -0.388 N 
HETATM    9  C2  UNL     1       8.257 -31.021 -26.902  1.00  0.00     0.160 A 
ATOM     10  H12 UNL     1       6.458 -29.313 -27.066  1.00  0.00     0.157 HD
ATOM     11  H11 UNL     1       6.710 -28.498 -25.495  1.00  0.00     0.157 HD
HETATM   12  C3  UNL     1       9.435 -31.821 -26.569  1.00  0.00     0.126 A 
HETATM   13  N2  UNL     1      10.114 -31.705 -25.329  1.00  0.00    -0.292 N 
HETATM   14  C4  UNL     1       9.676 -30.699 -24.383  1.00  0.00     0.331 A 
ATOM     15  H2  UNL     1      10.897 -32.320 -25.107  1.00  0.00     0.172 HD
HETATM   16  O2  UNL     1      10.305 -30.617 -23.292  1.00  0.00    -0.246 OA
BRANCH  12  17
HETATM   17  O1  UNL     1       9.871 -32.671 -27.463  1.00  0.00    -0.349 OA
ATOM     18  H1  UNL     1      10.684 -32.468 -27.912  1.00  0.00     0.219 HD
ENDBRANCH  12  17
ENDBRANCH   1   6
BRANCH   5  19
HETATM   19  O9  UNL     1      10.537 -28.039 -24.652  1.00  0.00    -0.388 OA
ATOM     20  H9  UNL     1      10.784 -28.044 -25.569  1.00  0.00     0.210 HD
ENDBRANCH   5  19
BRANCH   3  21
HETATM   21  C7  UNL     1       6.816 -25.864 -22.579  1.00  0.00     0.217 C 
BRANCH  21  22
HETATM   22  O4  UNL     1       7.586 -24.656 -22.601  1.00  0.00    -0.280 OA
BRANCH  22  23
HETATM   23  P1  UNL     1       6.737 -23.436 -21.895  1.00  0.00     0.422 P 
HETATM   24  O5  UNL     1       5.337 -23.966 -21.092  1.00  0.00    -0.617 OA
HETATM   25  O6  UNL     1       7.536 -23.443 -20.586  1.00  0.00    -0.617 OA
HETATM   26  O7  UNL     1       7.025 -21.839 -22.097  1.00  0.00    -0.617 OA
ENDBRANCH  22  23
ENDBRANCH  21  22
ENDBRANCH   3  21
BRANCH   4  27
HETATM   27  O8  UNL     1       9.956 -26.673 -22.541  1.00  0.00    -0.390 OA
ATOM     28  H8  UNL     1      10.825 -26.587 -22.915  1.00  0.00     0.210 HD
ENDBRANCH   4  27
TORSDOF 7
ENDMDL
