MODEL 6
REMARK VINA RESULT: -8.871600130      1.026      1.514
REMARK  10 active torsions:
REMARK  status: ('A' for Active; 'I' for Inactive)
REMARK    1  A    between atoms: C1_2  and  C2_4 
REMARK    2  A    between atoms: C2_4  and  O3_5 
REMARK    3  A    between atoms: O3_5  and  C3_6 
REMARK    4  A    between atoms: C4_7  and  C5_8 
REMARK    5  A    between atoms: C6_12  and  C7_13 
REMARK    6  A    between atoms: C11_17  and  N1_18 
REMARK    7  A    between atoms: N1_18  and  C12_20 
REMARK    8  A    between atoms: N2_23  and  S2_24 
REMARK    9  A    between atoms: S2_24  and  C15_27 
REMARK   10  A    between atoms: C15_27  and  C16_28 
ROOT
HETATM    1  C7  UNL     1      45.788  11.596   0.923  1.00  0.00    -0.015 A 
HETATM    2  C8  UNL     1      44.912  10.724   0.369  1.00  0.00     0.013 A 
HETATM    3  C9  UNL     1      45.226   9.385   0.107  1.00  0.00     0.003 A 
HETATM    4  C10 UNL     1      46.479   8.917   0.419  1.00  0.00     0.029 A 
HETATM    5  C11 UNL     1      47.390   9.783   0.983  1.00  0.00     0.029 A 
HETATM    6  C24 UNL     1      47.060  11.102   1.234  1.00  0.00     0.042 A 
ENDROOT
BRANCH   5   7
HETATM    7  N1  UNL     1      48.692   9.318   1.315  1.00  0.00    -0.385 N 
ATOM      8  H1  UNL     1      49.478   9.950   1.160  1.00  0.00     0.160 HD
BRANCH   7   9
HETATM    9  C12 UNL     1      48.975   8.011   1.856  1.00  0.00     0.084 C 
HETATM   10  C13 UNL     1      50.141   7.314   1.231  1.00  0.00     0.045 C 
HETATM   11  C14 UNL     1      51.256   7.178   2.283  1.00  0.00     0.137 C 
HETATM   12  N2  UNL     1      50.840   6.443   3.392  1.00  0.00    -0.307 N 
HETATM   13  C22 UNL     1      49.556   6.750   3.915  1.00  0.00     0.137 C 
HETATM   14  C23 UNL     1      49.025   8.041   3.369  1.00  0.00     0.045 C 
BRANCH  12  15
HETATM   15  S2  UNL     1      51.992   6.003   4.497  1.00  0.00     0.251 S 
HETATM   16  O6  UNL     1      53.062   5.183   3.757  1.00  0.00    -0.201 OA
HETATM   17  O7  UNL     1      52.769   7.224   5.024  1.00  0.00    -0.201 OA
BRANCH  15  18
HETATM   18  C15 UNL     1      51.439   5.144   5.905  1.00  0.00     0.142 C 
BRANCH  18  19
HETATM   19  C16 UNL     1      51.568   3.704   5.916  1.00  0.00    -0.024 A 
HETATM   20  C17 UNL     1      50.524   2.904   5.427  1.00  0.00     0.012 A 
HETATM   21  C18 UNL     1      50.593   1.537   5.421  1.00  0.00     0.001 A 
HETATM   22  C19 UNL     1      51.721   0.919   5.911  1.00  0.00     0.000 A 
HETATM   23  C20 UNL     1      52.773   1.662   6.403  1.00  0.00     0.001 A 
HETATM   24  C21 UNL     1      52.672   3.043   6.395  1.00  0.00     0.012 A 
ENDBRANCH  18  19
ENDBRANCH  15  18
ENDBRANCH  12  15
ENDBRANCH   7   9
ENDBRANCH   5   7
BRANCH   1  25
HETATM   25  C6  UNL     1      45.507  13.020   1.227  1.00  0.00     0.036 A 
HETATM   26  S1  UNL     1      44.588  14.077   0.199  1.00  0.00    -0.078 SA
HETATM   27  C4  UNL     1      44.668  15.501   1.134  1.00  0.00     0.117 A 
HETATM   28  C3  UNL     1      45.406  15.119   2.214  1.00  0.00     0.112 A 
HETATM   29  C25 UNL     1      45.833  13.832   2.252  1.00  0.00     0.064 A 
HETATM   30 BR1  UNL     1      46.893  13.214   3.775  1.00  0.00    -0.047 Br
BRANCH  27  31
HETATM   31  C5  UNL     1      43.991  16.793   0.845  1.00  0.00     0.219 C 
HETATM   32  O4  UNL     1      43.658  17.523   1.802  1.00  0.00    -0.643 OA
HETATM   33  O5  UNL     1      43.760  17.135  -0.496  1.00  0.00    -0.643 OA
ENDBRANCH  27  31
BRANCH  28  34
HETATM   34  O3  UNL     1      45.704  16.062   3.231  1.00  0.00    -0.338 OA
BRANCH  34  35
HETATM   35  C2  UNL     1      46.871  16.801   3.204  1.00  0.00     0.288 C 
BRANCH  35  36
HETATM   36  C1  UNL     1      47.361  17.371   4.448  1.00  0.00     0.198 C 
HETATM   37  O1  UNL     1      46.696  17.724   5.427  1.00  0.00    -0.646 OA
HETATM   38  O2  UNL     1      48.765  17.543   4.558  1.00  0.00    -0.646 OA
ENDBRANCH  35  36
ENDBRANCH  34  35
ENDBRANCH  28  34
ENDBRANCH   1  25
TORSDOF 10
ENDMDL
