MODEL 5
REMARK VINA RESULT: -8.874658996      1.203      1.896
REMARK  10 active torsions:
REMARK  status: ('A' for Active; 'I' for Inactive)
REMARK    1  A    between atoms: C1_2  and  C2_4 
REMARK    2  A    between atoms: C2_4  and  O3_5 
REMARK    3  A    between atoms: O3_5  and  C3_6 
REMARK    4  A    between atoms: C4_7  and  C5_8 
REMARK    5  A    between atoms: C6_12  and  C7_13 
REMARK    6  A    between atoms: C11_17  and  N1_18 
REMARK    7  A    between atoms: N1_18  and  C12_20 
REMARK    8  A    between atoms: N2_23  and  S2_24 
REMARK    9  A    between atoms: S2_24  and  C15_27 
REMARK   10  A    between atoms: C15_27  and  C16_28 
ROOT
HETATM    1  C7  UNL     1      45.508  11.597   0.541  1.00  0.00    -0.015 A 
HETATM    2  C8  UNL     1      44.534  10.926  -0.120  1.00  0.00     0.013 A 
HETATM    3  C9  UNL     1      44.704   9.632  -0.627  1.00  0.00     0.003 A 
HETATM    4  C10 UNL     1      45.910   8.998  -0.457  1.00  0.00     0.029 A 
HETATM    5  C11 UNL     1      46.918   9.658   0.211  1.00  0.00     0.029 A 
HETATM    6  C24 UNL     1      46.730  10.936   0.705  1.00  0.00     0.042 A 
ENDROOT
BRANCH   5   7
HETATM    7  N1  UNL     1      48.175   9.019   0.400  1.00  0.00    -0.385 N 
ATOM      8  H1  UNL     1      48.603   8.562  -0.406  1.00  0.00     0.160 HD
BRANCH   7   9
HETATM    9  C12 UNL     1      48.884   8.974   1.655  1.00  0.00     0.084 C 
HETATM   10  C13 UNL     1      48.122   8.351   2.782  1.00  0.00     0.045 C 
HETATM   11  C14 UNL     1      48.824   7.042   3.186  1.00  0.00     0.137 C 
HETATM   12  N2  UNL     1      50.136   7.260   3.601  1.00  0.00    -0.307 N 
HETATM   13  C22 UNL     1      50.918   8.140   2.808  1.00  0.00     0.137 C 
HETATM   14  C23 UNL     1      50.279   8.413   1.480  1.00  0.00     0.045 C 
BRANCH  12  15
HETATM   15  S2  UNL     1      50.942   5.991   4.296  1.00  0.00     0.251 S 
HETATM   16  O6  UNL     1      51.445   5.080   3.164  1.00  0.00    -0.201 OA
HETATM   17  O7  UNL     1      52.235   6.454   4.992  1.00  0.00    -0.201 OA
BRANCH  15  18
HETATM   18  C15 UNL     1      50.069   5.061   5.479  1.00  0.00     0.142 C 
BRANCH  18  19
HETATM   19  C16 UNL     1      50.576   3.750   5.821  1.00  0.00    -0.024 A 
HETATM   20  C17 UNL     1      49.920   2.602   5.351  1.00  0.00     0.012 A 
HETATM   21  C18 UNL     1      50.355   1.339   5.651  1.00  0.00     0.001 A 
HETATM   22  C19 UNL     1      51.471   1.183   6.441  1.00  0.00     0.000 A 
HETATM   23  C20 UNL     1      52.149   2.281   6.927  1.00  0.00     0.001 A 
HETATM   24  C21 UNL     1      51.684   3.545   6.605  1.00  0.00     0.012 A 
ENDBRANCH  18  19
ENDBRANCH  15  18
ENDBRANCH  12  15
ENDBRANCH   7   9
ENDBRANCH   5   7
BRANCH   1  25
HETATM   25  C6  UNL     1      45.381  12.963   1.103  1.00  0.00     0.036 A 
HETATM   26  S1  UNL     1      44.459  14.241   0.369  1.00  0.00    -0.078 SA
HETATM   27  C4  UNL     1      44.751  15.474   1.510  1.00  0.00     0.117 A 
HETATM   28  C3  UNL     1      45.557  14.864   2.424  1.00  0.00     0.112 A 
HETATM   29  C25 UNL     1      45.874  13.563   2.204  1.00  0.00     0.064 A 
HETATM   30 BR1  UNL     1      47.021  12.623   3.478  1.00  0.00    -0.047 Br
BRANCH  27  31
HETATM   31  C5  UNL     1      44.162  16.840   1.513  1.00  0.00     0.219 C 
HETATM   32  O4  UNL     1      42.923  16.958   1.406  1.00  0.00    -0.643 OA
HETATM   33  O5  UNL     1      45.029  17.936   1.638  1.00  0.00    -0.643 OA
ENDBRANCH  27  31
BRANCH  28  34
HETATM   34  O3  UNL     1      46.032  15.595   3.542  1.00  0.00    -0.338 OA
BRANCH  34  35
HETATM   35  C2  UNL     1      47.224  16.291   3.490  1.00  0.00     0.288 C 
BRANCH  35  36
HETATM   36  C1  UNL     1      47.427  17.393   4.415  1.00  0.00     0.198 C 
HETATM   37  O1  UNL     1      48.490  17.766   4.920  1.00  0.00    -0.646 OA
HETATM   38  O2  UNL     1      46.273  18.131   4.786  1.00  0.00    -0.646 OA
ENDBRANCH  35  36
ENDBRANCH  34  35
ENDBRANCH  28  34
ENDBRANCH   1  25
TORSDOF 10
ENDMDL
