MODEL 3
REMARK VINA RESULT: -9.007121533      2.002      2.698
REMARK  10 active torsions:
REMARK  status: ('A' for Active; 'I' for Inactive)
REMARK    1  A    between atoms: C1_2  and  C2_4 
REMARK    2  A    between atoms: C2_4  and  O3_5 
REMARK    3  A    between atoms: O3_5  and  C3_6 
REMARK    4  A    between atoms: C4_7  and  C5_8 
REMARK    5  A    between atoms: C6_12  and  C7_13 
REMARK    6  A    between atoms: C11_17  and  N1_18 
REMARK    7  A    between atoms: N1_18  and  C12_20 
REMARK    8  A    between atoms: N2_23  and  S2_24 
REMARK    9  A    between atoms: S2_24  and  C15_27 
REMARK   10  A    between atoms: C15_27  and  C16_28 
ROOT
HETATM    1  C7  UNL     1      45.263  12.283   0.409  1.00  0.00    -0.015 A 
HETATM    2  C8  UNL     1      44.548  12.131  -0.732  1.00  0.00     0.013 A 
HETATM    3  C9  UNL     1      44.495  10.929  -1.448  1.00  0.00     0.003 A 
HETATM    4  C10 UNL     1      45.196   9.842  -0.986  1.00  0.00     0.029 A 
HETATM    5  C11 UNL     1      45.931   9.969   0.171  1.00  0.00     0.029 A 
HETATM    6  C24 UNL     1      45.970  11.165   0.864  1.00  0.00     0.042 A 
ENDROOT
BRANCH   5   7
HETATM    7  N1  UNL     1      46.662   8.855   0.668  1.00  0.00    -0.385 N 
ATOM      8  H1  UNL     1      46.283   7.923   0.499  1.00  0.00     0.160 HD
BRANCH   7   9
HETATM    9  C12 UNL     1      47.904   8.956   1.394  1.00  0.00     0.084 C 
HETATM   10  C13 UNL     1      47.909   8.270   2.723  1.00  0.00     0.045 C 
HETATM   11  C14 UNL     1      48.895   7.089   2.665  1.00  0.00     0.137 C 
HETATM   12  N2  UNL     1      50.193   7.507   2.374  1.00  0.00    -0.307 N 
HETATM   13  C22 UNL     1      50.337   8.461   1.332  1.00  0.00     0.137 C 
HETATM   14  C23 UNL     1      49.086   8.594   0.519  1.00  0.00     0.045 C 
BRANCH  12  15
HETATM   15  S2  UNL     1      51.408   6.391   2.515  1.00  0.00     0.251 S 
HETATM   16  O6  UNL     1      50.789   4.997   2.325  1.00  0.00    -0.201 OA
HETATM   17  O7  UNL     1      52.417   6.503   1.357  1.00  0.00    -0.201 OA
BRANCH  15  18
HETATM   18  C15 UNL     1      52.350   6.440   3.977  1.00  0.00     0.142 C 
BRANCH  18  19
HETATM   19  C16 UNL     1      52.332   5.277   4.836  1.00  0.00    -0.024 A 
HETATM   20  C17 UNL     1      51.338   5.148   5.817  1.00  0.00     0.012 A 
HETATM   21  C18 UNL     1      51.279   4.070   6.660  1.00  0.00     0.001 A 
HETATM   22  C19 UNL     1      52.225   3.077   6.547  1.00  0.00     0.000 A 
HETATM   23  C20 UNL     1      53.223   3.159   5.598  1.00  0.00     0.001 A 
HETATM   24  C21 UNL     1      53.254   4.262   4.761  1.00  0.00     0.012 A 
ENDBRANCH  18  19
ENDBRANCH  15  18
ENDBRANCH  12  15
ENDBRANCH   7   9
ENDBRANCH   5   7
BRANCH   1  25
HETATM   25  C6  UNL     1      45.351  13.528   1.209  1.00  0.00     0.036 A 
HETATM   26  S1  UNL     1      44.497  14.994   0.834  1.00  0.00    -0.078 SA
HETATM   27  C4  UNL     1      45.050  15.966   2.121  1.00  0.00     0.117 A 
HETATM   28  C3  UNL     1      45.882  15.131   2.803  1.00  0.00     0.112 A 
HETATM   29  C25 UNL     1      46.028  13.870   2.323  1.00  0.00     0.064 A 
HETATM   30 BR1  UNL     1      47.204  12.615   3.254  1.00  0.00    -0.047 Br
BRANCH  27  31
HETATM   31  C5  UNL     1      44.617  17.354   2.436  1.00  0.00     0.219 C 
HETATM   32  O4  UNL     1      44.602  18.200   1.517  1.00  0.00    -0.643 OA
HETATM   33  O5  UNL     1      44.244  17.650   3.756  1.00  0.00    -0.643 OA
ENDBRANCH  27  31
BRANCH  28  34
HETATM   34  O3  UNL     1      46.559  15.600   3.958  1.00  0.00    -0.338 OA
BRANCH  34  35
HETATM   35  C2  UNL     1      47.671  16.413   3.857  1.00  0.00     0.288 C 
BRANCH  35  36
HETATM   36  C1  UNL     1      47.794  17.537   4.770  1.00  0.00     0.198 C 
HETATM   37  O1  UNL     1      48.744  18.319   4.875  1.00  0.00    -0.646 OA
HETATM   38  O2  UNL     1      46.700  17.769   5.643  1.00  0.00    -0.646 OA
ENDBRANCH  35  36
ENDBRANCH  34  35
ENDBRANCH  28  34
ENDBRANCH   1  25
TORSDOF 10
ENDMDL
