MODEL 1
REMARK VINA RESULT: -9.101408080      0.000      0.000
REMARK  10 active torsions:
REMARK  status: ('A' for Active; 'I' for Inactive)
REMARK    1  A    between atoms: C1_2  and  C2_4 
REMARK    2  A    between atoms: C2_4  and  O3_5 
REMARK    3  A    between atoms: O3_5  and  C3_6 
REMARK    4  A    between atoms: C4_7  and  C5_8 
REMARK    5  A    between atoms: C6_12  and  C7_13 
REMARK    6  A    between atoms: C11_17  and  N1_18 
REMARK    7  A    between atoms: N1_18  and  C12_20 
REMARK    8  A    between atoms: N2_23  and  S2_24 
REMARK    9  A    between atoms: S2_24  and  C15_27 
REMARK   10  A    between atoms: C15_27  and  C16_28 
ROOT
HETATM    1  C7  UNL     1      46.057  11.559   1.270  1.00  0.00    -0.015 A 
HETATM    2  C8  UNL     1      45.490  10.718   0.372  1.00  0.00     0.013 A 
HETATM    3  C9  UNL     1      45.891   9.386   0.211  1.00  0.00     0.003 A 
HETATM    4  C10 UNL     1      46.907   8.893   0.991  1.00  0.00     0.029 A 
HETATM    5  C11 UNL     1      47.502   9.728   1.912  1.00  0.00     0.029 A 
HETATM    6  C24 UNL     1      47.091  11.040   2.056  1.00  0.00     0.042 A 
ENDROOT
BRANCH   5   7
HETATM    7  N1  UNL     1      48.555   9.236   2.732  1.00  0.00    -0.385 N 
ATOM      8  H1  UNL     1      49.082   9.911   3.287  1.00  0.00     0.160 HD
BRANCH   7   9
HETATM    9  C12 UNL     1      48.928   7.846   2.830  1.00  0.00     0.084 C 
HETATM   10  C13 UNL     1      50.260   7.511   2.238  1.00  0.00     0.045 C 
HETATM   11  C14 UNL     1      51.208   7.081   3.371  1.00  0.00     0.137 C 
HETATM   12  N2  UNL     1      50.732   5.964   4.055  1.00  0.00    -0.307 N 
HETATM   13  C22 UNL     1      49.353   5.965   4.395  1.00  0.00     0.137 C 
HETATM   14  C23 UNL     1      48.740   7.324   4.239  1.00  0.00     0.045 C 
BRANCH  12  15
HETATM   15  S2  UNL     1      51.750   5.235   5.138  1.00  0.00     0.251 S 
HETATM   16  O6  UNL     1      53.126   5.910   5.016  1.00  0.00    -0.201 OA
HETATM   17  O7  UNL     1      51.331   5.522   6.592  1.00  0.00    -0.201 OA
BRANCH  15  18
HETATM   18  C15 UNL     1      51.911   3.506   5.020  1.00  0.00     0.142 C 
BRANCH  18  19
HETATM   19  C16 UNL     1      50.805   2.689   5.467  1.00  0.00    -0.024 A 
HETATM   20  C17 UNL     1      50.764   2.234   6.794  1.00  0.00     0.012 A 
HETATM   21  C18 UNL     1      49.744   1.453   7.266  1.00  0.00     0.001 A 
HETATM   22  C19 UNL     1      48.721   1.097   6.415  1.00  0.00     0.000 A 
HETATM   23  C20 UNL     1      48.718   1.519   5.103  1.00  0.00     0.001 A 
HETATM   24  C21 UNL     1      49.765   2.308   4.657  1.00  0.00     0.012 A 
ENDBRANCH  18  19
ENDBRANCH  15  18
ENDBRANCH  12  15
ENDBRANCH   7   9
ENDBRANCH   5   7
BRANCH   1  25
HETATM   25  C6  UNL     1      45.670  12.974   1.485  1.00  0.00     0.036 A 
HETATM   26  S1  UNL     1      44.652  13.885   0.411  1.00  0.00    -0.078 SA
HETATM   27  C4  UNL     1      44.635  15.370   1.249  1.00  0.00     0.117 A 
HETATM   28  C3  UNL     1      45.419  15.121   2.334  1.00  0.00     0.112 A 
HETATM   29  C25 UNL     1      45.947  13.876   2.448  1.00  0.00     0.064 A 
HETATM   30 BR1  UNL     1      47.080  13.447   3.983  1.00  0.00    -0.047 Br
BRANCH  27  31
HETATM   31  C5  UNL     1      43.852  16.583   0.891  1.00  0.00     0.219 C 
HETATM   32  O4  UNL     1      43.499  16.739  -0.297  1.00  0.00    -0.643 OA
HETATM   33  O5  UNL     1      43.545  17.500   1.908  1.00  0.00    -0.643 OA
ENDBRANCH  27  31
BRANCH  28  34
HETATM   34  O3  UNL     1      45.659  16.150   3.280  1.00  0.00    -0.338 OA
BRANCH  34  35
HETATM   35  C2  UNL     1      46.801  16.925   3.223  1.00  0.00     0.288 C 
BRANCH  35  36
HETATM   36  C1  UNL     1      47.354  17.439   4.465  1.00  0.00     0.198 C 
HETATM   37  O1  UNL     1      46.735  17.806   5.469  1.00  0.00    -0.646 OA
HETATM   38  O2  UNL     1      48.768  17.534   4.539  1.00  0.00    -0.646 OA
ENDBRANCH  35  36
ENDBRANCH  34  35
ENDBRANCH  28  34
ENDBRANCH   1  25
TORSDOF 10
ENDMDL
