MODEL 15
REMARK VINA RESULT: -8.525309345      4.615      6.668
REMARK  10 active torsions:
REMARK  status: ('A' for Active; 'I' for Inactive)
REMARK    1  A    between atoms: C1_2  and  C2_4 
REMARK    2  A    between atoms: C2_4  and  O3_5 
REMARK    3  A    between atoms: O3_5  and  C3_6 
REMARK    4  A    between atoms: C4_7  and  C5_8 
REMARK    5  A    between atoms: C6_12  and  C7_13 
REMARK    6  A    between atoms: C11_17  and  N1_18 
REMARK    7  A    between atoms: N1_18  and  C12_20 
REMARK    8  A    between atoms: N2_23  and  S2_24 
REMARK    9  A    between atoms: S2_24  and  C15_27 
REMARK   10  A    between atoms: C15_27  and  C16_28 
ROOT
HETATM    1  C7  UNL     1      44.788  12.909  -0.017  1.00  0.00    -0.015 A 
HETATM    2  C8  UNL     1      44.469  13.113  -1.318  1.00  0.00     0.013 A 
HETATM    3  C9  UNL     1      44.296  12.070  -2.236  1.00  0.00     0.003 A 
HETATM    4  C10 UNL     1      44.455  10.773  -1.816  1.00  0.00     0.029 A 
HETATM    5  C11 UNL     1      44.780  10.537  -0.498  1.00  0.00     0.029 A 
HETATM    6  C24 UNL     1      44.946  11.580   0.394  1.00  0.00     0.042 A 
ENDROOT
BRANCH   5   7
HETATM    7  N1  UNL     1      44.948   9.201  -0.042  1.00  0.00    -0.385 N 
ATOM      8  H1  UNL     1      44.132   8.722   0.342  1.00  0.00     0.160 HD
BRANCH   7   9
HETATM    9  C12 UNL     1      46.195   8.477  -0.085  1.00  0.00     0.084 C 
HETATM   10  C13 UNL     1      46.776   8.314  -1.454  1.00  0.00     0.045 C 
HETATM   11  C14 UNL     1      48.089   9.113  -1.529  1.00  0.00     0.137 C 
HETATM   12  N2  UNL     1      49.023   8.672  -0.593  1.00  0.00    -0.307 N 
HETATM   13  C22 UNL     1      48.542   8.430   0.721  1.00  0.00     0.137 C 
HETATM   14  C23 UNL     1      47.179   9.013   0.934  1.00  0.00     0.045 C 
BRANCH  12  15
HETATM   15  S2  UNL     1      50.565   9.264  -0.709  1.00  0.00     0.251 S 
HETATM   16  O6  UNL     1      50.913   9.932   0.631  1.00  0.00    -0.201 OA
HETATM   17  O7  UNL     1      51.600   8.130  -0.829  1.00  0.00    -0.201 OA
BRANCH  15  18
HETATM   18  C15 UNL     1      50.891  10.350  -2.029  1.00  0.00     0.142 C 
BRANCH  18  19
HETATM   19  C16 UNL     1      51.689  11.525  -1.759  1.00  0.00    -0.024 A 
HETATM   20  C17 UNL     1      51.118  12.801  -1.880  1.00  0.00     0.012 A 
HETATM   21  C18 UNL     1      51.831  13.945  -1.643  1.00  0.00     0.001 A 
HETATM   22  C19 UNL     1      53.154  13.848  -1.275  1.00  0.00     0.000 A 
HETATM   23  C20 UNL     1      53.760  12.616  -1.144  1.00  0.00     0.001 A 
HETATM   24  C21 UNL     1      53.011  11.478  -1.391  1.00  0.00     0.012 A 
ENDBRANCH  18  19
ENDBRANCH  15  18
ENDBRANCH  12  15
ENDBRANCH   7   9
ENDBRANCH   5   7
BRANCH   1  25
HETATM   25  C6  UNL     1      44.978  13.973   0.998  1.00  0.00     0.036 A 
HETATM   26  S1  UNL     1      44.173  15.512   0.965  1.00  0.00    -0.078 SA
HETATM   27  C4  UNL     1      44.842  16.198   2.376  1.00  0.00     0.117 A 
HETATM   28  C3  UNL     1      45.672  15.218   2.831  1.00  0.00     0.112 A 
HETATM   29  C25 UNL     1      45.732  14.070   2.111  1.00  0.00     0.064 A 
HETATM   30 BR1  UNL     1      46.899  12.619   2.709  1.00  0.00    -0.047 Br
BRANCH  27  31
HETATM   31  C5  UNL     1      44.492  17.513   2.976  1.00  0.00     0.219 C 
HETATM   32  O4  UNL     1      44.516  18.529   2.250  1.00  0.00    -0.643 OA
HETATM   33  O5  UNL     1      44.149  17.551   4.336  1.00  0.00    -0.643 OA
ENDBRANCH  27  31
BRANCH  28  34
HETATM   34  O3  UNL     1      46.433  15.432   4.008  1.00  0.00    -0.338 OA
BRANCH  34  35
HETATM   35  C2  UNL     1      47.555  16.238   4.001  1.00  0.00     0.288 C 
BRANCH  35  36
HETATM   36  C1  UNL     1      47.614  17.355   4.928  1.00  0.00     0.198 C 
HETATM   37  O1  UNL     1      46.731  17.738   5.701  1.00  0.00    -0.646 OA
HETATM   38  O2  UNL     1      48.824  18.096   4.954  1.00  0.00    -0.646 OA
ENDBRANCH  35  36
ENDBRANCH  34  35
ENDBRANCH  28  34
ENDBRANCH   1  25
TORSDOF 10
ENDMDL
