MODEL 8
REMARK VINA RESULT: -8.860267698      4.495      5.514
REMARK  10 active torsions:
REMARK  status: ('A' for Active; 'I' for Inactive)
REMARK    1  A    between atoms: C1_2  and  C2_4 
REMARK    2  A    between atoms: C2_4  and  O3_5 
REMARK    3  A    between atoms: O3_5  and  C3_6 
REMARK    4  A    between atoms: C4_7  and  C5_8 
REMARK    5  A    between atoms: C6_12  and  C7_13 
REMARK    6  A    between atoms: C11_17  and  N1_18 
REMARK    7  A    between atoms: N1_18  and  C12_20 
REMARK    8  A    between atoms: N2_23  and  S2_24 
REMARK    9  A    between atoms: S2_24  and  C15_27 
REMARK   10  A    between atoms: C15_27  and  C16_28 
ROOT
HETATM    1  C7  UNL     1      45.166  12.352   0.197  1.00  0.00    -0.015 A 
HETATM    2  C8  UNL     1      44.519  11.206   0.522  1.00  0.00     0.013 A 
HETATM    3  C9  UNL     1      44.461  10.093  -0.325  1.00  0.00     0.003 A 
HETATM    4  C10 UNL     1      45.084  10.147  -1.548  1.00  0.00     0.029 A 
HETATM    5  C11 UNL     1      45.748  11.300  -1.904  1.00  0.00     0.029 A 
HETATM    6  C24 UNL     1      45.794  12.389  -1.053  1.00  0.00     0.042 A 
ENDROOT
BRANCH   5   7
HETATM    7  N1  UNL     1      46.401  11.376  -3.165  1.00  0.00    -0.385 N 
ATOM      8  H1  UNL     1      45.868  11.737  -3.956  1.00  0.00     0.160 HD
BRANCH   7   9
HETATM    9  C12 UNL     1      47.767  10.976  -3.398  1.00  0.00     0.084 C 
HETATM   10  C13 UNL     1      48.789  12.021  -3.079  1.00  0.00     0.045 C 
HETATM   11  C14 UNL     1      49.629  11.539  -1.884  1.00  0.00     0.137 C 
HETATM   12  N2  UNL     1      50.288  10.341  -2.158  1.00  0.00    -0.307 N 
HETATM   13  C22 UNL     1      49.529   9.330  -2.805  1.00  0.00     0.137 C 
HETATM   14  C23 UNL     1      48.061   9.628  -2.774  1.00  0.00     0.045 C 
BRANCH  12  15
HETATM   15  S2  UNL     1      51.420   9.820  -1.068  1.00  0.00     0.251 S 
HETATM   16  O6  UNL     1      52.063   8.544  -1.635  1.00  0.00    -0.201 OA
HETATM   17  O7  UNL     1      52.598  10.805  -0.960  1.00  0.00    -0.201 OA
BRANCH  15  18
HETATM   18  C15 UNL     1      50.872   9.549   0.561  1.00  0.00     0.142 C 
BRANCH  18  19
HETATM   19  C16 UNL     1      49.586   8.916   0.748  1.00  0.00    -0.024 A 
HETATM   20  C17 UNL     1      48.487   9.676   1.175  1.00  0.00     0.012 A 
HETATM   21  C18 UNL     1      47.250   9.124   1.373  1.00  0.00     0.001 A 
HETATM   22  C19 UNL     1      47.071   7.777   1.149  1.00  0.00     0.000 A 
HETATM   23  C20 UNL     1      48.121   6.988   0.730  1.00  0.00     0.001 A 
HETATM   24  C21 UNL     1      49.360   7.577   0.539  1.00  0.00     0.012 A 
ENDBRANCH  18  19
ENDBRANCH  15  18
ENDBRANCH  12  15
ENDBRANCH   7   9
ENDBRANCH   5   7
BRANCH   1  25
HETATM   25  C6  UNL     1      45.263  13.557   1.055  1.00  0.00     0.036 A 
HETATM   26  S1  UNL     1      44.452  15.059   0.728  1.00  0.00    -0.078 SA
HETATM   27  C4  UNL     1      44.997  15.958   2.071  1.00  0.00     0.117 A 
HETATM   28  C3  UNL     1      45.793  15.073   2.732  1.00  0.00     0.112 A 
HETATM   29  C25 UNL     1      45.921  13.832   2.198  1.00  0.00     0.064 A 
HETATM   30 BR1  UNL     1      47.045  12.508   3.098  1.00  0.00    -0.047 Br
BRANCH  27  31
HETATM   31  C5  UNL     1      44.589  17.340   2.439  1.00  0.00     0.219 C 
HETATM   32  O4  UNL     1      44.597  18.223   1.555  1.00  0.00    -0.643 OA
HETATM   33  O5  UNL     1      44.210  17.589   3.767  1.00  0.00    -0.643 OA
ENDBRANCH  27  31
BRANCH  28  34
HETATM   34  O3  UNL     1      46.452  15.472   3.923  1.00  0.00    -0.338 OA
BRANCH  34  35
HETATM   35  C2  UNL     1      47.548  16.312   3.888  1.00  0.00     0.288 C 
BRANCH  35  36
HETATM   36  C1  UNL     1      47.609  17.414   4.834  1.00  0.00     0.198 C 
HETATM   37  O1  UNL     1      46.749  17.749   5.654  1.00  0.00    -0.646 OA
HETATM   38  O2  UNL     1      48.792  18.198   4.819  1.00  0.00    -0.646 OA
ENDBRANCH  35  36
ENDBRANCH  34  35
ENDBRANCH  28  34
ENDBRANCH   1  25
TORSDOF 10
ENDMDL
