MODEL 2
REMARK VINA RESULT: -9.050279657      1.107      1.579
REMARK  10 active torsions:
REMARK  status: ('A' for Active; 'I' for Inactive)
REMARK    1  A    between atoms: C1_2  and  C2_4 
REMARK    2  A    between atoms: C2_4  and  O3_5 
REMARK    3  A    between atoms: O3_5  and  C3_6 
REMARK    4  A    between atoms: C4_7  and  C5_8 
REMARK    5  A    between atoms: C6_12  and  C7_13 
REMARK    6  A    between atoms: C11_17  and  N1_18 
REMARK    7  A    between atoms: N1_18  and  C12_20 
REMARK    8  A    between atoms: N2_23  and  S2_24 
REMARK    9  A    between atoms: S2_24  and  C15_27 
REMARK   10  A    between atoms: C15_27  and  C16_28 
ROOT
HETATM    1  C7  UNL     1      45.852  11.746   1.126  1.00  0.00    -0.015 A 
HETATM    2  C8  UNL     1      44.964  10.926   0.513  1.00  0.00     0.013 A 
HETATM    3  C9  UNL     1      45.255   9.600   0.172  1.00  0.00     0.003 A 
HETATM    4  C10 UNL     1      46.496   9.090   0.464  1.00  0.00     0.029 A 
HETATM    5  C11 UNL     1      47.419   9.902   1.086  1.00  0.00     0.029 A 
HETATM    6  C24 UNL     1      47.111  11.209   1.415  1.00  0.00     0.042 A 
ENDROOT
BRANCH   5   7
HETATM    7  N1  UNL     1      48.709   9.393   1.399  1.00  0.00    -0.385 N 
ATOM      8  H1  UNL     1      49.516   9.983   1.196  1.00  0.00     0.160 HD
BRANCH   7   9
HETATM    9  C12 UNL     1      48.951   8.096   1.982  1.00  0.00     0.084 C 
HETATM   10  C13 UNL     1      50.101   7.347   1.388  1.00  0.00     0.045 C 
HETATM   11  C14 UNL     1      51.205   7.213   2.452  1.00  0.00     0.137 C 
HETATM   12  N2  UNL     1      50.761   6.526   3.580  1.00  0.00    -0.307 N 
HETATM   13  C22 UNL     1      49.483   6.885   4.084  1.00  0.00     0.137 C 
HETATM   14  C23 UNL     1      48.992   8.172   3.494  1.00  0.00     0.045 C 
BRANCH  12  15
HETATM   15  S2  UNL     1      51.893   6.088   4.707  1.00  0.00     0.251 S 
HETATM   16  O6  UNL     1      52.781   7.313   4.980  1.00  0.00    -0.201 OA
HETATM   17  O7  UNL     1      51.248   5.794   6.074  1.00  0.00    -0.201 OA
BRANCH  15  18
HETATM   18  C15 UNL     1      52.874   4.700   4.333  1.00  0.00     0.142 C 
BRANCH  18  19
HETATM   19  C16 UNL     1      52.525   3.438   4.945  1.00  0.00    -0.024 A 
HETATM   20  C17 UNL     1      51.480   2.667   4.412  1.00  0.00     0.012 A 
HETATM   21  C18 UNL     1      51.106   1.469   4.958  1.00  0.00     0.001 A 
HETATM   22  C19 UNL     1      51.771   0.998   6.067  1.00  0.00     0.000 A 
HETATM   23  C20 UNL     1      52.804   1.720   6.628  1.00  0.00     0.001 A 
HETATM   24  C21 UNL     1      53.158   2.928   6.052  1.00  0.00     0.012 A 
ENDBRANCH  18  19
ENDBRANCH  15  18
ENDBRANCH  12  15
ENDBRANCH   7   9
ENDBRANCH   5   7
BRANCH   1  25
HETATM   25  C6  UNL     1      45.596  13.154   1.514  1.00  0.00     0.036 A 
HETATM   26  S1  UNL     1      44.603  14.254   0.606  1.00  0.00    -0.078 SA
HETATM   27  C4  UNL     1      44.754  15.634   1.596  1.00  0.00     0.117 A 
HETATM   28  C3  UNL     1      45.570  15.207   2.599  1.00  0.00     0.112 A 
HETATM   29  C25 UNL     1      45.998  13.920   2.547  1.00  0.00     0.064 A 
HETATM   30 BR1  UNL     1      47.169  13.237   3.957  1.00  0.00    -0.047 Br
BRANCH  27  31
HETATM   31  C5  UNL     1      44.058  16.937   1.417  1.00  0.00     0.219 C 
HETATM   32  O4  UNL     1      42.836  16.933   1.156  1.00  0.00    -0.643 OA
HETATM   33  O5  UNL     1      44.809  18.114   1.552  1.00  0.00    -0.643 OA
ENDBRANCH  27  31
BRANCH  28  34
HETATM   34  O3  UNL     1      45.944  16.103   3.633  1.00  0.00    -0.338 OA
BRANCH  34  35
HETATM   35  C2  UNL     1      47.119  16.827   3.565  1.00  0.00     0.288 C 
BRANCH  35  36
HETATM   36  C1  UNL     1      47.550  17.563   4.741  1.00  0.00     0.198 C 
HETATM   37  O1  UNL     1      48.690  17.960   5.003  1.00  0.00    -0.646 OA
HETATM   38  O2  UNL     1      46.552  17.863   5.704  1.00  0.00    -0.646 OA
ENDBRANCH  35  36
ENDBRANCH  34  35
ENDBRANCH  28  34
ENDBRANCH   1  25
TORSDOF 10
ENDMDL
