MODEL 2
REMARK VINA RESULT: -8.259980333      2.645      5.391
REMARK  7 active torsions:
REMARK  status: ('A' for Active; 'I' for Inactive)
REMARK    1  A    between atoms: C5_5  and  N1_6 
REMARK    2  A    between atoms: N1_6  and  C6_8 
REMARK    3  A    between atoms: C10_12  and  C11_13 
REMARK    4  A    between atoms: C12_15  and  C13_16 
REMARK    5  A    between atoms: C14_19  and  O3_20 
REMARK    6  A    between atoms: O3_20  and  C15_21 
REMARK    7  A    between atoms: C15_21  and  C16_22 
ROOT
HETATM    1  C6  UNL     1      44.464  11.119  -2.004  1.00  0.00     0.029 A 
HETATM    2  C7  UNL     1      44.324   9.867  -1.444  1.00  0.00     0.029 A 
HETATM    3  C8  UNL     1      44.420   9.648  -0.097  1.00  0.00     0.003 A 
HETATM    4  C9  UNL     1      44.670  10.733   0.742  1.00  0.00     0.013 A 
HETATM    5  C10 UNL     1      44.816  11.985   0.252  1.00  0.00    -0.015 A 
HETATM    6  C18 UNL     1      44.707  12.146  -1.133  1.00  0.00     0.042 A 
ENDROOT
BRANCH   5   7
HETATM    7  C11 UNL     1      45.086  13.192   1.070  1.00  0.00     0.036 A 
HETATM    8  S1  UNL     1      44.287  14.726   0.844  1.00  0.00    -0.078 SA
HETATM    9  C12 UNL     1      45.049  15.617   2.075  1.00  0.00     0.117 A 
HETATM   10  C14 UNL     1      45.902  14.712   2.629  1.00  0.00     0.112 A 
HETATM   11  C17 UNL     1      45.909  13.461   2.101  1.00  0.00     0.064 A 
HETATM   12 BR1  UNL     1      47.107  12.112   2.849  1.00  0.00    -0.047 Br
BRANCH   9  13
HETATM   13  C13 UNL     1      44.752  17.011   2.424  1.00  0.00     0.219 C 
HETATM   14  O1  UNL     1      44.480  17.439   3.547  1.00  0.00    -0.643 OA
HETATM   15  O2  UNL     1      44.773  17.977   1.396  1.00  0.00    -0.643 OA
ENDBRANCH   9  13
BRANCH  10  16
HETATM   16  O3  UNL     1      46.738  15.105   3.706  1.00  0.00    -0.338 OA
BRANCH  16  17
HETATM   17  C15 UNL     1      47.735  16.038   3.690  1.00  0.00     0.288 C 
BRANCH  17  18
HETATM   18  C16 UNL     1      47.826  17.083   4.688  1.00  0.00     0.198 C 
HETATM   19  O4  UNL     1      48.757  17.901   4.775  1.00  0.00    -0.646 OA
HETATM   20  O5  UNL     1      46.816  17.247   5.672  1.00  0.00    -0.646 OA
ENDBRANCH  17  18
ENDBRANCH  16  17
ENDBRANCH  10  16
ENDBRANCH   5   7
BRANCH   1  21
HETATM   21  N1  UNL     1      44.375  11.298  -3.407  1.00  0.00    -0.385 N 
ATOM     22  H1  UNL     1      45.215  11.595  -3.904  1.00  0.00     0.160 HD
BRANCH  21  23
HETATM   23  C5  UNL     1      43.176  11.089  -4.180  1.00  0.00     0.083 C 
HETATM   24  C4  UNL     1      42.832   9.620  -4.279  1.00  0.00     0.034 C 
HETATM   25  C2  UNL     1      41.362   9.348  -4.179  1.00  0.00    -0.045 C 
HETATM   26  C1  UNL     1      41.090   8.061  -4.973  1.00  0.00     0.015 C 
HETATM   27  C3  UNL     1      40.978   9.042  -2.747  1.00  0.00     0.015 C 
HETATM   28  C23 UNL     1      40.482  10.401  -4.801  1.00  0.00     0.017 C 
HETATM   29  C20 UNL     1      40.826  11.803  -4.366  1.00  0.00    -0.045 C 
HETATM   30  C19 UNL     1      42.054  11.861  -3.518  1.00  0.00     0.034 C 
HETATM   31  C21 UNL     1      41.009  12.711  -5.570  1.00  0.00     0.015 C 
HETATM   32  C22 UNL     1      39.655  12.342  -3.576  1.00  0.00     0.015 C 
ENDBRANCH  21  23
ENDBRANCH   1  21
TORSDOF 7
ENDMDL
