MODEL 7
REMARK VINA RESULT: -7.938282819      2.206      3.228
REMARK  7 active torsions:
REMARK  status: ('A' for Active; 'I' for Inactive)
REMARK    1  A    between atoms: C5_5  and  N1_6 
REMARK    2  A    between atoms: N1_6  and  C6_8 
REMARK    3  A    between atoms: C10_12  and  C11_13 
REMARK    4  A    between atoms: C12_15  and  C13_16 
REMARK    5  A    between atoms: C14_19  and  O3_20 
REMARK    6  A    between atoms: O3_20  and  C15_21 
REMARK    7  A    between atoms: C15_21  and  C16_22 
ROOT
HETATM    1  C6  UNL     1      47.527   9.430   1.988  1.00  0.00     0.029 A 
HETATM    2  C7  UNL     1      46.869   8.639   1.069  1.00  0.00     0.029 A 
HETATM    3  C8  UNL     1      45.851   9.111   0.287  1.00  0.00     0.003 A 
HETATM    4  C9  UNL     1      45.461  10.442   0.424  1.00  0.00     0.013 A 
HETATM    5  C10 UNL     1      46.068  11.268   1.308  1.00  0.00    -0.015 A 
HETATM    6  C18 UNL     1      47.103  10.729   2.079  1.00  0.00     0.042 A 
ENDROOT
BRANCH   5   7
HETATM    7  C11 UNL     1      45.717  12.692   1.519  1.00  0.00     0.036 A 
HETATM    8  S1  UNL     1      44.667  13.608   0.468  1.00  0.00    -0.078 SA
HETATM    9  C12 UNL     1      44.703  15.102   1.277  1.00  0.00     0.117 A 
HETATM   10  C14 UNL     1      45.524  14.860   2.336  1.00  0.00     0.112 A 
HETATM   11  C17 UNL     1      46.040  13.610   2.450  1.00  0.00     0.064 A 
HETATM   12 BR1  UNL     1      47.223  13.194   3.946  1.00  0.00    -0.047 Br
BRANCH   9  13
HETATM   13  C13 UNL     1      43.949  16.299   0.886  1.00  0.00     0.219 C 
HETATM   14  O1  UNL     1      43.880  17.355   1.518  1.00  0.00    -0.643 OA
HETATM   15  O2  UNL     1      43.225  16.267  -0.324  1.00  0.00    -0.643 OA
ENDBRANCH   9  13
BRANCH  10  16
HETATM   16  O3  UNL     1      45.811  15.906   3.253  1.00  0.00    -0.338 OA
BRANCH  16  17
HETATM   17  C15 UNL     1      46.921  16.699   3.292  1.00  0.00     0.288 C 
BRANCH  17  18
HETATM   18  C16 UNL     1      47.447  17.224   4.534  1.00  0.00     0.198 C 
HETATM   19  O4  UNL     1      48.624  17.580   4.713  1.00  0.00    -0.646 OA
HETATM   20  O5  UNL     1      46.618  17.371   5.677  1.00  0.00    -0.646 OA
ENDBRANCH  17  18
ENDBRANCH  16  17
ENDBRANCH  10  16
ENDBRANCH   5   7
BRANCH   1  21
HETATM   21  N1  UNL     1      48.565   8.896   2.791  1.00  0.00    -0.385 N 
ATOM     22  H1  UNL     1      48.935   9.480   3.541  1.00  0.00     0.160 HD
BRANCH  21  23
HETATM   23  C5  UNL     1      49.133   7.583   2.619  1.00  0.00     0.083 C 
HETATM   24  C4  UNL     1      50.555   7.658   2.114  1.00  0.00     0.034 C 
HETATM   25  C2  UNL     1      51.461   6.641   2.739  1.00  0.00    -0.045 C 
HETATM   26  C1  UNL     1      52.563   6.331   1.713  1.00  0.00     0.015 C 
HETATM   27  C3  UNL     1      52.166   7.231   3.941  1.00  0.00     0.015 C 
HETATM   28  C23 UNL     1      50.808   5.318   3.043  1.00  0.00     0.017 C 
HETATM   29  C20 UNL     1      49.507   5.450   3.794  1.00  0.00    -0.045 C 
HETATM   30  C19 UNL     1      49.072   6.870   3.954  1.00  0.00     0.034 C 
HETATM   31  C21 UNL     1      48.404   4.667   3.101  1.00  0.00     0.015 C 
HETATM   32  C22 UNL     1      49.697   4.835   5.162  1.00  0.00     0.015 C 
ENDBRANCH  21  23
ENDBRANCH   1  21
TORSDOF 7
ENDMDL
