MODEL 14
REMARK VINA RESULT: -7.640730004      1.451      2.108
REMARK  7 active torsions:
REMARK  status: ('A' for Active; 'I' for Inactive)
REMARK    1  A    between atoms: C5_5  and  N1_6 
REMARK    2  A    between atoms: N1_6  and  C6_8 
REMARK    3  A    between atoms: C10_12  and  C11_13 
REMARK    4  A    between atoms: C12_15  and  C13_16 
REMARK    5  A    between atoms: C14_19  and  O3_20 
REMARK    6  A    between atoms: O3_20  and  C15_21 
REMARK    7  A    between atoms: C15_21  and  C16_22 
ROOT
HETATM    1  C6  UNL     1      46.820   9.595  -0.473  1.00  0.00     0.029 A 
HETATM    2  C7  UNL     1      45.727   9.058  -1.122  1.00  0.00     0.029 A 
HETATM    3  C8  UNL     1      44.512   9.687  -1.162  1.00  0.00     0.003 A 
HETATM    4  C9  UNL     1      44.373  10.917  -0.522  1.00  0.00     0.013 A 
HETATM    5  C10 UNL     1      45.408  11.496   0.130  1.00  0.00    -0.015 A 
HETATM    6  C18 UNL     1      46.625  10.806   0.136  1.00  0.00     0.042 A 
ENDROOT
BRANCH   5   7
HETATM    7  C11 UNL     1      45.346  12.797   0.837  1.00  0.00     0.036 A 
HETATM    8  S1  UNL     1      44.423  14.169   0.282  1.00  0.00    -0.078 SA
HETATM    9  C12 UNL     1      44.793  15.270   1.523  1.00  0.00     0.117 A 
HETATM   10  C14 UNL     1      45.621  14.555   2.334  1.00  0.00     0.112 A 
HETATM   11  C17 UNL     1      45.897  13.276   1.968  1.00  0.00     0.064 A 
HETATM   12 BR1  UNL     1      47.075  12.193   3.087  1.00  0.00    -0.047 Br
BRANCH   9  13
HETATM   13  C13 UNL     1      44.255  16.630   1.642  1.00  0.00     0.219 C 
HETATM   14  O1  UNL     1      44.880  17.632   1.994  1.00  0.00    -0.643 OA
HETATM   15  O2  UNL     1      42.896  16.842   1.329  1.00  0.00    -0.643 OA
ENDBRANCH   9  13
BRANCH  10  16
HETATM   16  O3  UNL     1      46.158  15.163   3.498  1.00  0.00    -0.338 OA
BRANCH  16  17
HETATM   17  C15 UNL     1      47.320  15.871   3.608  1.00  0.00     0.288 C 
BRANCH  17  18
HETATM   18  C16 UNL     1      47.505  16.893   4.617  1.00  0.00     0.198 C 
HETATM   19  O4  UNL     1      46.645  17.238   5.444  1.00  0.00    -0.646 OA
HETATM   20  O5  UNL     1      48.733  17.597   4.729  1.00  0.00    -0.646 OA
ENDBRANCH  17  18
ENDBRANCH  16  17
ENDBRANCH  10  16
ENDBRANCH   5   7
BRANCH   1  21
HETATM   21  N1  UNL     1      48.055   8.902  -0.441  1.00  0.00    -0.385 N 
ATOM     22  H1  UNL     1      48.776   9.182  -1.106  1.00  0.00     0.160 HD
BRANCH  21  23
HETATM   23  C5  UNL     1      48.361   7.826   0.469  1.00  0.00     0.083 C 
HETATM   24  C4  UNL     1      49.448   6.932  -0.080  1.00  0.00     0.034 C 
HETATM   25  C2  UNL     1      50.419   6.471   0.965  1.00  0.00    -0.045 C 
HETATM   26  C1  UNL     1      50.962   5.109   0.501  1.00  0.00     0.015 C 
HETATM   27  C3  UNL     1      51.615   7.398   1.019  1.00  0.00     0.015 C 
HETATM   28  C23 UNL     1      49.815   6.224   2.322  1.00  0.00     0.017 C 
HETATM   29  C20 UNL     1      48.960   7.365   2.813  1.00  0.00    -0.045 C 
HETATM   30  C19 UNL     1      48.781   8.437   1.789  1.00  0.00     0.034 C 
HETATM   31  C21 UNL     1      47.594   6.863   3.253  1.00  0.00     0.015 C 
HETATM   32  C22 UNL     1      49.631   7.955   4.033  1.00  0.00     0.015 C 
ENDBRANCH  21  23
ENDBRANCH   1  21
TORSDOF 7
ENDMDL
