MODEL 4
REMARK VINA RESULT: -8.091060682      5.511      9.029
REMARK  7 active torsions:
REMARK  status: ('A' for Active; 'I' for Inactive)
REMARK    1  A    between atoms: C5_5  and  N1_6 
REMARK    2  A    between atoms: N1_6  and  C6_8 
REMARK    3  A    between atoms: C10_12  and  C11_13 
REMARK    4  A    between atoms: C12_15  and  C13_16 
REMARK    5  A    between atoms: C14_19  and  O3_20 
REMARK    6  A    between atoms: O3_20  and  C15_21 
REMARK    7  A    between atoms: C15_21  and  C16_22 
ROOT
HETATM    1  C6  UNL     1      46.994  11.524   2.047  1.00  0.00     0.029 A 
HETATM    2  C7  UNL     1      46.808  11.654   0.686  1.00  0.00     0.029 A 
HETATM    3  C8  UNL     1      47.242  10.715  -0.209  1.00  0.00     0.003 A 
HETATM    4  C9  UNL     1      47.898   9.583   0.272  1.00  0.00     0.013 A 
HETATM    5  C10 UNL     1      48.109   9.398   1.596  1.00  0.00    -0.015 A 
HETATM    6  C18 UNL     1      47.642  10.392   2.462  1.00  0.00     0.042 A 
ENDROOT
BRANCH   5   7
HETATM    7  C11 UNL     1      48.797   8.229   2.191  1.00  0.00     0.036 A 
HETATM    8  S1  UNL     1      48.133   7.250   3.474  1.00  0.00    -0.078 SA
HETATM    9  C12 UNL     1      49.401   6.134   3.654  1.00  0.00     0.117 A 
HETATM   10  C14 UNL     1      50.307   6.543   2.723  1.00  0.00     0.112 A 
HETATM   11  C17 UNL     1      49.981   7.626   1.973  1.00  0.00     0.064 A 
HETATM   12 BR1  UNL     1      51.234   8.265   0.618  1.00  0.00    -0.047 Br
BRANCH   9  13
HETATM   13  C13 UNL     1      49.407   4.995   4.579  1.00  0.00     0.219 C 
HETATM   14  O1  UNL     1      49.652   5.038   5.787  1.00  0.00    -0.643 OA
HETATM   15  O2  UNL     1      49.106   3.715   4.068  1.00  0.00    -0.643 OA
ENDBRANCH   9  13
BRANCH  10  16
HETATM   16  O3  UNL     1      51.534   5.842   2.585  1.00  0.00    -0.338 OA
BRANCH  16  17
HETATM   17  C15 UNL     1      52.726   6.121   3.187  1.00  0.00     0.288 C 
BRANCH  17  18
HETATM   18  C16 UNL     1      52.836   6.335   4.614  1.00  0.00     0.198 C 
HETATM   19  O4  UNL     1      52.860   5.433   5.468  1.00  0.00    -0.646 OA
HETATM   20  O5  UNL     1      52.926   7.645   5.154  1.00  0.00    -0.646 OA
ENDBRANCH  17  18
ENDBRANCH  16  17
ENDBRANCH  10  16
ENDBRANCH   5   7
BRANCH   1  21
HETATM   21  N1  UNL     1      46.544  12.530   2.938  1.00  0.00    -0.385 N 
ATOM     22  H1  UNL     1      46.148  12.234   3.830  1.00  0.00     0.160 HD
BRANCH  21  23
HETATM   23  C5  UNL     1      46.608  13.945   2.668  1.00  0.00     0.083 C 
HETATM   24  C4  UNL     1      45.481  14.386   1.762  1.00  0.00     0.034 C 
HETATM   25  C2  UNL     1      44.904  15.716   2.140  1.00  0.00    -0.045 C 
HETATM   26  C1  UNL     1      44.358  16.349   0.850  1.00  0.00     0.015 C 
HETATM   27  C3  UNL     1      43.709  15.533   3.051  1.00  0.00     0.015 C 
HETATM   28  C23 UNL     1      45.902  16.705   2.685  1.00  0.00     0.017 C 
HETATM   29  C20 UNL     1      46.771  16.137   3.779  1.00  0.00    -0.045 C 
HETATM   30  C19 UNL     1      46.552  14.676   3.993  1.00  0.00     0.034 C 
HETATM   31  C21 UNL     1      48.240  16.382   3.480  1.00  0.00     0.015 C 
HETATM   32  C22 UNL     1      46.447  16.877   5.057  1.00  0.00     0.015 C 
ENDBRANCH  21  23
ENDBRANCH   1  21
TORSDOF 7
ENDMDL
