MODEL 9
REMARK VINA RESULT: -7.861110109      1.408      2.482
REMARK  7 active torsions:
REMARK  status: ('A' for Active; 'I' for Inactive)
REMARK    1  A    between atoms: C5_5  and  N1_6 
REMARK    2  A    between atoms: N1_6  and  C6_8 
REMARK    3  A    between atoms: C10_12  and  C11_13 
REMARK    4  A    between atoms: C12_15  and  C13_16 
REMARK    5  A    between atoms: C14_19  and  O3_20 
REMARK    6  A    between atoms: O3_20  and  C15_21 
REMARK    7  A    between atoms: C15_21  and  C16_22 
ROOT
HETATM    1  C6  UNL     1      46.957   9.762  -0.554  1.00  0.00     0.029 A 
HETATM    2  C7  UNL     1      45.838   8.980  -0.753  1.00  0.00     0.029 A 
HETATM    3  C8  UNL     1      44.582   9.384  -0.390  1.00  0.00     0.003 A 
HETATM    4  C9  UNL     1      44.427  10.635   0.205  1.00  0.00     0.013 A 
HETATM    5  C10 UNL     1      45.486  11.448   0.426  1.00  0.00    -0.015 A 
HETATM    6  C18 UNL     1      46.744  10.980   0.032  1.00  0.00     0.042 A 
ENDROOT
BRANCH   5   7
HETATM    7  C11 UNL     1      45.411  12.789   1.053  1.00  0.00     0.036 A 
HETATM    8  S1  UNL     1      44.454  14.109   0.432  1.00  0.00    -0.078 SA
HETATM    9  C12 UNL     1      44.823  15.289   1.597  1.00  0.00     0.117 A 
HETATM   10  C14 UNL     1      45.677  14.640   2.435  1.00  0.00     0.112 A 
HETATM   11  C17 UNL     1      45.971  13.347   2.143  1.00  0.00     0.064 A 
HETATM   12 BR1  UNL     1      47.186  12.355   3.305  1.00  0.00    -0.047 Br
BRANCH   9  13
HETATM   13  C13 UNL     1      44.262  16.645   1.642  1.00  0.00     0.219 C 
HETATM   14  O1  UNL     1      44.842  17.661   2.029  1.00  0.00    -0.643 OA
HETATM   15  O2  UNL     1      42.934  16.833   1.205  1.00  0.00    -0.643 OA
ENDBRANCH   9  13
BRANCH  10  16
HETATM   16  O3  UNL     1      46.222  15.328   3.551  1.00  0.00    -0.338 OA
BRANCH  16  17
HETATM   17  C15 UNL     1      47.367  16.069   3.596  1.00  0.00     0.288 C 
BRANCH  17  18
HETATM   18  C16 UNL     1      47.624  17.024   4.652  1.00  0.00     0.198 C 
HETATM   19  O4  UNL     1      48.725  17.554   4.877  1.00  0.00    -0.646 OA
HETATM   20  O5  UNL     1      46.593  17.434   5.537  1.00  0.00    -0.646 OA
ENDBRANCH  17  18
ENDBRANCH  16  17
ENDBRANCH  10  16
ENDBRANCH   5   7
BRANCH   1  21
HETATM   21  N1  UNL     1      48.241   9.296  -0.930  1.00  0.00    -0.385 N 
ATOM     22  H1  UNL     1      48.606   9.587  -1.837  1.00  0.00     0.160 HD
BRANCH  21  23
HETATM   23  C5  UNL     1      49.066   8.439  -0.116  1.00  0.00     0.083 C 
HETATM   24  C4  UNL     1      48.889   8.736   1.355  1.00  0.00     0.034 C 
HETATM   25  C2  UNL     1      48.878   7.506   2.211  1.00  0.00    -0.045 C 
HETATM   26  C1  UNL     1      49.409   7.918   3.593  1.00  0.00     0.015 C 
HETATM   27  C3  UNL     1      47.458   7.032   2.435  1.00  0.00     0.015 C 
HETATM   28  C23 UNL     1      49.789   6.402   1.740  1.00  0.00     0.017 C 
HETATM   29  C20 UNL     1      49.625   6.072   0.278  1.00  0.00    -0.045 C 
HETATM   30  C19 UNL     1      48.692   7.004  -0.425  1.00  0.00     0.034 C 
HETATM   31  C21 UNL     1      50.969   6.084  -0.431  1.00  0.00     0.015 C 
HETATM   32  C22 UNL     1      49.082   4.664   0.180  1.00  0.00     0.015 C 
ENDBRANCH  21  23
ENDBRANCH   1  21
TORSDOF 7
ENDMDL
