MODEL 8
REMARK VINA RESULT: -7.924054759      1.093      2.209
REMARK  7 active torsions:
REMARK  status: ('A' for Active; 'I' for Inactive)
REMARK    1  A    between atoms: C5_5  and  N1_6 
REMARK    2  A    between atoms: N1_6  and  C6_8 
REMARK    3  A    between atoms: C10_12  and  C11_13 
REMARK    4  A    between atoms: C12_15  and  C13_16 
REMARK    5  A    between atoms: C14_19  and  O3_20 
REMARK    6  A    between atoms: O3_20  and  C15_21 
REMARK    7  A    between atoms: C15_21  and  C16_22 
ROOT
HETATM    1  C6  UNL     1      45.521   9.530  -0.025  1.00  0.00     0.029 A 
HETATM    2  C7  UNL     1      44.845   9.572  -1.226  1.00  0.00     0.029 A 
HETATM    3  C8  UNL     1      44.298  10.724  -1.724  1.00  0.00     0.003 A 
HETATM    4  C9  UNL     1      44.430  11.900  -0.988  1.00  0.00     0.013 A 
HETATM    5  C10 UNL     1      45.083  11.923   0.197  1.00  0.00    -0.015 A 
HETATM    6  C18 UNL     1      45.620  10.715   0.653  1.00  0.00     0.042 A 
ENDROOT
BRANCH   5   7
HETATM    7  C11 UNL     1      45.266  13.126   1.043  1.00  0.00     0.036 A 
HETATM    8  S1  UNL     1      44.414  14.630   0.803  1.00  0.00    -0.078 SA
HETATM    9  C12 UNL     1      45.084  15.532   2.078  1.00  0.00     0.117 A 
HETATM   10  C14 UNL     1      45.950  14.654   2.656  1.00  0.00     0.112 A 
HETATM   11  C17 UNL     1      46.033  13.413   2.112  1.00  0.00     0.064 A 
HETATM   12 BR1  UNL     1      47.252  12.104   2.892  1.00  0.00    -0.047 Br
BRANCH   9  13
HETATM   13  C13 UNL     1      44.714  16.907   2.433  1.00  0.00     0.219 C 
HETATM   14  O1  UNL     1      44.431  17.317   3.560  1.00  0.00    -0.643 OA
HETATM   15  O2  UNL     1      44.670  17.874   1.407  1.00  0.00    -0.643 OA
ENDBRANCH   9  13
BRANCH  10  16
HETATM   16  O3  UNL     1      46.722  15.065   3.774  1.00  0.00    -0.338 OA
BRANCH  16  17
HETATM   17  C15 UNL     1      47.737  15.977   3.796  1.00  0.00     0.288 C 
BRANCH  17  18
HETATM   18  C16 UNL     1      47.762  17.078   4.736  1.00  0.00     0.198 C 
HETATM   19  O4  UNL     1      48.639  17.956   4.778  1.00  0.00    -0.646 OA
HETATM   20  O5  UNL     1      46.742  17.231   5.712  1.00  0.00    -0.646 OA
ENDBRANCH  17  18
ENDBRANCH  16  17
ENDBRANCH  10  16
ENDBRANCH   5   7
BRANCH   1  21
HETATM   21  N1  UNL     1      46.056   8.312   0.462  1.00  0.00    -0.385 N 
ATOM     22  H1  UNL     1      45.411   7.537   0.618  1.00  0.00     0.160 HD
BRANCH  21  23
HETATM   23  C5  UNL     1      47.451   8.093   0.751  1.00  0.00     0.083 C 
HETATM   24  C4  UNL     1      47.765   8.375   2.202  1.00  0.00     0.034 C 
HETATM   25  C2  UNL     1      48.739   7.404   2.798  1.00  0.00    -0.045 C 
HETATM   26  C1  UNL     1      49.491   8.150   3.911  1.00  0.00     0.015 C 
HETATM   27  C3  UNL     1      48.002   6.271   3.481  1.00  0.00     0.015 C 
HETATM   28  C23 UNL     1      49.801   6.914   1.848  1.00  0.00     0.017 C 
HETATM   29  C20 UNL     1      49.250   6.424   0.533  1.00  0.00    -0.045 C 
HETATM   30  C19 UNL     1      47.781   6.658   0.398  1.00  0.00     0.034 C 
HETATM   31  C21 UNL     1      49.969   7.085  -0.631  1.00  0.00     0.015 C 
HETATM   32  C22 UNL     1      49.524   4.940   0.441  1.00  0.00     0.015 C 
ENDBRANCH  21  23
ENDBRANCH   1  21
TORSDOF 7
ENDMDL
