MODEL 3
REMARK VINA RESULT: -8.214880541      4.904      8.674
REMARK  7 active torsions:
REMARK  status: ('A' for Active; 'I' for Inactive)
REMARK    1  A    between atoms: C5_5  and  N1_6 
REMARK    2  A    between atoms: N1_6  and  C6_8 
REMARK    3  A    between atoms: C10_12  and  C11_13 
REMARK    4  A    between atoms: C12_15  and  C13_16 
REMARK    5  A    between atoms: C14_19  and  O3_20 
REMARK    6  A    between atoms: O3_20  and  C15_21 
REMARK    7  A    between atoms: C15_21  and  C16_22 
ROOT
HETATM    1  C6  UNL     1      46.422  11.686   2.344  1.00  0.00     0.029 A 
HETATM    2  C7  UNL     1      45.289  11.464   1.588  1.00  0.00     0.029 A 
HETATM    3  C8  UNL     1      45.209  10.464   0.658  1.00  0.00     0.003 A 
HETATM    4  C9  UNL     1      46.314   9.637   0.466  1.00  0.00     0.013 A 
HETATM    5  C10 UNL     1      47.453   9.803   1.178  1.00  0.00    -0.015 A 
HETATM    6  C18 UNL     1      47.475  10.842   2.114  1.00  0.00     0.042 A 
ENDROOT
BRANCH   5   7
HETATM    7  C11 UNL     1      48.673   8.973   1.036  1.00  0.00     0.036 A 
HETATM    8  S1  UNL     1      49.765   9.062  -0.321  1.00  0.00    -0.078 SA
HETATM    9  C12 UNL     1      50.893   7.884   0.155  1.00  0.00     0.117 A 
HETATM   10  C14 UNL     1      50.401   7.449   1.347  1.00  0.00     0.112 A 
HETATM   11  C17 UNL     1      49.252   8.021   1.792  1.00  0.00     0.064 A 
HETATM   12 BR1  UNL     1      48.492   7.446   3.495  1.00  0.00    -0.047 Br
BRANCH   9  13
HETATM   13  C13 UNL     1      52.112   7.528  -0.580  1.00  0.00     0.219 C 
HETATM   14  O1  UNL     1      52.474   6.389  -0.882  1.00  0.00    -0.643 OA
HETATM   15  O2  UNL     1      52.972   8.567  -0.993  1.00  0.00    -0.643 OA
ENDBRANCH   9  13
BRANCH  10  16
HETATM   16  O3  UNL     1      51.085   6.428   2.058  1.00  0.00    -0.338 OA
BRANCH  16  17
HETATM   17  C15 UNL     1      52.226   6.549   2.798  1.00  0.00     0.288 C 
BRANCH  17  18
HETATM   18  C16 UNL     1      52.259   7.277   4.049  1.00  0.00     0.198 C 
HETATM   19  O4  UNL     1      52.537   6.779   5.152  1.00  0.00    -0.646 OA
HETATM   20  O5  UNL     1      51.961   8.664   4.097  1.00  0.00    -0.646 OA
ENDBRANCH  17  18
ENDBRANCH  16  17
ENDBRANCH  10  16
ENDBRANCH   5   7
BRANCH   1  21
HETATM   21  N1  UNL     1      46.468  12.745   3.284  1.00  0.00    -0.385 N 
ATOM     22  H1  UNL     1      46.384  12.509   4.272  1.00  0.00     0.160 HD
BRANCH  21  23
HETATM   23  C5  UNL     1      46.626  14.135   2.936  1.00  0.00     0.083 C 
HETATM   24  C4  UNL     1      45.500  14.614   2.049  1.00  0.00     0.034 C 
HETATM   25  C2  UNL     1      45.039  16.002   2.376  1.00  0.00    -0.045 C 
HETATM   26  C1  UNL     1      44.490  16.609   1.074  1.00  0.00     0.015 C 
HETATM   27  C3  UNL     1      43.870  15.957   3.337  1.00  0.00     0.015 C 
HETATM   28  C23 UNL     1      46.127  16.938   2.831  1.00  0.00     0.017 C 
HETATM   29  C20 UNL     1      46.995  16.363   3.922  1.00  0.00    -0.045 C 
HETATM   30  C19 UNL     1      46.677  14.934   4.222  1.00  0.00     0.034 C 
HETATM   31  C21 UNL     1      48.465  16.480   3.559  1.00  0.00     0.015 C 
HETATM   32  C22 UNL     1      46.777  17.189   5.170  1.00  0.00     0.015 C 
ENDBRANCH  21  23
ENDBRANCH   1  21
TORSDOF 7
ENDMDL
