MODEL 15
REMARK VINA RESULT: -7.582057856      1.443      2.484
REMARK  7 active torsions:
REMARK  status: ('A' for Active; 'I' for Inactive)
REMARK    1  A    between atoms: C5_5  and  N1_6 
REMARK    2  A    between atoms: N1_6  and  C6_8 
REMARK    3  A    between atoms: C10_12  and  C11_13 
REMARK    4  A    between atoms: C12_15  and  C13_16 
REMARK    5  A    between atoms: C14_19  and  O3_20 
REMARK    6  A    between atoms: O3_20  and  C15_21 
REMARK    7  A    between atoms: C15_21  and  C16_22 
ROOT
HETATM    1  C6  UNL     1      46.792   9.491  -0.216  1.00  0.00     0.029 A 
HETATM    2  C7  UNL     1      45.730   8.997  -0.945  1.00  0.00     0.029 A 
HETATM    3  C8  UNL     1      44.554   9.682  -1.087  1.00  0.00     0.003 A 
HETATM    4  C9  UNL     1      44.424  10.926  -0.473  1.00  0.00     0.013 A 
HETATM    5  C10 UNL     1      45.430  11.463   0.254  1.00  0.00    -0.015 A 
HETATM    6  C18 UNL     1      46.608  10.717   0.364  1.00  0.00     0.042 A 
ENDROOT
BRANCH   5   7
HETATM    7  C11 UNL     1      45.375  12.775   0.942  1.00  0.00     0.036 A 
HETATM    8  S1  UNL     1      44.472  14.149   0.358  1.00  0.00    -0.078 SA
HETATM    9  C12 UNL     1      44.841  15.264   1.587  1.00  0.00     0.117 A 
HETATM   10  C14 UNL     1      45.654  14.552   2.415  1.00  0.00     0.112 A 
HETATM   11  C17 UNL     1      45.920  13.266   2.071  1.00  0.00     0.064 A 
HETATM   12 BR1  UNL     1      47.076  12.187   3.216  1.00  0.00    -0.047 Br
BRANCH   9  13
HETATM   13  C13 UNL     1      44.316  16.631   1.680  1.00  0.00     0.219 C 
HETATM   14  O1  UNL     1      44.942  17.628   2.044  1.00  0.00    -0.643 OA
HETATM   15  O2  UNL     1      42.970  16.856   1.326  1.00  0.00    -0.643 OA
ENDBRANCH   9  13
BRANCH  10  16
HETATM   16  O3  UNL     1      46.187  15.172   3.576  1.00  0.00    -0.338 OA
BRANCH  16  17
HETATM   17  C15 UNL     1      47.327  15.915   3.675  1.00  0.00     0.288 C 
BRANCH  17  18
HETATM   18  C16 UNL     1      47.502  16.923   4.699  1.00  0.00     0.198 C 
HETATM   19  O4  UNL     1      46.607  17.321   5.463  1.00  0.00    -0.646 OA
HETATM   20  O5  UNL     1      48.760  17.547   4.906  1.00  0.00    -0.646 OA
ENDBRANCH  17  18
ENDBRANCH  16  17
ENDBRANCH  10  16
ENDBRANCH   5   7
BRANCH   1  21
HETATM   21  N1  UNL     1      47.987   8.740  -0.079  1.00  0.00    -0.385 N 
ATOM     22  H1  UNL     1      48.670   8.791  -0.835  1.00  0.00     0.160 HD
BRANCH  21  23
HETATM   23  C5  UNL     1      48.300   7.910   1.056  1.00  0.00     0.083 C 
HETATM   24  C4  UNL     1      47.971   6.460   0.788  1.00  0.00     0.034 C 
HETATM   25  C2  UNL     1      48.985   5.508   1.346  1.00  0.00    -0.045 C 
HETATM   26  C1  UNL     1      48.246   4.197   1.656  1.00  0.00     0.015 C 
HETATM   27  C3  UNL     1      50.020   5.164   0.297  1.00  0.00     0.015 C 
HETATM   28  C23 UNL     1      49.605   5.941   2.649  1.00  0.00     0.017 C 
HETATM   29  C20 UNL     1      50.115   7.360   2.629  1.00  0.00    -0.045 C 
HETATM   30  C19 UNL     1      49.773   8.079   1.365  1.00  0.00     0.034 C 
HETATM   31  C21 UNL     1      49.573   8.144   3.811  1.00  0.00     0.015 C 
HETATM   32  C22 UNL     1      51.619   7.312   2.777  1.00  0.00     0.015 C 
ENDBRANCH  21  23
ENDBRANCH   1  21
TORSDOF 7
ENDMDL
