MODEL 16
REMARK VINA RESULT: -7.460215231      1.609      2.504
REMARK  8 active torsions:
REMARK  status: ('A' for Active; 'I' for Inactive)
REMARK    1  A    between atoms: C1_2  and  C2_4 
REMARK    2  A    between atoms: C2_4  and  O3_5 
REMARK    3  A    between atoms: O3_5  and  C3_6 
REMARK    4  A    between atoms: C4_7  and  C5_8 
REMARK    5  A    between atoms: C6_12  and  C7_13 
REMARK    6  A    between atoms: C11_17  and  N1_18 
REMARK    7  A    between atoms: N1_18  and  C12_20 
REMARK    8  A    between atoms: C12_20  and  C13_21 
ROOT
HETATM    1  C7  UNL     1      45.972  11.606   0.778  1.00  0.00    -0.015 A 
HETATM    2  C8  UNL     1      44.815  10.847   0.518  1.00  0.00     0.013 A 
HETATM    3  C9  UNL     1      44.876   9.586  -0.018  1.00  0.00     0.003 A 
HETATM    4  C10 UNL     1      46.088   9.012  -0.323  1.00  0.00     0.029 A 
HETATM    5  C11 UNL     1      47.228   9.732  -0.080  1.00  0.00     0.029 A 
HETATM    6  C19 UNL     1      47.164  11.029   0.472  1.00  0.00     0.042 A 
ENDROOT
BRANCH   1   7
HETATM    7  C6  UNL     1      45.830  12.946   1.338  1.00  0.00     0.036 A 
HETATM    8  S1  UNL     1      44.838  14.150   0.626  1.00  0.00    -0.078 SA
HETATM    9  C4  UNL     1      45.092  15.428   1.723  1.00  0.00     0.117 A 
HETATM   10  C3  UNL     1      45.964  14.876   2.634  1.00  0.00     0.112 A 
HETATM   11  C20 UNL     1      46.337  13.583   2.426  1.00  0.00     0.064 A 
HETATM   12 BR1  UNL     1      47.456  12.630   3.739  1.00  0.00    -0.047 Br
BRANCH   9  13
HETATM   13  C5  UNL     1      44.473  16.763   1.685  1.00  0.00     0.219 C 
HETATM   14  O4  UNL     1      43.237  16.820   1.527  1.00  0.00    -0.643 OA
HETATM   15  O5  UNL     1      45.194  17.912   1.817  1.00  0.00    -0.643 OA
ENDBRANCH   9  13
BRANCH  10  16
HETATM   16  O3  UNL     1      46.455  15.610   3.743  1.00  0.00    -0.338 OA
BRANCH  16  17
HETATM   17  C2  UNL     1      47.545  16.392   3.882  1.00  0.00     0.288 C 
BRANCH  17  18
HETATM   18  C1  UNL     1      47.739  17.287   5.019  1.00  0.00     0.198 C 
HETATM   19  O1  UNL     1      48.857  17.904   5.136  1.00  0.00    -0.646 OA
HETATM   20  O2  UNL     1      46.831  17.528   5.985  1.00  0.00    -0.646 OA
ENDBRANCH  17  18
ENDBRANCH  16  17
ENDBRANCH  10  16
ENDBRANCH   1   7
BRANCH   5  21
HETATM   21  N1  UNL     1      48.509   9.219  -0.367  1.00  0.00    -0.386 N 
ATOM     22  H1  UNL     1      48.703   8.824  -1.287  1.00  0.00     0.160 HD
BRANCH  21  23
HETATM   23  C12 UNL     1      49.550   9.250   0.635  1.00  0.00     0.158 C 
BRANCH  23  24
HETATM   24  C13 UNL     1      49.229   8.179   1.643  1.00  0.00    -0.041 A 
HETATM   25  C14 UNL     1      49.317   6.840   1.342  1.00  0.00     0.009 A 
HETATM   26  C15 UNL     1      49.005   5.902   2.310  1.00  0.00     0.001 A 
HETATM   27  C16 UNL     1      48.605   6.268   3.578  1.00  0.00     0.000 A 
HETATM   28  C17 UNL     1      48.531   7.616   3.834  1.00  0.00     0.001 A 
HETATM   29  C18 UNL     1      48.832   8.579   2.900  1.00  0.00     0.009 A 
ENDBRANCH  23  24
ENDBRANCH  21  23
ENDBRANCH   5  21
TORSDOF 8
ENDMDL
