MODEL 3
REMARK VINA RESULT: -8.060171688      2.063      4.850
REMARK  8 active torsions:
REMARK  status: ('A' for Active; 'I' for Inactive)
REMARK    1  A    between atoms: C1_2  and  C2_4 
REMARK    2  A    between atoms: C2_4  and  O3_5 
REMARK    3  A    between atoms: O3_5  and  C3_6 
REMARK    4  A    between atoms: C4_7  and  C5_8 
REMARK    5  A    between atoms: C6_12  and  C7_13 
REMARK    6  A    between atoms: C11_17  and  N1_18 
REMARK    7  A    between atoms: N1_18  and  C12_20 
REMARK    8  A    between atoms: C12_20  and  C13_21 
ROOT
HETATM    1  C7  UNL     1      45.054  12.651   0.441  1.00  0.00    -0.015 A 
HETATM    2  C8  UNL     1      45.047  11.303   0.847  1.00  0.00     0.013 A 
HETATM    3  C9  UNL     1      44.761  10.281  -0.021  1.00  0.00     0.003 A 
HETATM    4  C10 UNL     1      44.467  10.543  -1.339  1.00  0.00     0.029 A 
HETATM    5  C11 UNL     1      44.466  11.847  -1.758  1.00  0.00     0.029 A 
HETATM    6  C19 UNL     1      44.761  12.898  -0.863  1.00  0.00     0.042 A 
ENDROOT
BRANCH   1   7
HETATM    7  C6  UNL     1      45.355  13.686   1.423  1.00  0.00     0.036 A 
HETATM    8  S1  UNL     1      44.414  15.111   1.590  1.00  0.00    -0.078 SA
HETATM    9  C4  UNL     1      45.254  15.871   2.863  1.00  0.00     0.117 A 
HETATM   10  C3  UNL     1      46.269  14.981   3.129  1.00  0.00     0.112 A 
HETATM   11  C20 UNL     1      46.309  13.846   2.377  1.00  0.00     0.064 A 
HETATM   12 BR1  UNL     1      47.617  12.424   2.763  1.00  0.00    -0.047 Br
BRANCH   9  13
HETATM   13  C5  UNL     1      44.910  17.147   3.511  1.00  0.00     0.219 C 
HETATM   14  O4  UNL     1      44.921  18.174   2.804  1.00  0.00    -0.643 OA
HETATM   15  O5  UNL     1      44.583  17.235   4.832  1.00  0.00    -0.643 OA
ENDBRANCH   9  13
BRANCH  10  16
HETATM   16  O3  UNL     1      47.233  15.222   4.141  1.00  0.00    -0.338 OA
BRANCH  16  17
HETATM   17  C2  UNL     1      48.246  16.110   4.213  1.00  0.00     0.288 C 
BRANCH  17  18
HETATM   18  C1  UNL     1      48.252  17.232   5.147  1.00  0.00     0.198 C 
HETATM   19  O1  UNL     1      49.256  18.029   5.149  1.00  0.00    -0.646 OA
HETATM   20  O2  UNL     1      47.278  17.512   6.035  1.00  0.00    -0.646 OA
ENDBRANCH  17  18
ENDBRANCH  16  17
ENDBRANCH  10  16
ENDBRANCH   1   7
BRANCH   5  21
HETATM   21  N1  UNL     1      44.171  12.202  -3.090  1.00  0.00    -0.386 N 
ATOM     22  H1  UNL     1      43.988  11.474  -3.780  1.00  0.00     0.160 HD
BRANCH  21  23
HETATM   23  C12 UNL     1      44.128  13.592  -3.483  1.00  0.00     0.158 C 
BRANCH  23  24
HETATM   24  C13 UNL     1      42.705  14.055  -3.318  1.00  0.00    -0.041 A 
HETATM   25  C14 UNL     1      42.390  15.265  -2.746  1.00  0.00     0.009 A 
HETATM   26  C15 UNL     1      41.063  15.634  -2.619  1.00  0.00     0.001 A 
HETATM   27  C16 UNL     1      40.036  14.822  -3.051  1.00  0.00     0.000 A 
HETATM   28  C17 UNL     1      40.397  13.623  -3.615  1.00  0.00     0.001 A 
HETATM   29  C18 UNL     1      41.703  13.219  -3.760  1.00  0.00     0.009 A 
ENDBRANCH  23  24
ENDBRANCH  21  23
ENDBRANCH   5  21
TORSDOF 8
ENDMDL
