MODEL 2
REMARK VINA RESULT: -8.160199626      2.110      4.443
REMARK  8 active torsions:
REMARK  status: ('A' for Active; 'I' for Inactive)
REMARK    1  A    between atoms: C1_2  and  C2_4 
REMARK    2  A    between atoms: C2_4  and  O3_5 
REMARK    3  A    between atoms: O3_5  and  C3_6 
REMARK    4  A    between atoms: C4_7  and  C5_8 
REMARK    5  A    between atoms: C6_12  and  C7_13 
REMARK    6  A    between atoms: C11_17  and  N1_18 
REMARK    7  A    between atoms: N1_18  and  C12_20 
REMARK    8  A    between atoms: C12_20  and  C13_21 
ROOT
HETATM    1  C7  UNL     1      45.099  12.433   0.575  1.00  0.00    -0.015 A 
HETATM    2  C8  UNL     1      45.125  11.107   1.049  1.00  0.00     0.013 A 
HETATM    3  C9  UNL     1      44.853  10.037   0.236  1.00  0.00     0.003 A 
HETATM    4  C10 UNL     1      44.542  10.225  -1.090  1.00  0.00     0.029 A 
HETATM    5  C11 UNL     1      44.510  11.506  -1.575  1.00  0.00     0.029 A 
HETATM    6  C19 UNL     1      44.790  12.607  -0.736  1.00  0.00     0.042 A 
ENDROOT
BRANCH   1   7
HETATM    7  C6  UNL     1      45.386  13.522   1.501  1.00  0.00     0.036 A 
HETATM    8  S1  UNL     1      44.443  14.953   1.574  1.00  0.00    -0.078 SA
HETATM    9  C4  UNL     1      45.264  15.785   2.813  1.00  0.00     0.117 A 
HETATM   10  C3  UNL     1      46.276  14.913   3.145  1.00  0.00     0.112 A 
HETATM   11  C20 UNL     1      46.326  13.737   2.459  1.00  0.00     0.064 A 
HETATM   12 BR1  UNL     1      47.628  12.340   2.943  1.00  0.00    -0.047 Br
BRANCH   9  13
HETATM   13  C5  UNL     1      44.911  17.096   3.383  1.00  0.00     0.219 C 
HETATM   14  O4  UNL     1      44.929  18.080   2.618  1.00  0.00    -0.643 OA
HETATM   15  O5  UNL     1      44.569  17.259   4.693  1.00  0.00    -0.643 OA
ENDBRANCH   9  13
BRANCH  10  16
HETATM   16  O3  UNL     1      47.225  15.212   4.155  1.00  0.00    -0.338 OA
BRANCH  16  17
HETATM   17  C2  UNL     1      48.189  16.152   4.220  1.00  0.00     0.288 C 
BRANCH  17  18
HETATM   18  C1  UNL     1      48.184  17.226   5.209  1.00  0.00     0.198 C 
HETATM   19  O1  UNL     1      49.206  17.995   5.291  1.00  0.00    -0.646 OA
HETATM   20  O2  UNL     1      47.181  17.488   6.070  1.00  0.00    -0.646 OA
ENDBRANCH  17  18
ENDBRANCH  16  17
ENDBRANCH  10  16
ENDBRANCH   1   7
BRANCH   5  21
HETATM   21  N1  UNL     1      44.196  11.788  -2.920  1.00  0.00    -0.386 N 
ATOM     22  H1  UNL     1      44.424  12.701  -3.313  1.00  0.00     0.160 HD
BRANCH  21  23
HETATM   23  C12 UNL     1      43.555  10.790  -3.744  1.00  0.00     0.158 C 
BRANCH  23  24
HETATM   24  C13 UNL     1      42.078  10.861  -3.460  1.00  0.00    -0.041 A 
HETATM   25  C14 UNL     1      41.348  12.010  -3.658  1.00  0.00     0.009 A 
HETATM   26  C15 UNL     1      39.994  12.014  -3.374  1.00  0.00     0.001 A 
HETATM   27  C16 UNL     1      39.346  10.895  -2.897  1.00  0.00     0.000 A 
HETATM   28  C17 UNL     1      40.114   9.770  -2.714  1.00  0.00     0.001 A 
HETATM   29  C18 UNL     1      41.461   9.725  -2.983  1.00  0.00     0.009 A 
ENDBRANCH  23  24
ENDBRANCH  21  23
ENDBRANCH   5  21
TORSDOF 8
ENDMDL
