MODEL 14
REMARK VINA RESULT: -7.500336758      1.708      2.651
REMARK  8 active torsions:
REMARK  status: ('A' for Active; 'I' for Inactive)
REMARK    1  A    between atoms: C1_2  and  C2_4 
REMARK    2  A    between atoms: C2_4  and  O3_5 
REMARK    3  A    between atoms: O3_5  and  C3_6 
REMARK    4  A    between atoms: C4_7  and  C5_8 
REMARK    5  A    between atoms: C6_12  and  C7_13 
REMARK    6  A    between atoms: C11_17  and  N1_18 
REMARK    7  A    between atoms: N1_18  and  C12_20 
REMARK    8  A    between atoms: C12_20  and  C13_21 
ROOT
HETATM    1  C7  UNL     1      45.920  11.649   0.802  1.00  0.00    -0.015 A 
HETATM    2  C8  UNL     1      44.823  11.075   0.130  1.00  0.00     0.013 A 
HETATM    3  C9  UNL     1      44.880   9.820  -0.420  1.00  0.00     0.003 A 
HETATM    4  C10 UNL     1      46.027   9.068  -0.332  1.00  0.00     0.029 A 
HETATM    5  C11 UNL     1      47.109   9.605   0.316  1.00  0.00     0.029 A 
HETATM    6  C19 UNL     1      47.049  10.896   0.882  1.00  0.00     0.042 A 
ENDROOT
BRANCH   1   7
HETATM    7  C6  UNL     1      45.791  12.994   1.351  1.00  0.00     0.036 A 
HETATM    8  S1  UNL     1      44.803  14.199   0.634  1.00  0.00    -0.078 SA
HETATM    9  C4  UNL     1      45.073  15.485   1.719  1.00  0.00     0.117 A 
HETATM   10  C3  UNL     1      45.946  14.934   2.629  1.00  0.00     0.112 A 
HETATM   11  C20 UNL     1      46.309  13.636   2.430  1.00  0.00     0.064 A 
HETATM   12 BR1  UNL     1      47.427  12.687   3.745  1.00  0.00    -0.047 Br
BRANCH   9  13
HETATM   13  C5  UNL     1      44.462  16.824   1.673  1.00  0.00     0.219 C 
HETATM   14  O4  UNL     1      43.226  16.888   1.520  1.00  0.00    -0.643 OA
HETATM   15  O5  UNL     1      45.193  17.969   1.793  1.00  0.00    -0.643 OA
ENDBRANCH   9  13
BRANCH  10  16
HETATM   16  O3  UNL     1      46.448  15.673   3.730  1.00  0.00    -0.338 OA
BRANCH  16  17
HETATM   17  C2  UNL     1      47.554  16.436   3.860  1.00  0.00     0.288 C 
BRANCH  17  18
HETATM   18  C1  UNL     1      47.815  17.257   5.040  1.00  0.00     0.198 C 
HETATM   19  O1  UNL     1      46.879  17.417   5.900  1.00  0.00    -0.646 OA
HETATM   20  O2  UNL     1      48.977  17.881   5.311  1.00  0.00    -0.646 OA
ENDBRANCH  17  18
ENDBRANCH  16  17
ENDBRANCH  10  16
ENDBRANCH   1   7
BRANCH   5  21
HETATM   21  N1  UNL     1      48.324   8.902   0.448  1.00  0.00    -0.386 N 
ATOM     22  H1  UNL     1      48.511   8.098  -0.150  1.00  0.00     0.160 HD
BRANCH  21  23
HETATM   23  C12 UNL     1      49.305   9.316   1.425  1.00  0.00     0.158 C 
BRANCH  23  24
HETATM   24  C13 UNL     1      49.270   8.309   2.543  1.00  0.00    -0.041 A 
HETATM   25  C14 UNL     1      48.137   8.080   3.289  1.00  0.00     0.009 A 
HETATM   26  C15 UNL     1      48.169   7.144   4.306  1.00  0.00     0.001 A 
HETATM   27  C16 UNL     1      49.308   6.425   4.600  1.00  0.00     0.000 A 
HETATM   28  C17 UNL     1      50.415   6.685   3.830  1.00  0.00     0.001 A 
HETATM   29  C18 UNL     1      50.426   7.607   2.810  1.00  0.00     0.009 A 
ENDBRANCH  23  24
ENDBRANCH  21  23
ENDBRANCH   5  21
TORSDOF 8
ENDMDL
