MODEL 4
REMARK VINA RESULT: -8.042272223      5.354      8.717
REMARK  8 active torsions:
REMARK  status: ('A' for Active; 'I' for Inactive)
REMARK    1  A    between atoms: C1_2  and  C2_4 
REMARK    2  A    between atoms: C2_4  and  O3_5 
REMARK    3  A    between atoms: O3_5  and  C3_6 
REMARK    4  A    between atoms: C4_7  and  C5_8 
REMARK    5  A    between atoms: C6_12  and  C7_13 
REMARK    6  A    between atoms: C11_17  and  N1_18 
REMARK    7  A    between atoms: N1_18  and  C12_20 
REMARK    8  A    between atoms: C12_20  and  C13_21 
ROOT
HETATM    1  C7  UNL     1      47.735   9.354   1.888  1.00  0.00    -0.015 A 
HETATM    2  C8  UNL     1      46.708   8.991   0.994  1.00  0.00     0.013 A 
HETATM    3  C9  UNL     1      45.858   9.917   0.447  1.00  0.00     0.003 A 
HETATM    4  C10 UNL     1      45.982  11.251   0.756  1.00  0.00     0.029 A 
HETATM    5  C11 UNL     1      46.973  11.629   1.623  1.00  0.00     0.029 A 
HETATM    6  C19 UNL     1      47.847  10.675   2.186  1.00  0.00     0.042 A 
ENDROOT
BRANCH   1   7
HETATM    7  C6  UNL     1      48.594   8.313   2.441  1.00  0.00     0.036 A 
HETATM    8  S1  UNL     1      48.101   7.283   3.721  1.00  0.00    -0.078 SA
HETATM    9  C4  UNL     1      49.499   6.325   3.886  1.00  0.00     0.117 A 
HETATM   10  C3  UNL     1      50.335   6.843   2.923  1.00  0.00     0.112 A 
HETATM   11  C20 UNL     1      49.852   7.874   2.174  1.00  0.00     0.064 A 
HETATM   12 BR1  UNL     1      50.888   8.598   0.663  1.00  0.00    -0.047 Br
BRANCH   9  13
HETATM   13  C5  UNL     1      49.698   5.203   4.817  1.00  0.00     0.219 C 
HETATM   14  O4  UNL     1      50.090   5.472   5.969  1.00  0.00    -0.643 OA
HETATM   15  O5  UNL     1      49.467   3.906   4.463  1.00  0.00    -0.643 OA
ENDBRANCH   9  13
BRANCH  10  16
HETATM   16  O3  UNL     1      51.640   6.333   2.708  1.00  0.00    -0.338 OA
BRANCH  16  17
HETATM   17  C2  UNL     1      52.810   6.587   3.331  1.00  0.00     0.288 C 
BRANCH  17  18
HETATM   18  C1  UNL     1      52.889   7.267   4.620  1.00  0.00     0.198 C 
HETATM   19  O1  UNL     1      53.130   6.573   5.671  1.00  0.00    -0.646 OA
HETATM   20  O2  UNL     1      52.724   8.590   4.815  1.00  0.00    -0.646 OA
ENDBRANCH  17  18
ENDBRANCH  16  17
ENDBRANCH  10  16
ENDBRANCH   1   7
BRANCH   5  21
HETATM   21  N1  UNL     1      47.166  12.975   1.995  1.00  0.00    -0.386 N 
ATOM     22  H1  UNL     1      47.377  13.672   1.282  1.00  0.00     0.160 HD
BRANCH  21  23
HETATM   23  C12 UNL     1      47.067  13.371   3.381  1.00  0.00     0.158 C 
BRANCH  23  24
HETATM   24  C13 UNL     1      46.982  14.874   3.408  1.00  0.00    -0.041 A 
HETATM   25  C14 UNL     1      47.937  15.651   4.022  1.00  0.00     0.009 A 
HETATM   26  C15 UNL     1      47.801  17.027   4.016  1.00  0.00     0.001 A 
HETATM   27  C16 UNL     1      46.733  17.652   3.410  1.00  0.00     0.000 A 
HETATM   28  C17 UNL     1      45.804  16.838   2.809  1.00  0.00     0.001 A 
HETATM   29  C18 UNL     1      45.901  15.467   2.793  1.00  0.00     0.009 A 
ENDBRANCH  23  24
ENDBRANCH  21  23
ENDBRANCH   5  21
TORSDOF 8
ENDMDL
