MODEL 2
REMARK VINA RESULT: -8.135061792      0.679      1.179
REMARK  7 active torsions:
REMARK  status: ('A' for Active; 'I' for Inactive)
REMARK    1  A    between atoms: C1_2  and  C2_4 
REMARK    2  A    between atoms: C2_4  and  O3_5 
REMARK    3  A    between atoms: O3_5  and  C3_6 
REMARK    4  A    between atoms: C4_7  and  C5_8 
REMARK    5  A    between atoms: C6_12  and  C7_13 
REMARK    6  A    between atoms: C11_17  and  N1_18 
REMARK    7  A    between atoms: N1_18  and  C12_20 
ROOT
HETATM    1  C3  UNL     1      45.698  15.056   2.587  1.00  0.00     0.112 A 
HETATM    2  C4  UNL     1      44.766  15.478   1.673  1.00  0.00     0.117 A 
HETATM    3  S1  UNL     1      44.552  14.114   0.682  1.00  0.00    -0.078 SA
HETATM    4  C6  UNL     1      45.656  13.019   1.457  1.00  0.00     0.036 A 
HETATM    5  C19 UNL     1      46.141  13.787   2.462  1.00  0.00     0.064 A 
HETATM    6 BR1  UNL     1      47.361  13.014   3.779  1.00  0.00    -0.047 Br
ENDROOT
BRANCH   4   7
HETATM    7  C7  UNL     1      45.907  11.628   1.025  1.00  0.00    -0.015 A 
HETATM    8  C8  UNL     1      44.786  10.896   0.598  1.00  0.00     0.013 A 
HETATM    9  C9  UNL     1      44.859   9.600   0.161  1.00  0.00     0.003 A 
HETATM   10  C10 UNL     1      46.107   9.014   0.154  1.00  0.00     0.029 A 
HETATM   11  C11 UNL     1      47.244   9.666   0.558  1.00  0.00     0.029 A 
HETATM   12  C18 UNL     1      47.095  10.992   0.992  1.00  0.00     0.042 A 
BRANCH  11  13
HETATM   13  N1  UNL     1      48.524   9.052   0.554  1.00  0.00    -0.385 N 
ATOM     14  H1  UNL     1      48.987   8.824  -0.326  1.00  0.00     0.160 HD
BRANCH  13  15
HETATM   15  C12 UNL     1      49.156   8.757   1.802  1.00  0.00     0.081 C 
HETATM   16  C13 UNL     1      48.203   8.125   2.798  1.00  0.00     0.025 C 
HETATM   17  C14 UNL     1      48.929   7.157   3.709  1.00  0.00     0.002 C 
HETATM   18  C15 UNL     1      50.362   7.576   3.951  1.00  0.00     0.000 C 
HETATM   19  C16 UNL     1      51.168   7.714   2.683  1.00  0.00     0.002 C 
HETATM   20  C17 UNL     1      50.206   7.665   1.526  1.00  0.00     0.025 C 
ENDBRANCH  13  15
ENDBRANCH  11  13
ENDBRANCH   4   7
BRANCH   2  21
HETATM   21  C5  UNL     1      44.039  16.736   1.524  1.00  0.00     0.219 C 
HETATM   22  O4  UNL     1      43.132  16.844   0.622  1.00  0.00    -0.643 OA
HETATM   23  O5  UNL     1      44.229  17.864   2.285  1.00  0.00    -0.643 OA
ENDBRANCH   2  21
BRANCH   1  24
HETATM   24  O3  UNL     1      46.128  15.954   3.587  1.00  0.00    -0.338 OA
BRANCH  24  25
HETATM   25  C2  UNL     1      47.250  16.695   3.695  1.00  0.00     0.288 C 
BRANCH  25  26
HETATM   26  C1  UNL     1      47.644  17.397   4.894  1.00  0.00     0.198 C 
HETATM   27  O1  UNL     1      48.758  17.871   5.100  1.00  0.00    -0.646 OA
HETATM   28  O2  UNL     1      46.708  17.576   5.943  1.00  0.00    -0.646 OA
ENDBRANCH  25  26
ENDBRANCH  24  25
ENDBRANCH   1  24
TORSDOF 7
ENDMDL
