MODEL 7
REMARK VINA RESULT: -7.848949578      3.269      5.370
REMARK  7 active torsions:
REMARK  status: ('A' for Active; 'I' for Inactive)
REMARK    1  A    between atoms: C1_2  and  C2_4 
REMARK    2  A    between atoms: C2_4  and  O3_5 
REMARK    3  A    between atoms: O3_5  and  C3_6 
REMARK    4  A    between atoms: C4_7  and  C5_8 
REMARK    5  A    between atoms: C6_12  and  C7_13 
REMARK    6  A    between atoms: C11_17  and  N1_18 
REMARK    7  A    between atoms: N1_18  and  C12_20 
ROOT
HETATM    1  C3  UNL     1      45.680  14.802   2.560  1.00  0.00     0.112 A 
HETATM    2  C4  UNL     1      44.807  15.522   1.786  1.00  0.00     0.117 A 
HETATM    3  S1  UNL     1      44.550  14.507   0.447  1.00  0.00    -0.078 SA
HETATM    4  C6  UNL     1      45.563  13.170   0.902  1.00  0.00     0.036 A 
HETATM    5  C19 UNL     1      46.055  13.593   2.091  1.00  0.00     0.064 A 
HETATM    6 BR1  UNL     1      47.182  12.406   3.158  1.00  0.00    -0.047 Br
ENDROOT
BRANCH   4   7
HETATM    7  C7  UNL     1      45.749  11.942   0.101  1.00  0.00    -0.015 A 
HETATM    8  C8  UNL     1      47.054  11.685  -0.353  1.00  0.00     0.013 A 
HETATM    9  C9  UNL     1      47.386  10.585  -1.099  1.00  0.00     0.003 A 
HETATM   10  C10 UNL     1      46.366   9.707  -1.403  1.00  0.00     0.029 A 
HETATM   11  C11 UNL     1      45.070   9.894  -0.995  1.00  0.00     0.029 A 
HETATM   12  C18 UNL     1      44.802  11.042  -0.234  1.00  0.00     0.042 A 
BRANCH  11  13
HETATM   13  N1  UNL     1      44.025   8.988  -1.319  1.00  0.00    -0.385 N 
ATOM     14  H1  UNL     1      44.077   8.012  -1.029  1.00  0.00     0.160 HD
BRANCH  13  15
HETATM   15  C12 UNL     1      42.898   9.466  -2.057  1.00  0.00     0.081 C 
HETATM   16  C13 UNL     1      43.297  10.104  -3.375  1.00  0.00     0.025 C 
HETATM   17  C14 UNL     1      42.229   9.894  -4.427  1.00  0.00     0.002 C 
HETATM   18  C15 UNL     1      40.843   9.829  -3.824  1.00  0.00     0.000 C 
HETATM   19  C16 UNL     1      40.693   8.743  -2.786  1.00  0.00     0.002 C 
HETATM   20  C17 UNL     1      42.071   8.232  -2.462  1.00  0.00     0.025 C 
ENDBRANCH  13  15
ENDBRANCH  11  13
ENDBRANCH   4   7
BRANCH   2  21
HETATM   21  C5  UNL     1      44.158  16.815   1.984  1.00  0.00     0.219 C 
HETATM   22  O4  UNL     1      42.953  16.991   1.577  1.00  0.00    -0.643 OA
HETATM   23  O5  UNL     1      44.725  17.909   2.591  1.00  0.00    -0.643 OA
ENDBRANCH   2  21
BRANCH   1  24
HETATM   24  O3  UNL     1      46.126  15.354   3.780  1.00  0.00    -0.338 OA
BRANCH  24  25
HETATM   25  C2  UNL     1      47.274  15.983   4.106  1.00  0.00     0.288 C 
BRANCH  25  26
HETATM   26  C1  UNL     1      47.351  17.115   4.999  1.00  0.00     0.198 C 
HETATM   27  O1  UNL     1      46.435  17.513   5.713  1.00  0.00    -0.646 OA
HETATM   28  O2  UNL     1      48.555  17.855   5.094  1.00  0.00    -0.646 OA
ENDBRANCH  25  26
ENDBRANCH  24  25
ENDBRANCH   1  24
TORSDOF 7
ENDMDL
