MODEL 6
REMARK VINA RESULT: -7.872989593      3.419      5.276
REMARK  7 active torsions:
REMARK  status: ('A' for Active; 'I' for Inactive)
REMARK    1  A    between atoms: C1_2  and  C2_4 
REMARK    2  A    between atoms: C2_4  and  O3_5 
REMARK    3  A    between atoms: O3_5  and  C3_6 
REMARK    4  A    between atoms: C4_7  and  C5_8 
REMARK    5  A    between atoms: C6_12  and  C7_13 
REMARK    6  A    between atoms: C11_17  and  N1_18 
REMARK    7  A    between atoms: N1_18  and  C12_20 
ROOT
HETATM    1  C3  UNL     1      45.694  14.784   2.608  1.00  0.00     0.112 A 
HETATM    2  C4  UNL     1      44.818  15.536   1.867  1.00  0.00     0.117 A 
HETATM    3  S1  UNL     1      44.523  14.558   0.508  1.00  0.00    -0.078 SA
HETATM    4  C6  UNL     1      45.526  13.197   0.910  1.00  0.00     0.036 A 
HETATM    5  C19 UNL     1      46.044  13.583   2.101  1.00  0.00     0.064 A 
HETATM    6 BR1  UNL     1      47.173  12.353   3.118  1.00  0.00    -0.047 Br
ENDROOT
BRANCH   4   7
HETATM    7  C7  UNL     1      45.680  11.988   0.075  1.00  0.00    -0.015 A 
HETATM    8  C8  UNL     1      46.935  11.805  -0.532  1.00  0.00     0.013 A 
HETATM    9  C9  UNL     1      47.234  10.731  -1.328  1.00  0.00     0.003 A 
HETATM   10  C10 UNL     1      46.233   9.802  -1.522  1.00  0.00     0.029 A 
HETATM   11  C11 UNL     1      44.986   9.915  -0.963  1.00  0.00     0.029 A 
HETATM   12  C18 UNL     1      44.750  11.041  -0.158  1.00  0.00     0.042 A 
BRANCH  11  13
HETATM   13  N1  UNL     1      43.959   8.956  -1.175  1.00  0.00    -0.385 N 
ATOM     14  H1  UNL     1      43.506   8.500  -0.384  1.00  0.00     0.160 HD
BRANCH  13  15
HETATM   15  C12 UNL     1      43.570   8.642  -2.514  1.00  0.00     0.081 C 
HETATM   16  C13 UNL     1      42.655   7.434  -2.582  1.00  0.00     0.025 C 
HETATM   17  C14 UNL     1      41.676   7.557  -3.731  1.00  0.00     0.002 C 
HETATM   18  C15 UNL     1      42.260   8.331  -4.892  1.00  0.00     0.000 C 
HETATM   19  C16 UNL     1      42.714   9.720  -4.518  1.00  0.00     0.002 C 
HETATM   20  C17 UNL     1      42.704   9.812  -3.016  1.00  0.00     0.025 C 
ENDBRANCH  13  15
ENDBRANCH  11  13
ENDBRANCH   4   7
BRANCH   2  21
HETATM   21  C5  UNL     1      44.190  16.832   2.110  1.00  0.00     0.219 C 
HETATM   22  O4  UNL     1      43.009  17.060   1.663  1.00  0.00    -0.643 OA
HETATM   23  O5  UNL     1      44.755  17.877   2.800  1.00  0.00    -0.643 OA
ENDBRANCH   2  21
BRANCH   1  24
HETATM   24  O3  UNL     1      46.169  15.299   3.833  1.00  0.00    -0.338 OA
BRANCH  24  25
HETATM   25  C2  UNL     1      47.313  15.943   4.145  1.00  0.00     0.288 C 
BRANCH  25  26
HETATM   26  C1  UNL     1      47.382  17.089   5.021  1.00  0.00     0.198 C 
HETATM   27  O1  UNL     1      46.471  17.477   5.747  1.00  0.00    -0.646 OA
HETATM   28  O2  UNL     1      48.572  17.855   5.083  1.00  0.00    -0.646 OA
ENDBRANCH  25  26
ENDBRANCH  24  25
ENDBRANCH   1  24
TORSDOF 7
ENDMDL
