MODEL 4
REMARK VINA RESULT: -7.897360433      3.862      6.279
REMARK  7 active torsions:
REMARK  status: ('A' for Active; 'I' for Inactive)
REMARK    1  A    between atoms: C1_2  and  C2_4 
REMARK    2  A    between atoms: C2_4  and  O3_5 
REMARK    3  A    between atoms: O3_5  and  C3_6 
REMARK    4  A    between atoms: C4_7  and  C5_8 
REMARK    5  A    between atoms: C6_12  and  C7_13 
REMARK    6  A    between atoms: C11_17  and  N1_18 
REMARK    7  A    between atoms: N1_18  and  C12_20 
ROOT
HETATM    1  C3  UNL     1      45.970  14.859   3.006  1.00  0.00     0.112 A 
HETATM    2  C4  UNL     1      44.956  15.733   2.707  1.00  0.00     0.117 A 
HETATM    3  S1  UNL     1      44.126  14.947   1.449  1.00  0.00    -0.078 SA
HETATM    4  C6  UNL     1      45.089  13.505   1.326  1.00  0.00     0.036 A 
HETATM    5  C19 UNL     1      46.020  13.717   2.288  1.00  0.00     0.064 A 
HETATM    6 BR1  UNL     1      47.326  12.324   2.704  1.00  0.00    -0.047 Br
ENDROOT
BRANCH   4   7
HETATM    7  C7  UNL     1      44.842  12.405   0.372  1.00  0.00    -0.015 A 
HETATM    8  C8  UNL     1      44.769  11.111   0.916  1.00  0.00     0.013 A 
HETATM    9  C9  UNL     1      44.537   9.992   0.160  1.00  0.00     0.003 A 
HETATM   10  C10 UNL     1      44.374  10.178  -1.196  1.00  0.00     0.029 A 
HETATM   11  C11 UNL     1      44.433  11.410  -1.796  1.00  0.00     0.029 A 
HETATM   12  C18 UNL     1      44.672  12.513  -0.962  1.00  0.00     0.042 A 
BRANCH  11  13
HETATM   13  N1  UNL     1      44.270  11.592  -3.196  1.00  0.00    -0.385 N 
ATOM     14  H1  UNL     1      44.964  11.229  -3.849  1.00  0.00     0.160 HD
BRANCH  13  15
HETATM   15  C12 UNL     1      43.118  12.290  -3.674  1.00  0.00     0.081 C 
HETATM   16  C13 UNL     1      43.262  12.721  -5.122  1.00  0.00     0.025 C 
HETATM   17  C14 UNL     1      41.922  12.720  -5.826  1.00  0.00     0.002 C 
HETATM   18  C15 UNL     1      40.786  13.046  -4.882  1.00  0.00     0.000 C 
HETATM   19  C16 UNL     1      40.694  12.103  -3.708  1.00  0.00     0.002 C 
HETATM   20  C17 UNL     1      41.955  11.282  -3.686  1.00  0.00     0.025 C 
ENDBRANCH  13  15
ENDBRANCH  11  13
ENDBRANCH   4   7
BRANCH   2  21
HETATM   21  C5  UNL     1      44.563  17.013   3.288  1.00  0.00     0.219 C 
HETATM   22  O4  UNL     1      44.225  17.073   4.525  1.00  0.00    -0.643 OA
HETATM   23  O5  UNL     1      44.519  18.214   2.622  1.00  0.00    -0.643 OA
ENDBRANCH   2  21
BRANCH   1  24
HETATM   24  O3  UNL     1      46.883  15.196   4.028  1.00  0.00    -0.338 OA
BRANCH  24  25
HETATM   25  C2  UNL     1      47.888  16.095   4.064  1.00  0.00     0.288 C 
BRANCH  25  26
HETATM   26  C1  UNL     1      47.908  17.250   4.930  1.00  0.00     0.198 C 
HETATM   27  O1  UNL     1      48.777  18.118   4.926  1.00  0.00    -0.646 OA
HETATM   28  O2  UNL     1      46.869  17.440   5.874  1.00  0.00    -0.646 OA
ENDBRANCH  25  26
ENDBRANCH  24  25
ENDBRANCH   1  24
TORSDOF 7
ENDMDL
