MODEL 15
REMARK VINA RESULT: -7.576040674      1.587      2.070
REMARK  7 active torsions:
REMARK  status: ('A' for Active; 'I' for Inactive)
REMARK    1  A    between atoms: C1_2  and  C2_4 
REMARK    2  A    between atoms: C2_4  and  O3_5 
REMARK    3  A    between atoms: O3_5  and  C3_6 
REMARK    4  A    between atoms: C4_7  and  C5_8 
REMARK    5  A    between atoms: C6_12  and  C7_13 
REMARK    6  A    between atoms: C11_17  and  N1_18 
REMARK    7  A    between atoms: N1_18  and  C12_20 
ROOT
HETATM    1  C3  UNL     1      45.743  14.839   2.560  1.00  0.00     0.112 A 
HETATM    2  C4  UNL     1      44.836  15.465   1.745  1.00  0.00     0.117 A 
HETATM    3  S1  UNL     1      44.539  14.309   0.535  1.00  0.00    -0.078 SA
HETATM    4  C6  UNL     1      45.581  13.035   1.095  1.00  0.00     0.036 A 
HETATM    5  C19 UNL     1      46.112  13.588   2.212  1.00  0.00     0.064 A 
HETATM    6 BR1  UNL     1      47.288  12.530   3.359  1.00  0.00    -0.047 Br
ENDROOT
BRANCH   4   7
HETATM    7  C7  UNL     1      45.748  11.728   0.426  1.00  0.00    -0.015 A 
HETATM    8  C8  UNL     1      44.627  10.880   0.422  1.00  0.00     0.013 A 
HETATM    9  C9  UNL     1      44.625   9.642  -0.165  1.00  0.00     0.003 A 
HETATM   10  C10 UNL     1      45.795   9.238  -0.772  1.00  0.00     0.029 A 
HETATM   11  C11 UNL     1      46.928  10.011  -0.807  1.00  0.00     0.029 A 
HETATM   12  C18 UNL     1      46.859  11.268  -0.186  1.00  0.00     0.042 A 
BRANCH  11  13
HETATM   13  N1  UNL     1      48.131   9.584  -1.428  1.00  0.00    -0.385 N 
ATOM     14  H1  UNL     1      48.372   9.904  -2.366  1.00  0.00     0.160 HD
BRANCH  13  15
HETATM   15  C12 UNL     1      49.001   8.697  -0.719  1.00  0.00     0.081 C 
HETATM   16  C13 UNL     1      50.099   8.135  -1.601  1.00  0.00     0.025 C 
HETATM   17  C14 UNL     1      51.365   7.890  -0.806  1.00  0.00     0.002 C 
HETATM   18  C15 UNL     1      51.068   7.527   0.632  1.00  0.00     0.000 C 
HETATM   19  C16 UNL     1      50.258   8.572   1.359  1.00  0.00     0.002 C 
HETATM   20  C17 UNL     1      49.744   9.544   0.331  1.00  0.00     0.025 C 
ENDBRANCH  13  15
ENDBRANCH  11  13
ENDBRANCH   4   7
BRANCH   2  21
HETATM   21  C5  UNL     1      44.182  16.769   1.825  1.00  0.00     0.219 C 
HETATM   22  O4  UNL     1      42.945  16.882   1.504  1.00  0.00    -0.643 OA
HETATM   23  O5  UNL     1      44.779  17.938   2.231  1.00  0.00    -0.643 OA
ENDBRANCH   2  21
BRANCH   1  24
HETATM   24  O3  UNL     1      46.228  15.523   3.695  1.00  0.00    -0.338 OA
BRANCH  24  25
HETATM   25  C2  UNL     1      47.323  16.292   3.871  1.00  0.00     0.288 C 
BRANCH  25  26
HETATM   26  C1  UNL     1      47.486  17.230   4.957  1.00  0.00     0.198 C 
HETATM   27  O1  UNL     1      46.636  17.477   5.808  1.00  0.00    -0.646 OA
HETATM   28  O2  UNL     1      48.702  17.944   5.093  1.00  0.00    -0.646 OA
ENDBRANCH  25  26
ENDBRANCH  24  25
ENDBRANCH   1  24
TORSDOF 7
ENDMDL
