MODEL 3
REMARK VINA RESULT: -8.130281473      1.138      1.713
REMARK  7 active torsions:
REMARK  status: ('A' for Active; 'I' for Inactive)
REMARK    1  A    between atoms: C1_2  and  C2_4 
REMARK    2  A    between atoms: C2_4  and  O3_5 
REMARK    3  A    between atoms: O3_5  and  C3_6 
REMARK    4  A    between atoms: C4_7  and  C5_8 
REMARK    5  A    between atoms: C6_12  and  C7_13 
REMARK    6  A    between atoms: C11_17  and  N1_18 
REMARK    7  A    between atoms: N1_18  and  C12_20 
ROOT
HETATM    1  C3  UNL     1      45.619  15.162   2.501  1.00  0.00     0.112 A 
HETATM    2  C4  UNL     1      44.784  15.239   1.415  1.00  0.00     0.117 A 
HETATM    3  S1  UNL     1      45.115  13.803   0.569  1.00  0.00    -0.078 SA
HETATM    4  C6  UNL     1      46.317  13.120   1.622  1.00  0.00     0.036 A 
HETATM    5  C19 UNL     1      46.398  14.063   2.592  1.00  0.00     0.064 A 
HETATM    6 BR1  UNL     1      47.529  13.759   4.157  1.00  0.00    -0.047 Br
ENDROOT
BRANCH   4   7
HETATM    7  C7  UNL     1      46.999  11.828   1.398  1.00  0.00    -0.015 A 
HETATM    8  C8  UNL     1      47.872  11.766   0.298  1.00  0.00     0.013 A 
HETATM    9  C9  UNL     1      48.581  10.641  -0.034  1.00  0.00     0.003 A 
HETATM   10  C10 UNL     1      48.406   9.534   0.769  1.00  0.00     0.029 A 
HETATM   11  C11 UNL     1      47.571   9.522   1.857  1.00  0.00     0.029 A 
HETATM   12  C18 UNL     1      46.876  10.709   2.140  1.00  0.00     0.042 A 
BRANCH  11  13
HETATM   13  N1  UNL     1      47.391   8.374   2.675  1.00  0.00    -0.385 N 
ATOM     14  H1  UNL     1      46.457   8.088   2.968  1.00  0.00     0.160 HD
BRANCH  13  15
HETATM   15  C12 UNL     1      48.539   7.627   3.082  1.00  0.00     0.081 C 
HETATM   16  C13 UNL     1      48.439   7.146   4.517  1.00  0.00     0.025 C 
HETATM   17  C14 UNL     1      49.150   5.821   4.699  1.00  0.00     0.002 C 
HETATM   18  C15 UNL     1      50.332   5.680   3.766  1.00  0.00     0.000 C 
HETATM   19  C16 UNL     1      49.965   5.814   2.309  1.00  0.00     0.002 C 
HETATM   20  C17 UNL     1      48.554   6.336   2.243  1.00  0.00     0.025 C 
ENDBRANCH  13  15
ENDBRANCH  11  13
ENDBRANCH   4   7
BRANCH   2  21
HETATM   21  C5  UNL     1      43.788  16.228   1.014  1.00  0.00     0.219 C 
HETATM   22  O4  UNL     1      43.483  16.359  -0.226  1.00  0.00    -0.643 OA
HETATM   23  O5  UNL     1      43.108  17.068   1.864  1.00  0.00    -0.643 OA
ENDBRANCH   2  21
BRANCH   1  24
HETATM   24  O3  UNL     1      45.615  16.213   3.442  1.00  0.00    -0.338 OA
BRANCH  24  25
HETATM   25  C2  UNL     1      46.494  17.212   3.665  1.00  0.00     0.288 C 
BRANCH  25  26
HETATM   26  C1  UNL     1      47.118  17.470   4.941  1.00  0.00     0.198 C 
HETATM   27  O1  UNL     1      46.545  17.435   6.027  1.00  0.00    -0.646 OA
HETATM   28  O2  UNL     1      48.497  17.792   4.997  1.00  0.00    -0.646 OA
ENDBRANCH  25  26
ENDBRANCH  24  25
ENDBRANCH   1  24
TORSDOF 7
ENDMDL
