MODEL 1
REMARK VINA RESULT: -8.391619589      0.000      0.000
REMARK  7 active torsions:
REMARK  status: ('A' for Active; 'I' for Inactive)
REMARK    1  A    between atoms: C1_2  and  C2_4 
REMARK    2  A    between atoms: C2_4  and  O3_5 
REMARK    3  A    between atoms: O3_5  and  C3_6 
REMARK    4  A    between atoms: C4_7  and  C5_8 
REMARK    5  A    between atoms: C6_12  and  C7_13 
REMARK    6  A    between atoms: C11_17  and  N1_18 
REMARK    7  A    between atoms: N1_18  and  C12_20 
ROOT
HETATM    1  C3  UNL     1      45.655  15.135   2.508  1.00  0.00     0.112 A 
HETATM    2  C4  UNL     1      44.748  15.351   1.502  1.00  0.00     0.117 A 
HETATM    3  S1  UNL     1      44.782  13.891   0.632  1.00  0.00    -0.078 SA
HETATM    4  C6  UNL     1      45.956  13.022   1.573  1.00  0.00     0.036 A 
HETATM    5  C19 UNL     1      46.264  13.930   2.530  1.00  0.00     0.064 A 
HETATM    6 BR1  UNL     1      47.471  13.441   3.988  1.00  0.00    -0.047 Br
ENDROOT
BRANCH   4   7
HETATM    7  C7  UNL     1      46.412  11.646   1.290  1.00  0.00    -0.015 A 
HETATM    8  C8  UNL     1      45.434  10.746   0.834  1.00  0.00     0.013 A 
HETATM    9  C9  UNL     1      45.704   9.440   0.522  1.00  0.00     0.003 A 
HETATM   10  C10 UNL     1      47.008   9.019   0.675  1.00  0.00     0.029 A 
HETATM   11  C11 UNL     1      48.014   9.840   1.116  1.00  0.00     0.029 A 
HETATM   12  C18 UNL     1      47.666  11.166   1.417  1.00  0.00     0.042 A 
BRANCH  11  13
HETATM   13  N1  UNL     1      49.353   9.395   1.278  1.00  0.00    -0.385 N 
ATOM     14  H1  UNL     1      50.127   9.931   0.886  1.00  0.00     0.160 HD
BRANCH  13  15
HETATM   15  C12 UNL     1      49.600   8.186   1.999  1.00  0.00     0.081 C 
HETATM   16  C13 UNL     1      51.058   7.769   1.950  1.00  0.00     0.025 C 
HETATM   17  C14 UNL     1      51.464   7.055   3.222  1.00  0.00     0.002 C 
HETATM   18  C15 UNL     1      50.312   6.289   3.834  1.00  0.00     0.000 C 
HETATM   19  C16 UNL     1      49.117   7.154   4.148  1.00  0.00     0.002 C 
HETATM   20  C17 UNL     1      49.335   8.488   3.486  1.00  0.00     0.025 C 
ENDBRANCH  13  15
ENDBRANCH  11  13
ENDBRANCH   4   7
BRANCH   2  21
HETATM   21  C5  UNL     1      43.880  16.483   1.191  1.00  0.00     0.219 C 
HETATM   22  O4  UNL     1      43.267  16.525   0.065  1.00  0.00    -0.643 OA
HETATM   23  O5  UNL     1      43.637  17.554   2.017  1.00  0.00    -0.643 OA
ENDBRANCH   2  21
BRANCH   1  24
HETATM   24  O3  UNL     1      45.893  16.164   3.445  1.00  0.00    -0.338 OA
BRANCH  24  25
HETATM   25  C2  UNL     1      46.931  17.012   3.591  1.00  0.00     0.288 C 
BRANCH  25  26
HETATM   26  C1  UNL     1      47.450  17.444   4.868  1.00  0.00     0.198 C 
HETATM   27  O1  UNL     1      48.603  17.813   5.072  1.00  0.00    -0.646 OA
HETATM   28  O2  UNL     1      46.601  17.460   6.002  1.00  0.00    -0.646 OA
ENDBRANCH  25  26
ENDBRANCH  24  25
ENDBRANCH   1  24
TORSDOF 7
ENDMDL
