MODEL 1
REMARK VINA RESULT: -8.515418801      0.000      0.000
REMARK  10 active torsions:
REMARK  status: ('A' for Active; 'I' for Inactive)
REMARK    1  A    between atoms: N5_13  and  C6_14 
REMARK    2  A    between atoms: C7_16  and  C8_17 
REMARK    3  A    between atoms: C8_17  and  S1_18 
REMARK    4  A    between atoms: S1_18  and  C9_19 
REMARK    5  A    between atoms: C9_19  and  C10_20 
REMARK    6  A    between atoms: C10_20  and  C11_21 
REMARK    7  A    between atoms: C11_21  and  N6_22 
REMARK    8  A    between atoms: C11_21  and  C12_26 
REMARK    9  A    between atoms: C13_29  and  O4_30 
REMARK   10  A    between atoms: C14_32  and  O5_33 
ROOT
HETATM    1  C6  UNL     1     -23.101  38.052  -5.073  1.00  0.00     0.262 C 
HETATM    2  O1  UNL     1     -22.776  37.718  -3.748  1.00  0.00    -0.355 OA
HETATM    3  C7  UNL     1     -22.126  36.476  -3.866  1.00  0.00     0.165 C 
HETATM    4  C13 UNL     1     -21.290  36.589  -5.116  1.00  0.00     0.180 C 
HETATM    5  C14 UNL     1     -21.750  37.904  -5.706  1.00  0.00     0.198 C 
ENDROOT
BRANCH   1   6
HETATM    6  N5  UNL     1     -23.674  39.359  -5.142  1.00  0.00    -0.297 N 
HETATM    7  C3  UNL     1     -24.284  39.888  -6.215  1.00  0.00     0.142 A 
HETATM    8  N3  UNL     1     -24.536  39.430  -7.451  1.00  0.00    -0.336 N 
HETATM    9  C4  UNL     1     -24.691  41.169  -5.840  1.00  0.00     0.119 A 
HETATM   10  C2  UNL     1     -25.184  40.233  -8.308  1.00  0.00     0.183 A 
ATOM     11  H3  UNL     1     -24.243  38.495  -7.732  1.00  0.00     0.168 HD
HETATM   12  N2  UNL     1     -25.583  41.465  -7.969  1.00  0.00    -0.339 N 
HETATM   13  C1  UNL     1     -25.346  41.950  -6.741  1.00  0.00     0.148 A 
ATOM     14  H2  UNL     1     -26.074  42.042  -8.653  1.00  0.00     0.167 HD
HETATM   15  N1  UNL     1     -25.774  43.265  -6.381  1.00  0.00    -0.080 NA
HETATM   16  N4  UNL     1     -24.297  41.331  -4.552  1.00  0.00    -0.346 N 
HETATM   17  C5  UNL     1     -23.679  40.239  -4.121  1.00  0.00     0.188 A 
ATOM     18  H4  UNL     1     -24.452  42.172  -3.996  1.00  0.00     0.167 HD
ENDBRANCH   1   6
BRANCH   5  19
HETATM   19  O5  UNL     1     -21.774  37.868  -7.092  1.00  0.00    -0.388 OA
ATOM     20  H5  UNL     1     -21.025  38.282  -7.504  1.00  0.00     0.210 HD
ENDBRANCH   5  19
BRANCH   3  21
HETATM   21  C8  UNL     1     -21.207  36.308  -2.693  1.00  0.00     0.108 C 
BRANCH  21  22
HETATM   22  S1  UNL     1     -20.904  37.720  -1.683  1.00  0.00    -0.166 SA
BRANCH  22  23
HETATM   23  C9  UNL     1     -22.018  37.982  -0.335  1.00  0.00     0.076 C 
BRANCH  23  24
HETATM   24  C10 UNL     1     -23.163  37.012  -0.288  1.00  0.00     0.054 C 
BRANCH  24  25
HETATM   25  C11 UNL     1     -24.338  37.522  -1.048  1.00  0.00     0.284 C 
BRANCH  25  26
HETATM   26  N6  UNL     1     -24.461  38.945  -1.003  1.00  0.00    -0.065 N 
ATOM     27  H63 UNL     1     -23.657  39.393  -1.442  1.00  0.00     0.275 HD
ATOM     28  H62 UNL     1     -25.196  39.265  -1.633  1.00  0.00     0.275 HD
ATOM     29  H61 UNL     1     -24.609  39.305  -0.060  1.00  0.00     0.275 HD
ENDBRANCH  25  26
BRANCH  25  30
HETATM   30  C12 UNL     1     -25.607  36.895  -0.655  1.00  0.00     0.204 C 
HETATM   31  O2  UNL     1     -26.322  36.349  -1.517  1.00  0.00    -0.646 OA
HETATM   32  O3  UNL     1     -26.014  36.907   0.661  1.00  0.00    -0.646 OA
ENDBRANCH  25  30
ENDBRANCH  24  25
ENDBRANCH  23  24
ENDBRANCH  22  23
ENDBRANCH  21  22
ENDBRANCH   3  21
BRANCH   4  33
HETATM   33  O4  UNL     1     -21.638  35.574  -6.028  1.00  0.00    -0.390 OA
ATOM     34  H4  UNL     1     -22.304  35.887  -6.629  1.00  0.00     0.210 HD
ENDBRANCH   4  33
TORSDOF 10
ENDMDL
