MODEL 3
REMARK VINA RESULT: -7.835796272      4.735      6.925
REMARK  10 active torsions:
REMARK  status: ('A' for Active; 'I' for Inactive)
REMARK    1  A    between atoms: N5_13  and  C6_14 
REMARK    2  A    between atoms: C7_16  and  C8_17 
REMARK    3  A    between atoms: C8_17  and  S1_18 
REMARK    4  A    between atoms: S1_18  and  C9_19 
REMARK    5  A    between atoms: C9_19  and  C10_20 
REMARK    6  A    between atoms: C10_20  and  C11_21 
REMARK    7  A    between atoms: C11_21  and  N6_22 
REMARK    8  A    between atoms: C11_21  and  C12_26 
REMARK    9  A    between atoms: C13_29  and  O4_30 
REMARK   10  A    between atoms: C14_32  and  O5_33 
ROOT
HETATM    1  C6  UNL     1     -21.934  38.630  -0.187  1.00  0.00     0.262 C 
HETATM    2  O1  UNL     1     -20.623  39.017  -0.513  1.00  0.00    -0.355 OA
HETATM    3  C7  UNL     1     -20.065  39.387   0.724  1.00  0.00     0.165 C 
HETATM    4  C13 UNL     1     -20.609  38.386   1.713  1.00  0.00     0.180 C 
HETATM    5  C14 UNL     1     -21.637  37.635   0.896  1.00  0.00     0.198 C 
ENDROOT
BRANCH   1   6
HETATM    6  N5  UNL     1     -22.610  38.111  -1.332  1.00  0.00    -0.297 N 
HETATM    7  C3  UNL     1     -22.071  37.956  -2.553  1.00  0.00     0.142 A 
HETATM    8  N3  UNL     1     -20.854  38.206  -3.062  1.00  0.00    -0.336 N 
HETATM    9  C4  UNL     1     -23.076  37.418  -3.358  1.00  0.00     0.119 A 
HETATM   10  C2  UNL     1     -20.636  37.929  -4.356  1.00  0.00     0.183 A 
ATOM     11  H3  UNL     1     -20.114  38.597  -2.480  1.00  0.00     0.168 HD
HETATM   12  N2  UNL     1     -21.586  37.414  -5.146  1.00  0.00    -0.339 N 
HETATM   13  C1  UNL     1     -22.811  37.152  -4.666  1.00  0.00     0.148 A 
ATOM     14  H2  UNL     1     -21.376  37.218  -6.125  1.00  0.00     0.167 HD
HETATM   15  N1  UNL     1     -23.824  36.601  -5.511  1.00  0.00    -0.080 NA
HETATM   16  N4  UNL     1     -24.168  37.284  -2.564  1.00  0.00    -0.346 N 
HETATM   17  C5  UNL     1     -23.894  37.701  -1.334  1.00  0.00     0.188 A 
ATOM     18  H4  UNL     1     -25.068  36.915  -2.868  1.00  0.00     0.167 HD
ENDBRANCH   1   6
BRANCH   5  19
HETATM   19  O5  UNL     1     -22.741  37.278   1.655  1.00  0.00    -0.388 OA
ATOM     20  H5  UNL     1     -22.664  36.430   2.076  1.00  0.00     0.210 HD
ENDBRANCH   5  19
BRANCH   3  21
HETATM   21  C8  UNL     1     -18.578  39.216   0.644  1.00  0.00     0.108 C 
BRANCH  21  22
HETATM   22  S1  UNL     1     -17.764  38.493   2.030  1.00  0.00    -0.166 SA
BRANCH  22  23
HETATM   23  C9  UNL     1     -16.760  39.570   3.009  1.00  0.00     0.076 C 
BRANCH  23  24
HETATM   24  C10 UNL     1     -17.537  40.585   3.797  1.00  0.00     0.054 C 
BRANCH  24  25
HETATM   25  C11 UNL     1     -17.474  41.929   3.161  1.00  0.00     0.284 C 
BRANCH  25  26
HETATM   26  N6  UNL     1     -16.854  42.914   3.990  1.00  0.00    -0.065 N 
ATOM     27  H63 UNL     1     -17.160  42.819   4.959  1.00  0.00     0.275 HD
ATOM     28  H62 UNL     1     -15.861  42.716   4.108  1.00  0.00     0.275 HD
ATOM     29  H61 UNL     1     -16.996  43.867   3.656  1.00  0.00     0.275 HD
ENDBRANCH  25  26
BRANCH  25  30
HETATM   30  C12 UNL     1     -18.777  42.418   2.689  1.00  0.00     0.204 C 
HETATM   31  O2  UNL     1     -19.822  41.849   3.057  1.00  0.00    -0.646 OA
HETATM   32  O3  UNL     1     -18.851  43.502   1.843  1.00  0.00    -0.646 OA
ENDBRANCH  25  30
ENDBRANCH  24  25
ENDBRANCH  23  24
ENDBRANCH  22  23
ENDBRANCH  21  22
ENDBRANCH   3  21
BRANCH   4  33
HETATM   33  O4  UNL     1     -21.297  39.049   2.748  1.00  0.00    -0.390 OA
ATOM     34  H4  UNL     1     -20.721  39.667   3.181  1.00  0.00     0.210 HD
ENDBRANCH   4  33
TORSDOF 10
ENDMDL
