MODEL 2
REMARK VINA RESULT: -7.974800162      3.192      4.541
REMARK  10 active torsions:
REMARK  status: ('A' for Active; 'I' for Inactive)
REMARK    1  A    between atoms: N5_13  and  C6_14 
REMARK    2  A    between atoms: C7_16  and  C8_17 
REMARK    3  A    between atoms: C8_17  and  S1_18 
REMARK    4  A    between atoms: S1_18  and  C9_19 
REMARK    5  A    between atoms: C9_19  and  C10_20 
REMARK    6  A    between atoms: C10_20  and  C11_21 
REMARK    7  A    between atoms: C11_21  and  N6_22 
REMARK    8  A    between atoms: C11_21  and  C12_26 
REMARK    9  A    between atoms: C13_29  and  O4_30 
REMARK   10  A    between atoms: C14_32  and  O5_33 
ROOT
HETATM    1  C6  UNL     1     -22.832  38.640  -2.939  1.00  0.00     0.262 C 
HETATM    2  O1  UNL     1     -21.487  38.238  -2.875  1.00  0.00    -0.355 OA
HETATM    3  C7  UNL     1     -21.222  38.172  -1.496  1.00  0.00     0.165 C 
HETATM    4  C13 UNL     1     -22.478  37.604  -0.883  1.00  0.00     0.180 C 
HETATM    5  C14 UNL     1     -23.444  37.601  -2.048  1.00  0.00     0.198 C 
ENDROOT
BRANCH   1   6
HETATM    6  N5  UNL     1     -23.296  38.646  -4.289  1.00  0.00    -0.297 N 
HETATM    7  C3  UNL     1     -23.878  39.686  -4.910  1.00  0.00     0.142 A 
HETATM    8  N3  UNL     1     -24.191  40.933  -4.523  1.00  0.00    -0.336 N 
HETATM    9  C4  UNL     1     -24.164  39.257  -6.206  1.00  0.00     0.119 A 
HETATM   10  C2  UNL     1     -24.782  41.746  -5.410  1.00  0.00     0.183 A 
ATOM     11  H3  UNL     1     -23.983  41.255  -3.577  1.00  0.00     0.168 HD
HETATM   12  N2  UNL     1     -25.066  41.354  -6.658  1.00  0.00    -0.339 N 
HETATM   13  C1  UNL     1     -24.765  40.115  -7.074  1.00  0.00     0.148 A 
ATOM     14  H2  UNL     1     -25.517  42.006  -7.301  1.00  0.00     0.167 HD
HETATM   15  N1  UNL     1     -25.068  39.699  -8.408  1.00  0.00    -0.080 NA
HETATM   16  N4  UNL     1     -23.733  37.973  -6.285  1.00  0.00    -0.346 N 
HETATM   17  C5  UNL     1     -23.205  37.595  -5.127  1.00  0.00     0.188 A 
ATOM     18  H4  UNL     1     -23.804  37.384  -7.114  1.00  0.00     0.167 HD
ENDBRANCH   1   6
BRANCH   5  19
HETATM   19  O5  UNL     1     -24.740  37.891  -1.647  1.00  0.00    -0.388 OA
ATOM     20  H5  UNL     1     -25.138  37.219  -1.108  1.00  0.00     0.210 HD
ENDBRANCH   5  19
BRANCH   3  21
HETATM   21  C8  UNL     1     -20.104  37.198  -1.273  1.00  0.00     0.108 C 
BRANCH  21  22
HETATM   22  S1  UNL     1     -19.004  37.510   0.068  1.00  0.00    -0.166 SA
BRANCH  22  23
HETATM   23  C9  UNL     1     -18.709  39.206   0.471  1.00  0.00     0.076 C 
BRANCH  23  24
HETATM   24  C10 UNL     1     -19.780  39.829   1.319  1.00  0.00     0.054 C 
BRANCH  24  25
HETATM   25  C11 UNL     1     -20.149  38.948   2.461  1.00  0.00     0.284 C 
BRANCH  25  26
HETATM   26  N6  UNL     1     -21.554  38.707   2.552  1.00  0.00    -0.065 N 
ATOM     27  H63 UNL     1     -21.859  38.051   1.833  1.00  0.00     0.275 HD
ATOM     28  H62 UNL     1     -21.775  38.158   3.383  1.00  0.00     0.275 HD
ATOM     29  H61 UNL     1     -22.111  39.562   2.524  1.00  0.00     0.275 HD
ENDBRANCH  25  26
BRANCH  25  30
HETATM   30  C12 UNL     1     -19.634  39.417   3.755  1.00  0.00     0.204 C 
HETATM   31  O2  UNL     1     -19.509  38.615   4.699  1.00  0.00    -0.646 OA
HETATM   32  O3  UNL     1     -19.289  40.739   3.931  1.00  0.00    -0.646 OA
ENDBRANCH  25  30
ENDBRANCH  24  25
ENDBRANCH  23  24
ENDBRANCH  22  23
ENDBRANCH  21  22
ENDBRANCH   3  21
BRANCH   4  33
HETATM   33  O4  UNL     1     -22.991  38.489   0.086  1.00  0.00    -0.390 OA
ATOM     34  H4  UNL     1     -23.916  38.643  -0.067  1.00  0.00     0.210 HD
ENDBRANCH   4  33
TORSDOF 10
ENDMDL
