MODEL 6
REMARK VINA RESULT: -7.806650097      3.665      7.211
REMARK  10 active torsions:
REMARK  status: ('A' for Active; 'I' for Inactive)
REMARK    1  A    between atoms: N5_13  and  C6_14 
REMARK    2  A    between atoms: C7_16  and  C8_17 
REMARK    3  A    between atoms: C8_17  and  S1_18 
REMARK    4  A    between atoms: S1_18  and  C9_19 
REMARK    5  A    between atoms: C9_19  and  C10_20 
REMARK    6  A    between atoms: C10_20  and  C11_21 
REMARK    7  A    between atoms: C11_21  and  N6_22 
REMARK    8  A    between atoms: C11_21  and  C12_26 
REMARK    9  A    between atoms: C13_29  and  O4_30 
REMARK   10  A    between atoms: C14_32  and  O5_33 
ROOT
HETATM    1  C6  UNL     1     -20.778  37.360  -0.950  1.00  0.00     0.262 C 
HETATM    2  O1  UNL     1     -20.468  38.028  -2.148  1.00  0.00    -0.355 OA
HETATM    3  C7  UNL     1     -20.742  37.073  -3.143  1.00  0.00     0.165 C 
HETATM    4  C13 UNL     1     -21.987  36.362  -2.673  1.00  0.00     0.180 C 
HETATM    5  C14 UNL     1     -22.170  36.904  -1.273  1.00  0.00     0.198 C 
ENDROOT
BRANCH   1   6
HETATM    6  N5  UNL     1     -20.661  38.241   0.167  1.00  0.00    -0.297 N 
HETATM    7  C3  UNL     1     -19.831  39.294   0.247  1.00  0.00     0.142 A 
HETATM    8  N3  UNL     1     -18.927  39.822  -0.595  1.00  0.00    -0.336 N 
HETATM    9  C4  UNL     1     -20.049  39.870   1.499  1.00  0.00     0.119 A 
HETATM   10  C2  UNL     1     -18.246  40.907  -0.199  1.00  0.00     0.183 A 
ATOM     11  H3  UNL     1     -18.763  39.408  -1.512  1.00  0.00     0.168 HD
HETATM   12  N2  UNL     1     -18.439  41.474   0.998  1.00  0.00    -0.339 N 
HETATM   13  C1  UNL     1     -19.335  40.970   1.860  1.00  0.00     0.148 A 
ATOM     14  H2  UNL     1     -17.899  42.300   1.258  1.00  0.00     0.167 HD
HETATM   15  N1  UNL     1     -19.541  41.579   3.137  1.00  0.00    -0.080 NA
HETATM   16  N4  UNL     1     -21.006  39.119   2.100  1.00  0.00    -0.346 N 
HETATM   17  C5  UNL     1     -21.382  38.130   1.300  1.00  0.00     0.188 A 
ATOM     18  H4  UNL     1     -21.381  39.290   3.033  1.00  0.00     0.167 HD
ENDBRANCH   1   6
BRANCH   5  19
HETATM   19  O5  UNL     1     -22.666  35.942  -0.406  1.00  0.00    -0.388 OA
ATOM     20  H5  UNL     1     -21.999  35.496   0.102  1.00  0.00     0.210 HD
ENDBRANCH   5  19
BRANCH   3  21
HETATM   21  C8  UNL     1     -21.060  37.794  -4.419  1.00  0.00     0.108 C 
BRANCH  21  22
HETATM   22  S1  UNL     1     -22.526  37.326  -5.278  1.00  0.00    -0.166 SA
BRANCH  22  23
HETATM   23  C9  UNL     1     -23.143  38.473  -6.474  1.00  0.00     0.076 C 
BRANCH  23  24
HETATM   24  C10 UNL     1     -23.861  39.650  -5.880  1.00  0.00     0.054 C 
BRANCH  24  25
HETATM   25  C11 UNL     1     -25.045  40.032  -6.698  1.00  0.00     0.284 C 
BRANCH  25  26
HETATM   26  N6  UNL     1     -24.989  39.532  -8.035  1.00  0.00    -0.065 N 
ATOM     27  H63 UNL     1     -24.571  40.219  -8.663  1.00  0.00     0.275 HD
ATOM     28  H62 UNL     1     -24.296  38.788  -8.115  1.00  0.00     0.275 HD
ATOM     29  H61 UNL     1     -25.896  39.223  -8.386  1.00  0.00     0.275 HD
ENDBRANCH  25  26
BRANCH  25  30
HETATM   30  C12 UNL     1     -25.306  41.478  -6.713  1.00  0.00     0.204 C 
HETATM   31  O2  UNL     1     -25.286  42.100  -7.792  1.00  0.00    -0.646 OA
HETATM   32  O3  UNL     1     -25.575  42.151  -5.541  1.00  0.00    -0.646 OA
ENDBRANCH  25  30
ENDBRANCH  24  25
ENDBRANCH  23  24
ENDBRANCH  22  23
ENDBRANCH  21  22
ENDBRANCH   3  21
BRANCH   4  33
HETATM   33  O4  UNL     1     -21.745  34.979  -2.560  1.00  0.00    -0.390 OA
ATOM     34  H4  UNL     1     -22.551  34.494  -2.686  1.00  0.00     0.210 HD
ENDBRANCH   4  33
TORSDOF 10
ENDMDL
