MODEL 1
REMARK VINA RESULT: -10.094161724      0.000      0.000
REMARK  13 active torsions:
REMARK  status: ('A' for Active; 'I' for Inactive)
REMARK    1  A    between atoms: C2_2  and  C4_4 
REMARK    2  A    between atoms: C4_4  and  N1_5 
REMARK    3  A    between atoms: N1_5  and  C5_6 
REMARK    4  A    between atoms: N1_5  and  S1_31 
REMARK    5  A    between atoms: C5_6  and  C6_7 
REMARK    6  A    between atoms: C6_7  and  O1_8 
REMARK    7  A    between atoms: C6_7  and  C7_10 
REMARK    8  A    between atoms: C7_10  and  C8_11 
REMARK    9  A    between atoms: C7_10  and  N2_18 
REMARK   10  A    between atoms: C8_11  and  C9_12 
REMARK       I    between atoms: N2_18  and  C15_20 
REMARK   11  A    between atoms: C15_20  and  O3_22 
REMARK   12  A    between atoms: O3_22  and  C16_23 
REMARK   13  A    between atoms: S1_31  and  C22_34 
ROOT
HETATM    1  C6  UNL     1      15.940  24.168  18.115  1.00  0.00     0.160 C 
ENDROOT
BRANCH   1   2
HETATM    2  C5  UNL     1      16.877  25.175  17.511  1.00  0.00     0.174 C 
BRANCH   2   3
HETATM    3  N1  UNL     1      18.271  24.822  17.593  1.00  0.00    -0.283 N 
BRANCH   3   4
HETATM    4  C4  UNL     1      18.561  23.927  18.593  1.00  0.00     0.080 C 
BRANCH   4   5
HETATM    5  C2  UNL     1      19.420  24.382  19.759  1.00  0.00     0.017 C 
HETATM    6  C1  UNL     1      20.815  23.830  19.707  1.00  0.00     0.015 C 
HETATM    7  C3  UNL     1      18.766  24.270  21.108  1.00  0.00     0.015 C 
ENDBRANCH   4   5
ENDBRANCH   3   4
BRANCH   3   8
HETATM    8  S1  UNL     1      19.011  24.884  16.106  1.00  0.00     0.264 S 
HETATM    9  O6  UNL     1      19.561  23.542  15.648  1.00  0.00    -0.200 OA
HETATM   10  O7  UNL     1      17.927  25.193  15.059  1.00  0.00    -0.200 OA
BRANCH   8  11
HETATM   11  C22 UNL     1      20.222  26.113  15.861  1.00  0.00     0.082 A 
HETATM   12  C23 UNL     1      20.203  26.980  14.792  1.00  0.00     0.028 A 
HETATM   13  C24 UNL     1      21.179  27.941  14.636  1.00  0.00     0.041 A 
HETATM   14  C25 UNL     1      22.219  28.086  15.539  1.00  0.00     0.105 A 
HETATM   15  C26 UNL     1      22.245  27.225  16.612  1.00  0.00     0.106 A 
HETATM   16  O9  UNL     1      23.318  28.939  15.644  1.00  0.00    -0.323 OA
HETATM   17  C27 UNL     1      21.254  26.246  16.771  1.00  0.00     0.065 A 
HETATM   18  O8  UNL     1      23.362  27.564  17.359  1.00  0.00    -0.323 OA
HETATM   19  C28 UNL     1      24.229  28.377  16.593  1.00  0.00     0.352 C 
ENDBRANCH   8  11
ENDBRANCH   3   8
ENDBRANCH   2   3
ENDBRANCH   1   2
BRANCH   1  20
HETATM   20  O1  UNL     1      14.807  24.740  18.646  1.00  0.00    -0.392 OA
ATOM     21  H1  UNL     1      14.064  24.147  18.660  1.00  0.00     0.210 HD
ENDBRANCH   1  20
BRANCH   1  22
HETATM   22  C7  UNL     1      15.515  23.102  17.143  1.00  0.00     0.121 C 
BRANCH  22  23
HETATM   23  C8  UNL     1      14.392  23.577  16.270  1.00  0.00     0.066 C 
BRANCH  23  24
HETATM   24  C9  UNL     1      14.291  22.771  15.030  1.00  0.00    -0.056 A 
HETATM   25  C10 UNL     1      13.050  22.437  14.544  1.00  0.00     0.007 A 
HETATM   26  C11 UNL     1      12.898  21.682  13.385  1.00  0.00     0.001 A 
HETATM   27  C12 UNL     1      14.038  21.268  12.724  1.00  0.00     0.000 A 
HETATM   28  C13 UNL     1      15.281  21.588  13.192  1.00  0.00     0.001 A 
HETATM   29  C14 UNL     1      15.411  22.349  14.358  1.00  0.00     0.007 A 
ENDBRANCH  23  24
ENDBRANCH  22  23
BRANCH  22  30
HETATM   30  N2  UNL     1      15.126  21.875  17.855  1.00  0.00    -0.329 N 
HETATM   31  C15 UNL     1      15.982  20.745  17.912  1.00  0.00     0.361 C 
HETATM   32  O2  UNL     1      17.085  20.798  17.344  1.00  0.00    -0.238 OA
ATOM     33  H2  UNL     1      14.218  21.836  18.318  1.00  0.00     0.165 HD
BRANCH  31  34
HETATM   34  O3  UNL     1      15.658  19.572  18.570  1.00  0.00    -0.296 OA
BRANCH  34  35
HETATM   35  C16 UNL     1      14.600  18.787  18.140  1.00  0.00     0.166 C 
HETATM   36  C17 UNL     1      14.798  17.309  18.372  1.00  0.00     0.204 C 
HETATM   37  O4  UNL     1      13.508  16.820  18.179  1.00  0.00    -0.358 OA
HETATM   38  C18 UNL     1      12.655  17.699  18.838  1.00  0.00     0.266 C 
HETATM   39  O5  UNL     1      12.490  17.279  20.145  1.00  0.00    -0.361 OA
HETATM   40  C21 UNL     1      13.306  19.038  18.848  1.00  0.00     0.075 C 
HETATM   41  C19 UNL     1      12.466  18.415  20.943  1.00  0.00     0.171 C 
HETATM   42  C20 UNL     1      13.499  19.326  20.317  1.00  0.00     0.038 C 
ENDBRANCH  34  35
ENDBRANCH  31  34
ENDBRANCH  22  30
ENDBRANCH   1  22
TORSDOF 13
ENDMDL
