MODEL 7
REMARK VINA RESULT: -9.849363998      1.448      1.945
REMARK  13 active torsions:
REMARK  status: ('A' for Active; 'I' for Inactive)
REMARK    1  A    between atoms: C2_2  and  C4_4 
REMARK    2  A    between atoms: C4_4  and  N1_5 
REMARK    3  A    between atoms: N1_5  and  C5_6 
REMARK    4  A    between atoms: N1_5  and  S1_31 
REMARK    5  A    between atoms: C5_6  and  C6_7 
REMARK    6  A    between atoms: C6_7  and  O1_8 
REMARK    7  A    between atoms: C6_7  and  C7_10 
REMARK    8  A    between atoms: C7_10  and  C8_11 
REMARK    9  A    between atoms: C7_10  and  N2_18 
REMARK   10  A    between atoms: C8_11  and  C9_12 
REMARK       I    between atoms: N2_18  and  C15_20 
REMARK   11  A    between atoms: C15_20  and  O3_22 
REMARK   12  A    between atoms: O3_22  and  C16_23 
REMARK   13  A    between atoms: S1_31  and  C22_34 
ROOT
HETATM    1  C6  UNL     1      15.263  23.528  18.241  1.00  0.00     0.160 C 
ENDROOT
BRANCH   1   2
HETATM    2  C5  UNL     1      16.492  24.390  18.287  1.00  0.00     0.174 C 
BRANCH   2   3
HETATM    3  N1  UNL     1      17.660  23.743  18.826  1.00  0.00    -0.283 N 
BRANCH   3   4
HETATM    4  C4  UNL     1      17.385  22.835  19.819  1.00  0.00     0.080 C 
BRANCH   4   5
HETATM    5  C2  UNL     1      18.216  22.863  21.089  1.00  0.00     0.017 C 
HETATM    6  C1  UNL     1      18.970  24.148  21.266  1.00  0.00     0.015 C 
HETATM    7  C3  UNL     1      19.042  21.629  21.331  1.00  0.00     0.015 C 
ENDBRANCH   4   5
ENDBRANCH   3   4
BRANCH   3   8
HETATM    8  S1  UNL     1      18.865  23.598  17.690  1.00  0.00     0.264 S 
HETATM    9  O6  UNL     1      20.143  22.983  18.239  1.00  0.00    -0.200 OA
HETATM   10  O7  UNL     1      18.400  22.565  16.649  1.00  0.00    -0.200 OA
BRANCH   8  11
HETATM   11  C22 UNL     1      19.265  25.014  16.757  1.00  0.00     0.082 A 
HETATM   12  C23 UNL     1      18.680  25.301  15.544  1.00  0.00     0.028 A 
HETATM   13  C24 UNL     1      19.023  26.434  14.839  1.00  0.00     0.041 A 
HETATM   14  C25 UNL     1      19.964  27.337  15.307  1.00  0.00     0.105 A 
HETATM   15  C26 UNL     1      20.553  27.057  16.519  1.00  0.00     0.106 A 
HETATM   16  O9  UNL     1      20.501  28.533  14.832  1.00  0.00    -0.323 OA
HETATM   17  C27 UNL     1      20.206  25.905  17.238  1.00  0.00     0.065 A 
HETATM   18  O8  UNL     1      21.443  28.090  16.769  1.00  0.00    -0.323 OA
HETATM   19  C28 UNL     1      21.686  28.818  15.581  1.00  0.00     0.352 C 
ENDBRANCH   8  11
ENDBRANCH   3   8
ENDBRANCH   2   3
ENDBRANCH   1   2
BRANCH   1  20
HETATM   20  O1  UNL     1      14.097  24.246  18.373  1.00  0.00    -0.392 OA
ATOM     21  H1  UNL     1      13.331  23.694  18.478  1.00  0.00     0.210 HD
ENDBRANCH   1  20
BRANCH   1  22
HETATM   22  C7  UNL     1      15.167  22.707  16.984  1.00  0.00     0.121 C 
BRANCH  22  23
HETATM   23  C8  UNL     1      14.423  23.440  15.909  1.00  0.00     0.066 C 
BRANCH  23  24
HETATM   24  C9  UNL     1      14.134  22.560  14.752  1.00  0.00    -0.056 A 
HETATM   25  C10 UNL     1      12.830  22.246  14.455  1.00  0.00     0.007 A 
HETATM   26  C11 UNL     1      12.503  21.424  13.381  1.00  0.00     0.001 A 
HETATM   27  C12 UNL     1      13.533  20.922  12.608  1.00  0.00     0.000 A 
HETATM   28  C13 UNL     1      14.836  21.223  12.887  1.00  0.00     0.001 A 
HETATM   29  C14 UNL     1      15.142  22.051  13.972  1.00  0.00     0.007 A 
ENDBRANCH  23  24
ENDBRANCH  22  23
BRANCH  22  30
HETATM   30  N2  UNL     1      14.526  21.411  17.257  1.00  0.00    -0.329 N 
HETATM   31  C15 UNL     1      15.288  20.250  17.547  1.00  0.00     0.361 C 
HETATM   32  O2  UNL     1      16.528  20.335  17.567  1.00  0.00    -0.238 OA
ATOM     33  H2  UNL     1      13.508  21.346  17.238  1.00  0.00     0.165 HD
BRANCH  31  34
HETATM   34  O3  UNL     1      14.728  19.013  17.811  1.00  0.00    -0.296 OA
BRANCH  34  35
HETATM   35  C16 UNL     1      14.287  18.692  19.085  1.00  0.00     0.166 C 
HETATM   36  C17 UNL     1      13.735  19.865  19.857  1.00  0.00     0.204 C 
HETATM   37  O4  UNL     1      13.079  19.225  20.907  1.00  0.00    -0.358 OA
HETATM   38  C18 UNL     1      12.395  18.152  20.344  1.00  0.00     0.266 C 
HETATM   39  O5  UNL     1      11.132  18.566  19.965  1.00  0.00    -0.361 OA
HETATM   40  C21 UNL     1      13.142  17.730  19.126  1.00  0.00     0.075 C 
HETATM   41  C19 UNL     1      10.839  17.946  18.758  1.00  0.00     0.171 C 
HETATM   42  C20 UNL     1      12.154  17.961  18.009  1.00  0.00     0.038 C 
ENDBRANCH  34  35
ENDBRANCH  31  34
ENDBRANCH  22  30
ENDBRANCH   1  22
TORSDOF 13
ENDMDL
