MODEL 12
REMARK VINA RESULT: -9.577031167      1.568     10.254
REMARK  13 active torsions:
REMARK  status: ('A' for Active; 'I' for Inactive)
REMARK    1  A    between atoms: C2_2  and  C4_4 
REMARK    2  A    between atoms: C4_4  and  N1_5 
REMARK    3  A    between atoms: N1_5  and  C5_6 
REMARK    4  A    between atoms: N1_5  and  S1_31 
REMARK    5  A    between atoms: C5_6  and  C6_7 
REMARK    6  A    between atoms: C6_7  and  O1_8 
REMARK    7  A    between atoms: C6_7  and  C7_10 
REMARK    8  A    between atoms: C7_10  and  C8_11 
REMARK    9  A    between atoms: C7_10  and  N2_18 
REMARK   10  A    between atoms: C8_11  and  C9_12 
REMARK       I    between atoms: N2_18  and  C15_20 
REMARK   11  A    between atoms: C15_20  and  O3_22 
REMARK   12  A    between atoms: O3_22  and  C16_23 
REMARK   13  A    between atoms: S1_31  and  C22_34 
ROOT
HETATM    1  C6  UNL     1      16.411  24.557  18.052  1.00  0.00     0.160 C 
ENDROOT
BRANCH   1   2
HETATM    2  C5  UNL     1      15.678  23.301  18.426  1.00  0.00     0.174 C 
BRANCH   2   3
HETATM    3  N1  UNL     1      15.595  22.318  17.377  1.00  0.00    -0.283 N 
BRANCH   3   4
HETATM    4  C4  UNL     1      15.767  22.834  16.116  1.00  0.00     0.080 C 
BRANCH   4   5
HETATM    5  C2  UNL     1      14.859  22.356  14.998  1.00  0.00     0.017 C 
HETATM    6  C1  UNL     1      15.609  21.998  13.749  1.00  0.00     0.015 C 
HETATM    7  C3  UNL     1      13.645  23.211  14.761  1.00  0.00     0.015 C 
ENDBRANCH   4   5
ENDBRANCH   3   4
BRANCH   3   8
HETATM    8  S1  UNL     1      16.112  20.823  17.889  1.00  0.00     0.264 S 
HETATM    9  O6  UNL     1      17.248  20.257  17.052  1.00  0.00    -0.200 OA
HETATM   10  O7  UNL     1      16.756  21.004  19.275  1.00  0.00    -0.200 OA
BRANCH   8  11
HETATM   11  C22 UNL     1      14.902  19.591  18.124  1.00  0.00     0.082 A 
HETATM   12  C23 UNL     1      15.213  18.274  18.372  1.00  0.00     0.028 A 
HETATM   13  C24 UNL     1      14.226  17.330  18.555  1.00  0.00     0.041 A 
HETATM   14  C25 UNL     1      12.880  17.654  18.502  1.00  0.00     0.105 A 
HETATM   15  C26 UNL     1      12.560  18.969  18.256  1.00  0.00     0.106 A 
HETATM   16  O9  UNL     1      11.690  16.939  18.643  1.00  0.00    -0.323 OA
HETATM   17  C27 UNL     1      13.563  19.930  18.069  1.00  0.00     0.065 A 
HETATM   18  O8  UNL     1      11.175  19.041  18.251  1.00  0.00    -0.323 OA
HETATM   19  C28 UNL     1      10.624  17.744  18.132  1.00  0.00     0.352 C 
ENDBRANCH   8  11
ENDBRANCH   3   8
ENDBRANCH   2   3
ENDBRANCH   1   2
BRANCH   1  20
HETATM   20  O1  UNL     1      15.938  25.671  18.705  1.00  0.00    -0.392 OA
ATOM     21  H1  UNL     1      16.333  26.478  18.396  1.00  0.00     0.210 HD
ENDBRANCH   1  20
BRANCH   1  22
HETATM   22  C7  UNL     1      17.893  24.467  18.293  1.00  0.00     0.121 C 
BRANCH  22  23
HETATM   23  C8  UNL     1      18.195  24.154  19.728  1.00  0.00     0.066 C 
BRANCH  23  24
HETATM   24  C9  UNL     1      19.638  24.311  20.026  1.00  0.00    -0.056 A 
HETATM   25  C10 UNL     1      20.555  23.567  19.324  1.00  0.00     0.007 A 
HETATM   26  C11 UNL     1      21.921  23.675  19.563  1.00  0.00     0.001 A 
HETATM   27  C12 UNL     1      22.343  24.559  20.538  1.00  0.00     0.000 A 
HETATM   28  C13 UNL     1      21.447  25.307  21.248  1.00  0.00     0.001 A 
HETATM   29  C14 UNL     1      20.078  25.183  20.990  1.00  0.00     0.007 A 
ENDBRANCH  23  24
ENDBRANCH  22  23
BRANCH  22  30
HETATM   30  N2  UNL     1      18.562  25.715  17.891  1.00  0.00    -0.329 N 
HETATM   31  C15 UNL     1      19.084  25.891  16.583  1.00  0.00     0.361 C 
HETATM   32  O2  UNL     1      18.972  24.965  15.763  1.00  0.00    -0.238 OA
ATOM     33  H2  UNL     1      18.653  26.471  18.569  1.00  0.00     0.165 HD
BRANCH  31  34
HETATM   34  O3  UNL     1      19.718  27.046  16.162  1.00  0.00    -0.296 OA
BRANCH  34  35
HETATM   35  C16 UNL     1      20.915  26.984  15.468  1.00  0.00     0.166 C 
HETATM   36  C17 UNL     1      21.439  28.329  15.026  1.00  0.00     0.204 C 
HETATM   37  O4  UNL     1      22.753  28.018  14.682  1.00  0.00    -0.358 OA
HETATM   38  C18 UNL     1      23.233  27.183  15.686  1.00  0.00     0.266 C 
HETATM   39  O5  UNL     1      23.802  27.952  16.684  1.00  0.00    -0.361 OA
HETATM   40  C21 UNL     1      22.069  26.449  16.257  1.00  0.00     0.075 C 
HETATM   41  C19 UNL     1      23.465  27.367  17.897  1.00  0.00     0.171 C 
HETATM   42  C20 UNL     1      22.041  26.899  17.698  1.00  0.00     0.038 C 
ENDBRANCH  34  35
ENDBRANCH  31  34
ENDBRANCH  22  30
ENDBRANCH   1  22
TORSDOF 13
ENDMDL
