MODEL 6
REMARK VINA RESULT: -9.863877409      1.499      1.872
REMARK  13 active torsions:
REMARK  status: ('A' for Active; 'I' for Inactive)
REMARK    1  A    between atoms: C2_2  and  C4_4 
REMARK    2  A    between atoms: C4_4  and  N1_5 
REMARK    3  A    between atoms: N1_5  and  C5_6 
REMARK    4  A    between atoms: N1_5  and  S1_31 
REMARK    5  A    between atoms: C5_6  and  C6_7 
REMARK    6  A    between atoms: C6_7  and  O1_8 
REMARK    7  A    between atoms: C6_7  and  C7_10 
REMARK    8  A    between atoms: C7_10  and  C8_11 
REMARK    9  A    between atoms: C7_10  and  N2_18 
REMARK   10  A    between atoms: C8_11  and  C9_12 
REMARK       I    between atoms: N2_18  and  C15_20 
REMARK   11  A    between atoms: C15_20  and  O3_22 
REMARK   12  A    between atoms: O3_22  and  C16_23 
REMARK   13  A    between atoms: S1_31  and  C22_34 
ROOT
HETATM    1  C6  UNL     1      15.403  23.887  18.181  1.00  0.00     0.160 C 
ENDROOT
BRANCH   1   2
HETATM    2  C5  UNL     1      16.556  24.703  17.669  1.00  0.00     0.174 C 
BRANCH   2   3
HETATM    3  N1  UNL     1      17.837  24.053  17.756  1.00  0.00    -0.283 N 
BRANCH   3   4
HETATM    4  C4  UNL     1      17.873  23.008  18.646  1.00  0.00     0.080 C 
BRANCH   4   5
HETATM    5  C2  UNL     1      18.766  23.114  19.868  1.00  0.00     0.017 C 
HETATM    6  C1  UNL     1      18.979  21.797  20.553  1.00  0.00     0.015 C 
HETATM    7  C3  UNL     1      18.426  24.243  20.802  1.00  0.00     0.015 C 
ENDBRANCH   4   5
ENDBRANCH   3   4
BRANCH   3   8
HETATM    8  S1  UNL     1      18.665  24.126  16.316  1.00  0.00     0.264 S 
HETATM    9  O6  UNL     1      19.583  22.936  16.086  1.00  0.00    -0.200 OA
HETATM   10  O7  UNL     1      17.635  23.998  15.181  1.00  0.00    -0.200 OA
BRANCH   8  11
HETATM   11  C22 UNL     1      19.531  25.596  15.960  1.00  0.00     0.082 A 
HETATM   12  C23 UNL     1      19.162  26.457  14.951  1.00  0.00     0.028 A 
HETATM   13  C24 UNL     1      19.873  27.611  14.704  1.00  0.00     0.041 A 
HETATM   14  C25 UNL     1      20.985  27.964  15.450  1.00  0.00     0.105 A 
HETATM   15  C26 UNL     1      21.361  27.110  16.461  1.00  0.00     0.106 A 
HETATM   16  O9  UNL     1      21.879  29.035  15.435  1.00  0.00    -0.323 OA
HETATM   17  C27 UNL     1      20.639  25.935  16.713  1.00  0.00     0.065 A 
HETATM   18  O8  UNL     1      22.481  27.672  17.052  1.00  0.00    -0.323 OA
HETATM   19  C28 UNL     1      23.024  28.670  16.210  1.00  0.00     0.352 C 
ENDBRANCH   8  11
ENDBRANCH   3   8
ENDBRANCH   2   3
ENDBRANCH   1   2
BRANCH   1  20
HETATM   20  O1  UNL     1      14.333  24.656  18.574  1.00  0.00    -0.392 OA
ATOM     21  H1  UNL     1      13.594  24.138  18.872  1.00  0.00     0.210 HD
ENDBRANCH   1  20
BRANCH   1  22
HETATM   22  C7  UNL     1      14.911  22.875  17.183  1.00  0.00     0.121 C 
BRANCH  22  23
HETATM   23  C8  UNL     1      14.301  23.541  15.986  1.00  0.00     0.066 C 
BRANCH  23  24
HETATM   24  C9  UNL     1      14.007  22.562  14.912  1.00  0.00    -0.056 A 
HETATM   25  C10 UNL     1      12.715  22.421  14.466  1.00  0.00     0.007 A 
HETATM   26  C11 UNL     1      12.383  21.518  13.461  1.00  0.00     0.001 A 
HETATM   27  C12 UNL     1      13.395  20.753  12.914  1.00  0.00     0.000 A 
HETATM   28  C13 UNL     1      14.685  20.878  13.344  1.00  0.00     0.001 A 
HETATM   29  C14 UNL     1      14.997  21.793  14.355  1.00  0.00     0.007 A 
ENDBRANCH  23  24
ENDBRANCH  22  23
BRANCH  22  30
HETATM   30  N2  UNL     1      13.943  21.958  17.806  1.00  0.00    -0.329 N 
HETATM   31  C15 UNL     1      14.247  20.589  18.020  1.00  0.00     0.361 C 
HETATM   32  O2  UNL     1      15.358  20.158  17.669  1.00  0.00    -0.238 OA
ATOM     33  H2  UNL     1      13.032  22.316  18.091  1.00  0.00     0.165 HD
BRANCH  31  34
HETATM   34  O3  UNL     1      13.369  19.693  18.603  1.00  0.00    -0.296 OA
BRANCH  34  35
HETATM   35  C16 UNL     1      12.055  19.606  18.173  1.00  0.00     0.166 C 
HETATM   36  C17 UNL     1      11.893  19.685  16.675  1.00  0.00     0.204 C 
HETATM   37  O4  UNL     1      10.581  19.243  16.512  1.00  0.00    -0.358 OA
HETATM   38  C18 UNL     1      10.435  18.140  17.348  1.00  0.00     0.266 C 
HETATM   39  O5  UNL     1      10.780  16.995  16.655  1.00  0.00    -0.361 OA
HETATM   40  C21 UNL     1      11.378  18.310  18.488  1.00  0.00     0.075 C 
HETATM   41  C19 UNL     1      11.467  16.171  17.537  1.00  0.00     0.171 C 
HETATM   42  C20 UNL     1      12.307  17.127  18.356  1.00  0.00     0.038 C 
ENDBRANCH  34  35
ENDBRANCH  31  34
ENDBRANCH  22  30
ENDBRANCH   1  22
TORSDOF 13
ENDMDL
