MODEL 10
REMARK VINA RESULT: -9.698560216      2.981      9.416
REMARK  13 active torsions:
REMARK  status: ('A' for Active; 'I' for Inactive)
REMARK    1  A    between atoms: C2_2  and  C4_4 
REMARK    2  A    between atoms: C4_4  and  N1_5 
REMARK    3  A    between atoms: N1_5  and  C5_6 
REMARK    4  A    between atoms: N1_5  and  S1_31 
REMARK    5  A    between atoms: C5_6  and  C6_7 
REMARK    6  A    between atoms: C6_7  and  O1_8 
REMARK    7  A    between atoms: C6_7  and  C7_10 
REMARK    8  A    between atoms: C7_10  and  C8_11 
REMARK    9  A    between atoms: C7_10  and  N2_18 
REMARK   10  A    between atoms: C8_11  and  C9_12 
REMARK       I    between atoms: N2_18  and  C15_20 
REMARK   11  A    between atoms: C15_20  and  O3_22 
REMARK   12  A    between atoms: O3_22  and  C16_23 
REMARK   13  A    between atoms: S1_31  and  C22_34 
ROOT
HETATM    1  C6  UNL     1      17.942  21.813  18.610  1.00  0.00     0.160 C 
ENDROOT
BRANCH   1   2
HETATM    2  C5  UNL     1      17.392  20.878  17.571  1.00  0.00     0.174 C 
BRANCH   2   3
HETATM    3  N1  UNL     1      15.959  20.741  17.585  1.00  0.00    -0.283 N 
BRANCH   3   4
HETATM    4  C4  UNL     1      15.420  20.648  18.844  1.00  0.00     0.080 C 
BRANCH   4   5
HETATM    5  C2  UNL     1      14.737  19.357  19.256  1.00  0.00     0.017 C 
HETATM    6  C1  UNL     1      14.927  18.251  18.261  1.00  0.00     0.015 C 
HETATM    7  C3  UNL     1      13.319  19.517  19.732  1.00  0.00     0.015 C 
ENDBRANCH   4   5
ENDBRANCH   3   4
BRANCH   3   8
HETATM    8  S1  UNL     1      15.254  21.502  16.285  1.00  0.00     0.264 S 
HETATM    9  O6  UNL     1      14.956  22.972  16.534  1.00  0.00    -0.200 OA
HETATM   10  O7  UNL     1      16.294  21.544  15.152  1.00  0.00    -0.200 OA
BRANCH   8  11
HETATM   11  C22 UNL     1      13.856  20.745  15.571  1.00  0.00     0.082 A 
HETATM   12  C23 UNL     1      12.699  20.496  16.273  1.00  0.00     0.028 A 
HETATM   13  C24 UNL     1      11.614  19.898  15.670  1.00  0.00     0.041 A 
HETATM   14  C25 UNL     1      11.629  19.520  14.337  1.00  0.00     0.105 A 
HETATM   15  C26 UNL     1      12.782  19.767  13.627  1.00  0.00     0.106 A 
HETATM   16  O9  UNL     1      10.714  18.915  13.476  1.00  0.00    -0.323 OA
HETATM   17  C27 UNL     1      13.887  20.374  14.240  1.00  0.00     0.065 A 
HETATM   18  O8  UNL     1      12.555  19.307  12.339  1.00  0.00    -0.323 OA
HETATM   19  C28 UNL     1      11.423  18.460  12.320  1.00  0.00     0.352 C 
ENDBRANCH   8  11
ENDBRANCH   3   8
ENDBRANCH   2   3
ENDBRANCH   1   2
BRANCH   1  20
HETATM   20  O1  UNL     1      18.955  21.253  19.355  1.00  0.00    -0.392 OA
ATOM     21  H1  UNL     1      19.727  21.805  19.404  1.00  0.00     0.210 HD
ENDBRANCH   1  20
BRANCH   1  22
HETATM   22  C7  UNL     1      18.447  23.106  18.031  1.00  0.00     0.121 C 
BRANCH  22  23
HETATM   23  C8  UNL     1      18.980  22.910  16.642  1.00  0.00     0.066 C 
BRANCH  23  24
HETATM   24  C9  UNL     1      19.005  24.184  15.887  1.00  0.00    -0.056 A 
HETATM   25  C10 UNL     1      20.214  24.738  15.541  1.00  0.00     0.007 A 
HETATM   26  C11 UNL     1      20.295  25.932  14.832  1.00  0.00     0.001 A 
HETATM   27  C12 UNL     1      19.116  26.560  14.478  1.00  0.00     0.000 A 
HETATM   28  C13 UNL     1      17.904  26.027  14.813  1.00  0.00     0.001 A 
HETATM   29  C14 UNL     1      17.845  24.825  15.525  1.00  0.00     0.007 A 
ENDBRANCH  23  24
ENDBRANCH  22  23
BRANCH  22  30
HETATM   30  N2  UNL     1      19.480  23.696  18.896  1.00  0.00    -0.329 N 
HETATM   31  C15 UNL     1      19.143  24.409  20.076  1.00  0.00     0.361 C 
HETATM   32  O2  UNL     1      17.945  24.537  20.379  1.00  0.00    -0.238 OA
ATOM     33  H2  UNL     1      20.462  23.589  18.642  1.00  0.00     0.165 HD
BRANCH  31  34
HETATM   34  O3  UNL     1      20.081  24.978  20.919  1.00  0.00    -0.296 OA
BRANCH  34  35
HETATM   35  C16 UNL     1      21.006  25.890  20.437  1.00  0.00     0.166 C 
HETATM   36  C17 UNL     1      21.148  27.128  21.288  1.00  0.00     0.204 C 
HETATM   37  O4  UNL     1      22.329  27.676  20.790  1.00  0.00    -0.358 OA
HETATM   38  C18 UNL     1      23.217  26.616  20.638  1.00  0.00     0.266 C 
HETATM   39  O5  UNL     1      23.931  26.448  21.810  1.00  0.00    -0.361 OA
HETATM   40  C21 UNL     1      22.414  25.386  20.390  1.00  0.00     0.075 C 
HETATM   41  C19 UNL     1      24.074  25.082  22.013  1.00  0.00     0.171 C 
HETATM   42  C20 UNL     1      22.751  24.502  21.566  1.00  0.00     0.038 C 
ENDBRANCH  34  35
ENDBRANCH  31  34
ENDBRANCH  22  30
ENDBRANCH   1  22
TORSDOF 13
ENDMDL
