MODEL 4
REMARK VINA RESULT: -9.892482054      0.980      1.393
REMARK  13 active torsions:
REMARK  status: ('A' for Active; 'I' for Inactive)
REMARK    1  A    between atoms: C2_2  and  C4_4 
REMARK    2  A    between atoms: C4_4  and  N1_5 
REMARK    3  A    between atoms: N1_5  and  C5_6 
REMARK    4  A    between atoms: N1_5  and  S1_31 
REMARK    5  A    between atoms: C5_6  and  C6_7 
REMARK    6  A    between atoms: C6_7  and  O1_8 
REMARK    7  A    between atoms: C6_7  and  C7_10 
REMARK    8  A    between atoms: C7_10  and  C8_11 
REMARK    9  A    between atoms: C7_10  and  N2_18 
REMARK   10  A    between atoms: C8_11  and  C9_12 
REMARK       I    between atoms: N2_18  and  C15_20 
REMARK   11  A    between atoms: C15_20  and  O3_22 
REMARK   12  A    between atoms: O3_22  and  C16_23 
REMARK   13  A    between atoms: S1_31  and  C22_34 
ROOT
HETATM    1  C6  UNL     1      16.017  24.189  18.031  1.00  0.00     0.160 C 
ENDROOT
BRANCH   1   2
HETATM    2  C5  UNL     1      16.932  25.161  17.343  1.00  0.00     0.174 C 
BRANCH   2   3
HETATM    3  N1  UNL     1      18.336  24.894  17.522  1.00  0.00    -0.283 N 
BRANCH   3   4
HETATM    4  C4  UNL     1      18.609  23.999  18.527  1.00  0.00     0.080 C 
BRANCH   4   5
HETATM    5  C2  UNL     1      19.511  24.431  19.669  1.00  0.00     0.017 C 
HETATM    6  C1  UNL     1      20.895  23.863  19.568  1.00  0.00     0.015 C 
HETATM    7  C3  UNL     1      18.898  24.314  21.037  1.00  0.00     0.015 C 
ENDBRANCH   4   5
ENDBRANCH   3   4
BRANCH   3   8
HETATM    8  S1  UNL     1      19.177  25.032  16.095  1.00  0.00     0.264 S 
HETATM    9  O6  UNL     1      19.809  23.726  15.637  1.00  0.00    -0.200 OA
HETATM   10  O7  UNL     1      18.159  25.335  14.982  1.00  0.00    -0.200 OA
BRANCH   8  11
HETATM   11  C22 UNL     1      20.353  26.311  15.974  1.00  0.00     0.082 A 
HETATM   12  C23 UNL     1      20.186  27.409  15.162  1.00  0.00     0.028 A 
HETATM   13  C24 UNL     1      21.139  28.402  15.098  1.00  0.00     0.041 A 
HETATM   14  C25 UNL     1      22.307  28.349  15.842  1.00  0.00     0.105 A 
HETATM   15  C26 UNL     1      22.483  27.255  16.658  1.00  0.00     0.106 A 
HETATM   16  O9  UNL     1      23.421  29.176  15.983  1.00  0.00    -0.323 OA
HETATM   17  C27 UNL     1      21.514  26.245  16.723  1.00  0.00     0.065 A 
HETATM   18  O8  UNL     1      23.705  27.430  17.288  1.00  0.00    -0.323 OA
HETATM   19  C28 UNL     1      24.457  28.423  16.620  1.00  0.00     0.352 C 
ENDBRANCH   8  11
ENDBRANCH   3   8
ENDBRANCH   2   3
ENDBRANCH   1   2
BRANCH   1  20
HETATM   20  O1  UNL     1      14.940  24.798  18.632  1.00  0.00    -0.392 OA
ATOM     21  H1  UNL     1      14.497  24.236  19.257  1.00  0.00     0.210 HD
ENDBRANCH   1  20
BRANCH   1  22
HETATM   22  C7  UNL     1      15.496  23.119  17.112  1.00  0.00     0.121 C 
BRANCH  22  23
HETATM   23  C8  UNL     1      15.156  23.677  15.762  1.00  0.00     0.066 C 
BRANCH  23  24
HETATM   24  C9  UNL     1      14.455  22.678  14.922  1.00  0.00    -0.056 A 
HETATM   25  C10 UNL     1      13.137  22.882  14.592  1.00  0.00     0.007 A 
HETATM   26  C11 UNL     1      12.430  21.977  13.807  1.00  0.00     0.001 A 
HETATM   27  C12 UNL     1      13.092  20.848  13.361  1.00  0.00     0.000 A 
HETATM   28  C13 UNL     1      14.402  20.626  13.679  1.00  0.00     0.001 A 
HETATM   29  C14 UNL     1      15.093  21.550  14.468  1.00  0.00     0.007 A 
ENDBRANCH  23  24
ENDBRANCH  22  23
BRANCH  22  30
HETATM   30  N2  UNL     1      14.322  22.454  17.700  1.00  0.00    -0.329 N 
HETATM   31  C15 UNL     1      14.448  21.277  18.482  1.00  0.00     0.361 C 
HETATM   32  O2  UNL     1      15.580  20.800  18.670  1.00  0.00    -0.238 OA
ATOM     33  H2  UNL     1      13.396  22.850  17.541  1.00  0.00     0.165 HD
BRANCH  31  34
HETATM   34  O3  UNL     1      13.374  20.621  19.055  1.00  0.00    -0.296 OA
BRANCH  34  35
HETATM   35  C16 UNL     1      13.372  19.242  19.183  1.00  0.00     0.166 C 
HETATM   36  C17 UNL     1      12.496  18.729  20.300  1.00  0.00     0.204 C 
HETATM   37  O4  UNL     1      12.414  17.373  19.991  1.00  0.00    -0.358 OA
HETATM   38  C18 UNL     1      12.207  17.297  18.617  1.00  0.00     0.266 C 
HETATM   39  O5  UNL     1      10.849  17.317  18.359  1.00  0.00    -0.361 OA
HETATM   40  C21 UNL     1      12.826  18.504  18.001  1.00  0.00     0.075 C 
HETATM   41  C19 UNL     1      10.657  18.089  17.221  1.00  0.00     0.171 C 
HETATM   42  C20 UNL     1      11.655  19.216  17.368  1.00  0.00     0.038 C 
ENDBRANCH  34  35
ENDBRANCH  31  34
ENDBRANCH  22  30
ENDBRANCH   1  22
TORSDOF 13
ENDMDL
