MODEL 3
REMARK VINA RESULT: -9.975614885      2.811      6.862
REMARK  13 active torsions:
REMARK  status: ('A' for Active; 'I' for Inactive)
REMARK    1  A    between atoms: C2_2  and  C4_4 
REMARK    2  A    between atoms: C4_4  and  N1_5 
REMARK    3  A    between atoms: N1_5  and  C5_6 
REMARK    4  A    between atoms: N1_5  and  S1_31 
REMARK    5  A    between atoms: C5_6  and  C6_7 
REMARK    6  A    between atoms: C6_7  and  O1_8 
REMARK    7  A    between atoms: C6_7  and  C7_10 
REMARK    8  A    between atoms: C7_10  and  C8_11 
REMARK    9  A    between atoms: C7_10  and  N2_18 
REMARK   10  A    between atoms: C8_11  and  C9_12 
REMARK       I    between atoms: N2_18  and  C15_20 
REMARK   11  A    between atoms: C15_20  and  O3_22 
REMARK   12  A    between atoms: O3_22  and  C16_23 
REMARK   13  A    between atoms: S1_31  and  C22_34 
ROOT
HETATM    1  C6  UNL     1      16.545  24.234  18.140  1.00  0.00     0.160 C 
ENDROOT
BRANCH   1   2
HETATM    2  C5  UNL     1      17.799  24.486  18.928  1.00  0.00     0.174 C 
BRANCH   2   3
HETATM    3  N1  UNL     1      18.795  23.452  18.818  1.00  0.00    -0.283 N 
BRANCH   3   4
HETATM    4  C4  UNL     1      20.079  23.924  18.705  1.00  0.00     0.080 C 
BRANCH   4   5
HETATM    5  C2  UNL     1      20.424  25.267  19.323  1.00  0.00     0.017 C 
HETATM    6  C1  UNL     1      21.187  26.161  18.391  1.00  0.00     0.015 C 
HETATM    7  C3  UNL     1      20.999  25.195  20.711  1.00  0.00     0.015 C 
ENDBRANCH   4   5
ENDBRANCH   3   4
BRANCH   3   8
HETATM    8  S1  UNL     1      18.340  22.070  19.622  1.00  0.00     0.264 S 
HETATM    9  O6  UNL     1      19.501  21.132  19.917  1.00  0.00    -0.200 OA
HETATM   10  O7  UNL     1      17.862  22.484  21.024  1.00  0.00    -0.200 OA
BRANCH   8  11
HETATM   11  C22 UNL     1      17.015  21.152  18.959  1.00  0.00     0.082 A 
HETATM   12  C23 UNL     1      17.073  20.533  17.732  1.00  0.00     0.028 A 
HETATM   13  C24 UNL     1      16.004  19.814  17.244  1.00  0.00     0.041 A 
HETATM   14  C25 UNL     1      14.824  19.676  17.957  1.00  0.00     0.105 A 
HETATM   15  C26 UNL     1      14.757  20.291  19.186  1.00  0.00     0.106 A 
HETATM   16  O9  UNL     1      13.608  19.030  17.732  1.00  0.00    -0.323 OA
HETATM   17  C27 UNL     1      15.844  21.024  19.683  1.00  0.00     0.065 A 
HETATM   18  O8  UNL     1      13.499  20.013  19.696  1.00  0.00    -0.323 OA
HETATM   19  C28 UNL     1      12.653  19.540  18.666  1.00  0.00     0.352 C 
ENDBRANCH   8  11
ENDBRANCH   3   8
ENDBRANCH   2   3
ENDBRANCH   1   2
BRANCH   1  20
HETATM   20  O1  UNL     1      15.536  25.120  18.438  1.00  0.00    -0.392 OA
ATOM     21  H1  UNL     1      14.701  24.693  18.593  1.00  0.00     0.210 HD
ENDBRANCH   1  20
BRANCH   1  22
HETATM   22  C7  UNL     1      16.769  24.264  16.653  1.00  0.00     0.121 C 
BRANCH  22  23
HETATM   23  C8  UNL     1      17.209  25.622  16.194  1.00  0.00     0.066 C 
BRANCH  23  24
HETATM   24  C9  UNL     1      18.588  25.591  15.651  1.00  0.00    -0.056 A 
HETATM   25  C10 UNL     1      19.178  26.764  15.246  1.00  0.00     0.007 A 
HETATM   26  C11 UNL     1      20.469  26.792  14.729  1.00  0.00     0.001 A 
HETATM   27  C12 UNL     1      21.156  25.597  14.629  1.00  0.00     0.000 A 
HETATM   28  C13 UNL     1      20.587  24.420  15.026  1.00  0.00     0.001 A 
HETATM   29  C14 UNL     1      19.288  24.415  15.544  1.00  0.00     0.007 A 
ENDBRANCH  23  24
ENDBRANCH  22  23
BRANCH  22  30
HETATM   30  N2  UNL     1      15.552  23.852  15.936  1.00  0.00    -0.329 N 
HETATM   31  C15 UNL     1      15.564  22.780  15.006  1.00  0.00     0.361 C 
HETATM   32  O2  UNL     1      16.631  22.180  14.795  1.00  0.00    -0.238 OA
ATOM     33  H2  UNL     1      14.679  24.349  16.111  1.00  0.00     0.165 HD
BRANCH  31  34
HETATM   34  O3  UNL     1      14.444  22.358  14.312  1.00  0.00    -0.296 OA
BRANCH  34  35
HETATM   35  C16 UNL     1      13.398  21.730  14.968  1.00  0.00     0.166 C 
HETATM   36  C17 UNL     1      12.036  22.278  14.617  1.00  0.00     0.204 C 
HETATM   37  O4  UNL     1      11.197  21.286  15.122  1.00  0.00    -0.358 OA
HETATM   38  C18 UNL     1      11.767  20.070  14.760  1.00  0.00     0.266 C 
HETATM   39  O5  UNL     1      11.278  19.687  13.525  1.00  0.00    -0.361 OA
HETATM   40  C21 UNL     1      13.238  20.278  14.645  1.00  0.00     0.075 C 
HETATM   41  C19 UNL     1      12.332  19.121  12.821  1.00  0.00     0.171 C 
HETATM   42  C20 UNL     1      13.524  19.975  13.194  1.00  0.00     0.038 C 
ENDBRANCH  34  35
ENDBRANCH  31  34
ENDBRANCH  22  30
ENDBRANCH   1  22
TORSDOF 13
ENDMDL
