MODEL 9
REMARK VINA RESULT: -9.470792113      2.396      3.697
REMARK  13 active torsions:
REMARK  status: ('A' for Active; 'I' for Inactive)
REMARK    1  A    between atoms: C2_2  and  C4_4 
REMARK    2  A    between atoms: C4_4  and  N1_5 
REMARK    3  A    between atoms: N1_5  and  C5_6 
REMARK    4  A    between atoms: N1_5  and  S1_31 
REMARK    5  A    between atoms: C5_6  and  C6_7 
REMARK    6  A    between atoms: C6_7  and  O1_8 
REMARK    7  A    between atoms: C6_7  and  C7_10 
REMARK    8  A    between atoms: C7_10  and  C8_11 
REMARK    9  A    between atoms: C7_10  and  N2_18 
REMARK   10  A    between atoms: C8_11  and  C9_12 
REMARK       I    between atoms: N2_18  and  C15_20 
REMARK   11  A    between atoms: C15_20  and  O3_22 
REMARK   12  A    between atoms: O3_22  and  C16_23 
REMARK   13  A    between atoms: S1_31  and  C22_34 
ROOT
HETATM    1  C6  UNL     1      16.295  22.695  18.740  1.00  0.00     0.160 C 
ENDROOT
BRANCH   1   2
HETATM    2  C5  UNL     1      17.663  22.520  18.145  1.00  0.00     0.174 C 
BRANCH   2   3
HETATM    3  N1  UNL     1      18.455  23.721  18.097  1.00  0.00    -0.283 N 
BRANCH   3   4
HETATM    4  C4  UNL     1      19.625  23.646  18.811  1.00  0.00     0.080 C 
BRANCH   4   5
HETATM    5  C2  UNL     1      19.818  24.566  20.002  1.00  0.00     0.017 C 
HETATM    6  C1  UNL     1      21.212  24.520  20.556  1.00  0.00     0.015 C 
HETATM    7  C3  UNL     1      18.740  24.481  21.047  1.00  0.00     0.015 C 
ENDBRANCH   4   5
ENDBRANCH   3   4
BRANCH   3   8
HETATM    8  S1  UNL     1      18.246  24.540  16.665  1.00  0.00     0.264 S 
HETATM    9  O6  UNL     1      17.663  23.680  15.556  1.00  0.00    -0.200 OA
HETATM   10  O7  UNL     1      17.157  25.602  16.892  1.00  0.00    -0.200 OA
BRANCH   8  11
HETATM   11  C22 UNL     1      19.607  25.433  16.044  1.00  0.00     0.082 A 
HETATM   12  C23 UNL     1      20.415  24.960  15.035  1.00  0.00     0.028 A 
HETATM   13  C24 UNL     1      21.481  25.700  14.570  1.00  0.00     0.041 A 
HETATM   14  C25 UNL     1      21.793  26.947  15.086  1.00  0.00     0.105 A 
HETATM   15  C26 UNL     1      20.989  27.428  16.094  1.00  0.00     0.106 A 
HETATM   16  O9  UNL     1      22.777  27.901  14.826  1.00  0.00    -0.323 OA
HETATM   17  C27 UNL     1      19.905  26.677  16.569  1.00  0.00     0.065 A 
HETATM   18  O8  UNL     1      21.494  28.672  16.438  1.00  0.00    -0.323 OA
HETATM   19  C28 UNL     1      22.801  28.824  15.919  1.00  0.00     0.352 C 
ENDBRANCH   8  11
ENDBRANCH   3   8
ENDBRANCH   2   3
ENDBRANCH   1   2
BRANCH   1  20
HETATM   20  O1  UNL     1      15.991  24.009  19.011  1.00  0.00    -0.392 OA
ATOM     21  H1  UNL     1      16.724  24.596  18.868  1.00  0.00     0.210 HD
ENDBRANCH   1  20
BRANCH   1  22
HETATM   22  C7  UNL     1      15.200  22.131  17.876  1.00  0.00     0.121 C 
BRANCH  22  23
HETATM   23  C8  UNL     1      14.476  23.215  17.135  1.00  0.00     0.066 C 
BRANCH  23  24
HETATM   24  C9  UNL     1      14.146  22.799  15.752  1.00  0.00    -0.056 A 
HETATM   25  C10 UNL     1      14.912  21.837  15.137  1.00  0.00     0.007 A 
HETATM   26  C11 UNL     1      14.647  21.410  13.840  1.00  0.00     0.001 A 
HETATM   27  C12 UNL     1      13.582  21.983  13.171  1.00  0.00     0.000 A 
HETATM   28  C13 UNL     1      12.809  22.942  13.764  1.00  0.00     0.001 A 
HETATM   29  C14 UNL     1      13.093  23.356  15.069  1.00  0.00     0.007 A 
ENDBRANCH  23  24
ENDBRANCH  22  23
BRANCH  22  30
HETATM   30  N2  UNL     1      14.255  21.343  18.683  1.00  0.00    -0.329 N 
HETATM   31  C15 UNL     1      14.304  19.926  18.713  1.00  0.00     0.361 C 
HETATM   32  O2  UNL     1      15.167  19.340  18.038  1.00  0.00    -0.238 OA
ATOM     33  H2  UNL     1      13.547  21.829  19.233  1.00  0.00     0.165 HD
BRANCH  31  34
HETATM   34  O3  UNL     1      13.437  19.146  19.457  1.00  0.00    -0.296 OA
BRANCH  34  35
HETATM   35  C16 UNL     1      12.070  19.195  19.234  1.00  0.00     0.166 C 
HETATM   36  C17 UNL     1      11.684  19.855  17.933  1.00  0.00     0.204 C 
HETATM   37  O4  UNL     1      10.350  19.471  17.810  1.00  0.00    -0.358 OA
HETATM   38  C18 UNL     1      10.298  18.124  18.152  1.00  0.00     0.266 C 
HETATM   39  O5  UNL     1      10.499  17.358  17.019  1.00  0.00    -0.361 OA
HETATM   40  C21 UNL     1      11.409  17.858  19.108  1.00  0.00     0.075 C 
HETATM   41  C19 UNL     1      11.285  16.275  17.387  1.00  0.00     0.171 C 
HETATM   42  C20 UNL     1      12.269  16.855  18.379  1.00  0.00     0.038 C 
ENDBRANCH  34  35
ENDBRANCH  31  34
ENDBRANCH  22  30
ENDBRANCH   1  22
TORSDOF 13
ENDMDL
