MODEL 6
REMARK VINA RESULT: -9.540465479      2.468      9.508
REMARK  13 active torsions:
REMARK  status: ('A' for Active; 'I' for Inactive)
REMARK    1  A    between atoms: C2_2  and  C4_4 
REMARK    2  A    between atoms: C4_4  and  N1_5 
REMARK    3  A    between atoms: N1_5  and  C5_6 
REMARK    4  A    between atoms: N1_5  and  S1_31 
REMARK    5  A    between atoms: C5_6  and  C6_7 
REMARK    6  A    between atoms: C6_7  and  O1_8 
REMARK    7  A    between atoms: C6_7  and  C7_10 
REMARK    8  A    between atoms: C7_10  and  C8_11 
REMARK    9  A    between atoms: C7_10  and  N2_18 
REMARK   10  A    between atoms: C8_11  and  C9_12 
REMARK       I    between atoms: N2_18  and  C15_20 
REMARK   11  A    between atoms: C15_20  and  O3_22 
REMARK   12  A    between atoms: O3_22  and  C16_23 
REMARK   13  A    between atoms: S1_31  and  C22_34 
ROOT
HETATM    1  C6  UNL     1      16.630  24.576  17.755  1.00  0.00     0.160 C 
ENDROOT
BRANCH   1   2
HETATM    2  C5  UNL     1      15.542  23.637  18.192  1.00  0.00     0.174 C 
BRANCH   2   3
HETATM    3  N1  UNL     1      15.312  22.529  17.301  1.00  0.00    -0.283 N 
BRANCH   3   4
HETATM    4  C4  UNL     1      15.336  22.869  15.971  1.00  0.00     0.080 C 
BRANCH   4   5
HETATM    5  C2  UNL     1      14.331  22.228  15.032  1.00  0.00     0.017 C 
HETATM    6  C1  UNL     1      14.947  21.766  13.744  1.00  0.00     0.015 C 
HETATM    7  C3  UNL     1      13.049  22.995  14.858  1.00  0.00     0.015 C 
ENDBRANCH   4   5
ENDBRANCH   3   4
BRANCH   3   8
HETATM    8  S1  UNL     1      15.861  21.097  17.943  1.00  0.00     0.264 S 
HETATM    9  O6  UNL     1      17.061  20.525  17.206  1.00  0.00    -0.200 OA
HETATM   10  O7  UNL     1      16.424  21.401  19.342  1.00  0.00    -0.200 OA
BRANCH   8  11
HETATM   11  C22 UNL     1      14.691  19.833  18.205  1.00  0.00     0.082 A 
HETATM   12  C23 UNL     1      15.041  18.514  18.386  1.00  0.00     0.028 A 
HETATM   13  C24 UNL     1      14.085  17.544  18.594  1.00  0.00     0.041 A 
HETATM   14  C25 UNL     1      12.732  17.841  18.632  1.00  0.00     0.105 A 
HETATM   15  C26 UNL     1      12.373  19.158  18.454  1.00  0.00     0.106 A 
HETATM   16  O9  UNL     1      11.567  17.097  18.819  1.00  0.00    -0.323 OA
HETATM   17  C27 UNL     1      13.345  20.145  18.242  1.00  0.00     0.065 A 
HETATM   18  O8  UNL     1      10.990  19.200  18.533  1.00  0.00    -0.323 OA
HETATM   19  C28 UNL     1      10.456  17.897  18.401  1.00  0.00     0.352 C 
ENDBRANCH   8  11
ENDBRANCH   3   8
ENDBRANCH   2   3
ENDBRANCH   1   2
BRANCH   1  20
HETATM   20  O1  UNL     1      16.413  25.874  18.155  1.00  0.00    -0.392 OA
ATOM     21  H1  UNL     1      16.301  26.473  17.426  1.00  0.00     0.210 HD
ENDBRANCH   1  20
BRANCH   1  22
HETATM   22  C7  UNL     1      17.994  24.161  18.236  1.00  0.00     0.121 C 
BRANCH  22  23
HETATM   23  C8  UNL     1      18.213  24.558  19.665  1.00  0.00     0.066 C 
BRANCH  23  24
HETATM   24  C9  UNL     1      19.652  24.542  20.018  1.00  0.00    -0.056 A 
HETATM   25  C10 UNL     1      20.187  25.601  20.710  1.00  0.00     0.007 A 
HETATM   26  C11 UNL     1      21.532  25.637  21.067  1.00  0.00     0.001 A 
HETATM   27  C12 UNL     1      22.330  24.569  20.703  1.00  0.00     0.000 A 
HETATM   28  C13 UNL     1      21.817  23.507  20.015  1.00  0.00     0.001 A 
HETATM   29  C14 UNL     1      20.462  23.491  19.667  1.00  0.00     0.007 A 
ENDBRANCH  23  24
ENDBRANCH  22  23
BRANCH  22  30
HETATM   30  N2  UNL     1      19.044  24.733  17.379  1.00  0.00    -0.329 N 
HETATM   31  C15 UNL     1      19.419  24.123  16.154  1.00  0.00     0.361 C 
HETATM   32  O2  UNL     1      18.845  23.079  15.803  1.00  0.00    -0.238 OA
ATOM     33  H2  UNL     1      19.513  25.590  17.673  1.00  0.00     0.165 HD
BRANCH  31  34
HETATM   34  O3  UNL     1      20.399  24.627  15.318  1.00  0.00    -0.296 OA
BRANCH  34  35
HETATM   35  C16 UNL     1      20.152  25.737  14.525  1.00  0.00     0.166 C 
HETATM   36  C17 UNL     1      18.952  26.545  14.956  1.00  0.00     0.204 C 
HETATM   37  O4  UNL     1      19.138  27.725  14.239  1.00  0.00    -0.358 OA
HETATM   38  C18 UNL     1      20.488  28.042  14.352  1.00  0.00     0.266 C 
HETATM   39  O5  UNL     1      20.678  28.832  15.471  1.00  0.00    -0.361 OA
HETATM   40  C21 UNL     1      21.236  26.768  14.536  1.00  0.00     0.075 C 
HETATM   41  C19 UNL     1      21.868  28.428  16.062  1.00  0.00     0.171 C 
HETATM   42  C20 UNL     1      21.869  26.924  15.898  1.00  0.00     0.038 C 
ENDBRANCH  34  35
ENDBRANCH  31  34
ENDBRANCH  22  30
ENDBRANCH   1  22
TORSDOF 13
ENDMDL
