MODEL 10
REMARK VINA RESULT: -9.428137678      3.114      7.060
REMARK  13 active torsions:
REMARK  status: ('A' for Active; 'I' for Inactive)
REMARK    1  A    between atoms: C2_2  and  C4_4 
REMARK    2  A    between atoms: C4_4  and  N1_5 
REMARK    3  A    between atoms: N1_5  and  C5_6 
REMARK    4  A    between atoms: N1_5  and  S1_31 
REMARK    5  A    between atoms: C5_6  and  C6_7 
REMARK    6  A    between atoms: C6_7  and  O1_8 
REMARK    7  A    between atoms: C6_7  and  C7_10 
REMARK    8  A    between atoms: C7_10  and  C8_11 
REMARK    9  A    between atoms: C7_10  and  N2_18 
REMARK   10  A    between atoms: C8_11  and  C9_12 
REMARK       I    between atoms: N2_18  and  C15_20 
REMARK   11  A    between atoms: C15_20  and  O3_22 
REMARK   12  A    between atoms: O3_22  and  C16_23 
REMARK   13  A    between atoms: S1_31  and  C22_34 
ROOT
HETATM    1  C6  UNL     1      16.935  24.388  16.994  1.00  0.00     0.160 C 
ENDROOT
BRANCH   1   2
HETATM    2  C5  UNL     1      18.162  24.006  17.773  1.00  0.00     0.174 C 
BRANCH   2   3
HETATM    3  N1  UNL     1      17.911  23.157  18.908  1.00  0.00    -0.283 N 
BRANCH   3   4
HETATM    4  C4  UNL     1      17.695  21.841  18.583  1.00  0.00     0.080 C 
BRANCH   4   5
HETATM    5  C2  UNL     1      16.334  21.230  18.862  1.00  0.00     0.017 C 
HETATM    6  C1  UNL     1      15.905  20.251  17.809  1.00  0.00     0.015 C 
HETATM    7  C3  UNL     1      15.267  22.216  19.252  1.00  0.00     0.015 C 
ENDBRANCH   4   5
ENDBRANCH   3   4
BRANCH   3   8
HETATM    8  S1  UNL     1      18.696  23.700  20.270  1.00  0.00     0.264 S 
HETATM    9  O6  UNL     1      17.835  24.596  21.147  1.00  0.00    -0.200 OA
HETATM   10  O7  UNL     1      18.962  22.482  21.170  1.00  0.00    -0.200 OA
BRANCH   8  11
HETATM   11  C22 UNL     1      20.260  24.438  20.056  1.00  0.00     0.082 A 
HETATM   12  C23 UNL     1      20.427  25.784  19.819  1.00  0.00     0.028 A 
HETATM   13  C24 UNL     1      21.683  26.328  19.658  1.00  0.00     0.041 A 
HETATM   14  C25 UNL     1      22.833  25.560  19.728  1.00  0.00     0.105 A 
HETATM   15  C26 UNL     1      22.675  24.213  19.966  1.00  0.00     0.106 A 
HETATM   16  O9  UNL     1      24.198  25.820  19.611  1.00  0.00    -0.323 OA
HETATM   17  C27 UNL     1      21.399  23.658  20.129  1.00  0.00     0.065 A 
HETATM   18  O8  UNL     1      23.949  23.668  19.991  1.00  0.00    -0.323 OA
HETATM   19  C28 UNL     1      24.875  24.573  19.422  1.00  0.00     0.352 C 
ENDBRANCH   8  11
ENDBRANCH   3   8
ENDBRANCH   2   3
ENDBRANCH   1   2
BRANCH   1  20
HETATM   20  O1  UNL     1      16.572  25.702  17.174  1.00  0.00    -0.392 OA
ATOM     21  H1  UNL     1      17.165  26.176  17.746  1.00  0.00     0.210 HD
ENDBRANCH   1  20
BRANCH   1  22
HETATM   22  C7  UNL     1      17.075  24.138  15.517  1.00  0.00     0.121 C 
BRANCH  22  23
HETATM   23  C8  UNL     1      16.760  22.713  15.172  1.00  0.00     0.066 C 
BRANCH  23  24
HETATM   24  C9  UNL     1      15.394  22.580  14.613  1.00  0.00    -0.056 A 
HETATM   25  C10 UNL     1      14.333  23.130  15.292  1.00  0.00     0.007 A 
HETATM   26  C11 UNL     1      13.030  23.034  14.813  1.00  0.00     0.001 A 
HETATM   27  C12 UNL     1      12.822  22.363  13.623  1.00  0.00     0.000 A 
HETATM   28  C13 UNL     1      13.863  21.809  12.934  1.00  0.00     0.001 A 
HETATM   29  C14 UNL     1      15.165  21.918  13.433  1.00  0.00     0.007 A 
ENDBRANCH  23  24
ENDBRANCH  22  23
BRANCH  22  30
HETATM   30  N2  UNL     1      18.428  24.489  15.056  1.00  0.00    -0.329 N 
HETATM   31  C15 UNL     1      18.702  25.733  14.432  1.00  0.00     0.361 C 
HETATM   32  O2  UNL     1      17.772  26.542  14.272  1.00  0.00    -0.238 OA
ATOM     33  H2  UNL     1      19.187  23.820  15.189  1.00  0.00     0.165 HD
BRANCH  31  34
HETATM   34  O3  UNL     1      19.957  26.105  13.986  1.00  0.00    -0.296 OA
BRANCH  34  35
HETATM   35  C16 UNL     1      20.458  27.369  14.251  1.00  0.00     0.166 C 
HETATM   36  C17 UNL     1      19.944  27.977  15.532  1.00  0.00     0.204 C 
HETATM   37  O4  UNL     1      20.831  29.036  15.715  1.00  0.00    -0.358 OA
HETATM   38  C18 UNL     1      22.099  28.536  15.435  1.00  0.00     0.266 C 
HETATM   39  O5  UNL     1      22.654  28.028  16.594  1.00  0.00    -0.361 OA
HETATM   40  C21 UNL     1      21.939  27.425  14.457  1.00  0.00     0.075 C 
HETATM   41  C19 UNL     1      23.340  26.871  16.250  1.00  0.00     0.171 C 
HETATM   42  C20 UNL     1      22.463  26.221  15.202  1.00  0.00     0.038 C 
ENDBRANCH  34  35
ENDBRANCH  31  34
ENDBRANCH  22  30
ENDBRANCH   1  22
TORSDOF 13
ENDMDL
