MODEL 7
REMARK VINA RESULT: -9.494436957      2.782      9.667
REMARK  13 active torsions:
REMARK  status: ('A' for Active; 'I' for Inactive)
REMARK    1  A    between atoms: C2_2  and  C4_4 
REMARK    2  A    between atoms: C4_4  and  N1_5 
REMARK    3  A    between atoms: N1_5  and  C5_6 
REMARK    4  A    between atoms: N1_5  and  S1_31 
REMARK    5  A    between atoms: C5_6  and  C6_7 
REMARK    6  A    between atoms: C6_7  and  O1_8 
REMARK    7  A    between atoms: C6_7  and  C7_10 
REMARK    8  A    between atoms: C7_10  and  C8_11 
REMARK    9  A    between atoms: C7_10  and  N2_18 
REMARK   10  A    between atoms: C8_11  and  C9_12 
REMARK       I    between atoms: N2_18  and  C15_20 
REMARK   11  A    between atoms: C15_20  and  O3_22 
REMARK   12  A    between atoms: O3_22  and  C16_23 
REMARK   13  A    between atoms: S1_31  and  C22_34 
ROOT
HETATM    1  C6  UNL     1      16.444  24.013  15.562  1.00  0.00     0.160 C 
ENDROOT
BRANCH   1   2
HETATM    2  C5  UNL     1      16.398  22.521  15.395  1.00  0.00     0.174 C 
BRANCH   2   3
HETATM    3  N1  UNL     1      15.196  21.899  15.885  1.00  0.00    -0.283 N 
BRANCH   3   4
HETATM    4  C4  UNL     1      14.431  21.315  14.906  1.00  0.00     0.080 C 
BRANCH   4   5
HETATM    5  C2  UNL     1      13.790  22.199  13.851  1.00  0.00     0.017 C 
HETATM    6  C1  UNL     1      12.296  22.263  13.972  1.00  0.00     0.015 C 
HETATM    7  C3  UNL     1      14.282  21.968  12.449  1.00  0.00     0.015 C 
ENDBRANCH   4   5
ENDBRANCH   3   4
BRANCH   3   8
HETATM    8  S1  UNL     1      15.386  21.326  17.434  1.00  0.00     0.264 S 
HETATM    9  O6  UNL     1      16.832  21.026  17.795  1.00  0.00    -0.200 OA
HETATM   10  O7  UNL     1      15.014  22.464  18.400  1.00  0.00    -0.200 OA
BRANCH   8  11
HETATM   11  C22 UNL     1      14.383  19.988  17.925  1.00  0.00     0.082 A 
HETATM   12  C23 UNL     1      14.895  18.769  18.307  1.00  0.00     0.028 A 
HETATM   13  C24 UNL     1      14.067  17.737  18.692  1.00  0.00     0.041 A 
HETATM   14  C25 UNL     1      12.688  17.869  18.715  1.00  0.00     0.105 A 
HETATM   15  C26 UNL     1      12.168  19.085  18.336  1.00  0.00     0.106 A 
HETATM   16  O9  UNL     1      11.626  17.029  19.048  1.00  0.00    -0.323 OA
HETATM   17  C27 UNL     1      13.008  20.135  17.944  1.00  0.00     0.065 A 
HETATM   18  O8  UNL     1      10.790  18.971  18.441  1.00  0.00    -0.323 OA
HETATM   19  C28 UNL     1      10.422  17.609  18.534  1.00  0.00     0.352 C 
ENDBRANCH   8  11
ENDBRANCH   3   8
ENDBRANCH   2   3
ENDBRANCH   1   2
BRANCH   1  20
HETATM   20  O1  UNL     1      15.417  24.499  16.337  1.00  0.00    -0.392 OA
ATOM     21  H1  UNL     1      15.414  25.447  16.398  1.00  0.00     0.210 HD
ENDBRANCH   1  20
BRANCH   1  22
HETATM   22  C7  UNL     1      17.742  24.500  16.147  1.00  0.00     0.121 C 
BRANCH  22  23
HETATM   23  C8  UNL     1      17.523  25.195  17.458  1.00  0.00     0.066 C 
BRANCH  23  24
HETATM   24  C9  UNL     1      18.196  24.483  18.569  1.00  0.00    -0.056 A 
HETATM   25  C10 UNL     1      19.489  24.046  18.403  1.00  0.00     0.007 A 
HETATM   26  C11 UNL     1      20.168  23.372  19.413  1.00  0.00     0.001 A 
HETATM   27  C12 UNL     1      19.505  23.146  20.604  1.00  0.00     0.000 A 
HETATM   28  C13 UNL     1      18.220  23.571  20.789  1.00  0.00     0.001 A 
HETATM   29  C14 UNL     1      17.556  24.248  19.760  1.00  0.00     0.007 A 
ENDBRANCH  23  24
ENDBRANCH  22  23
BRANCH  22  30
HETATM   30  N2  UNL     1      18.435  25.392  15.204  1.00  0.00    -0.329 N 
HETATM   31  C15 UNL     1      19.763  25.135  14.777  1.00  0.00     0.361 C 
HETATM   32  O2  UNL     1      20.351  24.132  15.214  1.00  0.00    -0.238 OA
ATOM     33  H2  UNL     1      17.948  26.215  14.850  1.00  0.00     0.165 HD
BRANCH  31  34
HETATM   34  O3  UNL     1      20.451  25.945  13.892  1.00  0.00    -0.296 OA
BRANCH  34  35
HETATM   35  C16 UNL     1      20.713  27.270  14.200  1.00  0.00     0.166 C 
HETATM   36  C17 UNL     1      19.981  27.773  15.420  1.00  0.00     0.204 C 
HETATM   37  O4  UNL     1      20.664  28.958  15.687  1.00  0.00    -0.358 OA
HETATM   38  C18 UNL     1      22.017  28.671  15.540  1.00  0.00     0.266 C 
HETATM   39  O5  UNL     1      22.527  28.245  16.752  1.00  0.00    -0.361 OA
HETATM   40  C21 UNL     1      22.138  27.560  14.556  1.00  0.00     0.075 C 
HETATM   41  C19 UNL     1      23.421  27.217  16.484  1.00  0.00     0.171 C 
HETATM   42  C20 UNL     1      22.771  26.447  15.356  1.00  0.00     0.038 C 
ENDBRANCH  34  35
ENDBRANCH  31  34
ENDBRANCH  22  30
ENDBRANCH   1  22
TORSDOF 13
ENDMDL
