MODEL 5
REMARK VINA RESULT: -9.620396639      2.378      3.521
REMARK  13 active torsions:
REMARK  status: ('A' for Active; 'I' for Inactive)
REMARK    1  A    between atoms: C2_2  and  C4_4 
REMARK    2  A    between atoms: C4_4  and  N1_5 
REMARK    3  A    between atoms: N1_5  and  C5_6 
REMARK    4  A    between atoms: N1_5  and  S1_31 
REMARK    5  A    between atoms: C5_6  and  C6_7 
REMARK    6  A    between atoms: C6_7  and  O1_8 
REMARK    7  A    between atoms: C6_7  and  C7_10 
REMARK    8  A    between atoms: C7_10  and  C8_11 
REMARK    9  A    between atoms: C7_10  and  N2_18 
REMARK   10  A    between atoms: C8_11  and  C9_12 
REMARK       I    between atoms: N2_18  and  C15_20 
REMARK   11  A    between atoms: C15_20  and  O3_22 
REMARK   12  A    between atoms: O3_22  and  C16_23 
REMARK   13  A    between atoms: S1_31  and  C22_34 
ROOT
HETATM    1  C6  UNL     1      16.033  24.308  18.046  1.00  0.00     0.160 C 
ENDROOT
BRANCH   1   2
HETATM    2  C5  UNL     1      16.946  25.279  17.354  1.00  0.00     0.174 C 
BRANCH   2   3
HETATM    3  N1  UNL     1      18.348  24.981  17.484  1.00  0.00    -0.283 N 
BRANCH   3   4
HETATM    4  C4  UNL     1      18.633  24.052  18.454  1.00  0.00     0.080 C 
BRANCH   4   5
HETATM    5  C2  UNL     1      19.403  24.490  19.686  1.00  0.00     0.017 C 
HETATM    6  C1  UNL     1      20.780  23.899  19.756  1.00  0.00     0.015 C 
HETATM    7  C3  UNL     1      18.633  24.404  20.975  1.00  0.00     0.015 C 
ENDBRANCH   4   5
ENDBRANCH   3   4
BRANCH   3   8
HETATM    8  S1  UNL     1      19.151  25.146  16.037  1.00  0.00     0.264 S 
HETATM    9  O6  UNL     1      19.703  23.836  15.499  1.00  0.00    -0.200 OA
HETATM   10  O7  UNL     1      18.114  25.551  14.975  1.00  0.00    -0.200 OA
BRANCH   8  11
HETATM   11  C22 UNL     1      20.384  26.373  15.937  1.00  0.00     0.082 A 
HETATM   12  C23 UNL     1      20.322  27.427  15.055  1.00  0.00     0.028 A 
HETATM   13  C24 UNL     1      21.319  28.378  15.009  1.00  0.00     0.041 A 
HETATM   14  C25 UNL     1      22.425  28.326  15.842  1.00  0.00     0.105 A 
HETATM   15  C26 UNL     1      22.494  27.275  16.728  1.00  0.00     0.106 A 
HETATM   16  O9  UNL     1      23.558  29.118  16.021  1.00  0.00    -0.323 OA
HETATM   17  C27 UNL     1      21.482  26.307  16.775  1.00  0.00     0.065 A 
HETATM   18  O8  UNL     1      23.673  27.440  17.439  1.00  0.00    -0.323 OA
HETATM   19  C28 UNL     1      24.513  28.365  16.776  1.00  0.00     0.352 C 
ENDBRANCH   8  11
ENDBRANCH   3   8
ENDBRANCH   2   3
ENDBRANCH   1   2
BRANCH   1  20
HETATM   20  O1  UNL     1      14.969  24.919  18.668  1.00  0.00    -0.392 OA
ATOM     21  H1  UNL     1      14.156  24.833  18.184  1.00  0.00     0.210 HD
ENDBRANCH   1  20
BRANCH   1  22
HETATM   22  C7  UNL     1      15.490  23.250  17.124  1.00  0.00     0.121 C 
BRANCH  22  23
HETATM   23  C8  UNL     1      14.383  23.789  16.268  1.00  0.00     0.066 C 
BRANCH  23  24
HETATM   24  C9  UNL     1      14.129  22.915  15.098  1.00  0.00    -0.056 A 
HETATM   25  C10 UNL     1      12.832  22.627  14.743  1.00  0.00     0.007 A 
HETATM   26  C11 UNL     1      12.536  21.813  13.655  1.00  0.00     0.001 A 
HETATM   27  C12 UNL     1      13.589  21.290  12.928  1.00  0.00     0.000 A 
HETATM   28  C13 UNL     1      14.884  21.564  13.265  1.00  0.00     0.001 A 
HETATM   29  C14 UNL     1      15.159  22.386  14.362  1.00  0.00     0.007 A 
ENDBRANCH  23  24
ENDBRANCH  22  23
BRANCH  22  30
HETATM   30  N2  UNL     1      15.023  22.083  17.889  1.00  0.00    -0.329 N 
HETATM   31  C15 UNL     1      15.838  20.935  18.066  1.00  0.00     0.361 C 
HETATM   32  O2  UNL     1      16.972  20.920  17.559  1.00  0.00    -0.238 OA
ATOM     33  H2  UNL     1      14.090  22.100  18.301  1.00  0.00     0.165 HD
BRANCH  31  34
HETATM   34  O3  UNL     1      15.441  19.818  18.778  1.00  0.00    -0.296 OA
BRANCH  34  35
HETATM   35  C16 UNL     1      14.455  18.978  18.286  1.00  0.00     0.166 C 
HETATM   36  C17 UNL     1      14.744  17.510  18.485  1.00  0.00     0.204 C 
HETATM   37  O4  UNL     1      13.497  16.942  18.228  1.00  0.00    -0.358 OA
HETATM   38  C18 UNL     1      12.563  17.742  18.877  1.00  0.00     0.266 C 
HETATM   39  O5  UNL     1      12.378  17.273  20.165  1.00  0.00    -0.361 OA
HETATM   40  C21 UNL     1      13.122  19.121  18.949  1.00  0.00     0.075 C 
HETATM   41  C19 UNL     1      12.248  18.381  20.992  1.00  0.00     0.171 C 
HETATM   42  C20 UNL     1      13.240  19.377  20.432  1.00  0.00     0.038 C 
ENDBRANCH  34  35
ENDBRANCH  31  34
ENDBRANCH  22  30
ENDBRANCH   1  22
TORSDOF 13
ENDMDL
