MODEL 9
REMARK VINA RESULT: -8.779459536      2.329      6.900
REMARK  13 active torsions:
REMARK  status: ('A' for Active; 'I' for Inactive)
REMARK    1  A    between atoms: C2_2  and  C4_4 
REMARK    2  A    between atoms: C4_4  and  N1_5 
REMARK    3  A    between atoms: N1_5  and  C5_6 
REMARK    4  A    between atoms: N1_5  and  S1_31 
REMARK    5  A    between atoms: C5_6  and  C6_7 
REMARK    6  A    between atoms: C6_7  and  O1_8 
REMARK    7  A    between atoms: C6_7  and  C7_10 
REMARK    8  A    between atoms: C7_10  and  C8_11 
REMARK    9  A    between atoms: C7_10  and  N2_18 
REMARK   10  A    between atoms: C8_11  and  C9_12 
REMARK       I    between atoms: N2_18  and  C15_20 
REMARK   11  A    between atoms: C15_20  and  O3_22 
REMARK   12  A    between atoms: O3_22  and  C16_23 
REMARK   13  A    between atoms: S1_31  and  C22_34 
ROOT
HETATM    1  C6  UNL     1      20.640  29.378  15.268  1.00  0.00     0.160 C 
ENDROOT
BRANCH   1   2
HETATM    2  C5  UNL     1      19.923  30.211  16.292  1.00  0.00     0.174 C 
BRANCH   2   3
HETATM    3  N1  UNL     1      19.748  31.593  15.925  1.00  0.00    -0.283 N 
BRANCH   3   4
HETATM    4  C4  UNL     1      20.833  32.142  15.288  1.00  0.00     0.080 C 
BRANCH   4   5
HETATM    5  C2  UNL     1      21.661  33.185  16.016  1.00  0.00     0.017 C 
HETATM    6  C1  UNL     1      22.288  32.660  17.274  1.00  0.00     0.015 C 
HETATM    7  C3  UNL     1      20.993  34.523  16.175  1.00  0.00     0.015 C 
ENDBRANCH   4   5
ENDBRANCH   3   4
BRANCH   3   8
HETATM    8  S1  UNL     1      18.156  31.950  15.605  1.00  0.00     0.264 S 
HETATM    9  O6  UNL     1      17.768  31.731  14.151  1.00  0.00    -0.200 OA
HETATM   10  O7  UNL     1      17.290  30.923  16.355  1.00  0.00    -0.200 OA
BRANCH   8  11
HETATM   11  C22 UNL     1      17.557  33.498  16.133  1.00  0.00     0.082 A 
HETATM   12  C23 UNL     1      17.118  34.468  15.261  1.00  0.00     0.028 A 
HETATM   13  C24 UNL     1      16.648  35.680  15.719  1.00  0.00     0.041 A 
HETATM   14  C25 UNL     1      16.592  35.984  17.070  1.00  0.00     0.105 A 
HETATM   15  C26 UNL     1      17.028  35.019  17.949  1.00  0.00     0.106 A 
HETATM   16  O9  UNL     1      16.179  37.090  17.812  1.00  0.00    -0.323 OA
HETATM   17  C27 UNL     1      17.507  33.787  17.484  1.00  0.00     0.065 A 
HETATM   18  O8  UNL     1      16.875  35.550  19.220  1.00  0.00    -0.323 OA
HETATM   19  C28 UNL     1      16.691  36.950  19.141  1.00  0.00     0.352 C 
ENDBRANCH   8  11
ENDBRANCH   3   8
ENDBRANCH   2   3
ENDBRANCH   1   2
BRANCH   1  20
HETATM   20  O1  UNL     1      20.996  28.136  15.741  1.00  0.00    -0.392 OA
ATOM     21  H1  UNL     1      21.324  27.560  15.060  1.00  0.00     0.210 HD
ENDBRANCH   1  20
BRANCH   1  22
HETATM   22  C7  UNL     1      19.848  29.188  14.004  1.00  0.00     0.121 C 
BRANCH  22  23
HETATM   23  C8  UNL     1      18.613  28.374  14.251  1.00  0.00     0.066 C 
BRANCH  23  24
HETATM   24  C9  UNL     1      17.998  27.922  12.981  1.00  0.00    -0.056 A 
HETATM   25  C10 UNL     1      18.032  26.587  12.654  1.00  0.00     0.007 A 
HETATM   26  C11 UNL     1      17.470  26.109  11.474  1.00  0.00     0.001 A 
HETATM   27  C12 UNL     1      16.870  27.018  10.624  1.00  0.00     0.000 A 
HETATM   28  C13 UNL     1      16.826  28.349  10.930  1.00  0.00     0.001 A 
HETATM   29  C14 UNL     1      17.396  28.808  12.122  1.00  0.00     0.007 A 
ENDBRANCH  23  24
ENDBRANCH  22  23
BRANCH  22  30
HETATM   30  N2  UNL     1      20.675  28.559  12.962  1.00  0.00    -0.329 N 
HETATM   31  C15 UNL     1      21.484  29.331  12.089  1.00  0.00     0.361 C 
HETATM   32  O2  UNL     1      21.490  30.567  12.211  1.00  0.00    -0.238 OA
ATOM     33  H2  UNL     1      20.665  27.544  12.865  1.00  0.00     0.165 HD
BRANCH  31  34
HETATM   34  O3  UNL     1      22.278  28.783  11.098  1.00  0.00    -0.296 OA
BRANCH  34  35
HETATM   35  C16 UNL     1      23.538  28.288  11.391  1.00  0.00     0.166 C 
HETATM   36  C17 UNL     1      23.701  27.831  12.820  1.00  0.00     0.204 C 
HETATM   37  O4  UNL     1      24.883  27.097  12.746  1.00  0.00    -0.358 OA
HETATM   38  C18 UNL     1      24.794  26.328  11.590  1.00  0.00     0.266 C 
HETATM   39  O5  UNL     1      24.202  25.116  11.894  1.00  0.00    -0.361 OA
HETATM   40  C21 UNL     1      23.920  27.057  10.630  1.00  0.00     0.075 C 
HETATM   41  C19 UNL     1      23.360  24.793  10.838  1.00  0.00     0.171 C 
HETATM   42  C20 UNL     1      22.755  26.118  10.430  1.00  0.00     0.038 C 
ENDBRANCH  34  35
ENDBRANCH  31  34
ENDBRANCH  22  30
ENDBRANCH   1  22
TORSDOF 13
ENDMDL
