MODEL 1
REMARK VINA RESULT: -9.104999982      0.000      0.000
REMARK  13 active torsions:
REMARK  status: ('A' for Active; 'I' for Inactive)
REMARK    1  A    between atoms: C2_2  and  C4_4 
REMARK    2  A    between atoms: C4_4  and  N1_5 
REMARK    3  A    between atoms: N1_5  and  C5_6 
REMARK    4  A    between atoms: N1_5  and  S1_31 
REMARK    5  A    between atoms: C5_6  and  C6_7 
REMARK    6  A    between atoms: C6_7  and  O1_8 
REMARK    7  A    between atoms: C6_7  and  C7_10 
REMARK    8  A    between atoms: C7_10  and  C8_11 
REMARK    9  A    between atoms: C7_10  and  N2_18 
REMARK   10  A    between atoms: C8_11  and  C9_12 
REMARK       I    between atoms: N2_18  and  C15_20 
REMARK   11  A    between atoms: C15_20  and  O3_22 
REMARK   12  A    between atoms: O3_22  and  C16_23 
REMARK   13  A    between atoms: S1_31  and  C22_34 
ROOT
HETATM    1  C6  UNL     1      19.367  31.025  16.484  1.00  0.00     0.160 C 
ENDROOT
BRANCH   1   2
HETATM    2  C5  UNL     1      20.378  32.109  16.725  1.00  0.00     0.174 C 
BRANCH   2   3
HETATM    3  N1  UNL     1      20.734  32.869  15.555  1.00  0.00    -0.283 N 
BRANCH   3   4
HETATM    4  C4  UNL     1      20.395  34.197  15.628  1.00  0.00     0.080 C 
BRANCH   4   5
HETATM    5  C2  UNL     1      20.909  35.023  16.792  1.00  0.00     0.017 C 
HETATM    6  C1  UNL     1      19.811  35.705  17.554  1.00  0.00     0.015 C 
HETATM    7  C3  UNL     1      22.076  35.914  16.468  1.00  0.00     0.015 C 
ENDBRANCH   4   5
ENDBRANCH   3   4
BRANCH   3   8
HETATM    8  S1  UNL     1      22.089  32.257  14.811  1.00  0.00     0.264 S 
HETATM    9  O6  UNL     1      22.634  33.156  13.712  1.00  0.00    -0.200 OA
HETATM   10  O7  UNL     1      23.225  32.246  15.848  1.00  0.00    -0.200 OA
BRANCH   8  11
HETATM   11  C22 UNL     1      22.014  30.617  14.225  1.00  0.00     0.082 A 
HETATM   12  C23 UNL     1      21.678  29.550  15.026  1.00  0.00     0.028 A 
HETATM   13  C24 UNL     1      21.627  28.268  14.523  1.00  0.00     0.041 A 
HETATM   14  C25 UNL     1      21.908  27.987  13.196  1.00  0.00     0.105 A 
HETATM   15  C26 UNL     1      22.244  29.049  12.387  1.00  0.00     0.106 A 
HETATM   16  O9  UNL     1      21.938  26.828  12.421  1.00  0.00    -0.323 OA
HETATM   17  C27 UNL     1      22.297  30.353  12.897  1.00  0.00     0.065 A 
HETATM   18  O8  UNL     1      22.475  28.522  11.126  1.00  0.00    -0.323 OA
HETATM   19  C28 UNL     1      22.640  27.120  11.209  1.00  0.00     0.352 C 
ENDBRANCH   8  11
ENDBRANCH   3   8
ENDBRANCH   2   3
ENDBRANCH   1   2
BRANCH   1  20
HETATM   20  O1  UNL     1      18.802  30.549  17.644  1.00  0.00    -0.392 OA
ATOM     21  H1  UNL     1      17.853  30.524  17.612  1.00  0.00     0.210 HD
ENDBRANCH   1  20
BRANCH   1  22
HETATM   22  C7  UNL     1      18.256  31.451  15.564  1.00  0.00     0.121 C 
BRANCH  22  23
HETATM   23  C8  UNL     1      16.999  31.749  16.327  1.00  0.00     0.066 C 
BRANCH  23  24
HETATM   24  C9  UNL     1      16.751  33.207  16.414  1.00  0.00    -0.056 A 
HETATM   25  C10 UNL     1      16.305  33.744  17.598  1.00  0.00     0.007 A 
HETATM   26  C11 UNL     1      16.056  35.106  17.736  1.00  0.00     0.001 A 
HETATM   27  C12 UNL     1      16.268  35.920  16.639  1.00  0.00     0.000 A 
HETATM   28  C13 UNL     1      16.711  35.406  15.454  1.00  0.00     0.001 A 
HETATM   29  C14 UNL     1      16.956  34.034  15.338  1.00  0.00     0.007 A 
ENDBRANCH  23  24
ENDBRANCH  22  23
BRANCH  22  30
HETATM   30  N2  UNL     1      18.002  30.422  14.543  1.00  0.00    -0.329 N 
HETATM   31  C15 UNL     1      18.447  30.576  13.205  1.00  0.00     0.361 C 
HETATM   32  O2  UNL     1      19.064  31.608  12.893  1.00  0.00    -0.238 OA
ATOM     33  H2  UNL     1      17.494  29.577  14.805  1.00  0.00     0.165 HD
BRANCH  31  34
HETATM   34  O3  UNL     1      18.232  29.635  12.215  1.00  0.00    -0.296 OA
BRANCH  34  35
HETATM   35  C16 UNL     1      18.513  28.296  12.437  1.00  0.00     0.166 C 
HETATM   36  C17 UNL     1      17.361  27.516  13.021  1.00  0.00     0.204 C 
HETATM   37  O4  UNL     1      17.784  26.203  12.821  1.00  0.00    -0.358 OA
HETATM   38  C18 UNL     1      18.306  26.152  11.533  1.00  0.00     0.266 C 
HETATM   39  O5  UNL     1      17.296  25.836  10.644  1.00  0.00    -0.361 OA
HETATM   40  C21 UNL     1      18.823  27.509  11.202  1.00  0.00     0.075 C 
HETATM   41  C19 UNL     1      17.502  26.594   9.499  1.00  0.00     0.171 C 
HETATM   42  C20 UNL     1      17.980  27.930  10.023  1.00  0.00     0.038 C 
ENDBRANCH  34  35
ENDBRANCH  31  34
ENDBRANCH  22  30
ENDBRANCH   1  22
TORSDOF 13
ENDMDL
