MODEL 18
REMARK VINA RESULT: -8.713276349      2.744      7.071
REMARK  13 active torsions:
REMARK  status: ('A' for Active; 'I' for Inactive)
REMARK    1  A    between atoms: C2_2  and  C4_4 
REMARK    2  A    between atoms: C4_4  and  N1_5 
REMARK    3  A    between atoms: N1_5  and  C5_6 
REMARK    4  A    between atoms: N1_5  and  S1_31 
REMARK    5  A    between atoms: C5_6  and  C6_7 
REMARK    6  A    between atoms: C6_7  and  O1_8 
REMARK    7  A    between atoms: C6_7  and  C7_10 
REMARK    8  A    between atoms: C7_10  and  C8_11 
REMARK    9  A    between atoms: C7_10  and  N2_18 
REMARK   10  A    between atoms: C8_11  and  C9_12 
REMARK       I    between atoms: N2_18  and  C15_20 
REMARK   11  A    between atoms: C15_20  and  O3_22 
REMARK   12  A    between atoms: O3_22  and  C16_23 
REMARK   13  A    between atoms: S1_31  and  C22_34 
ROOT
HETATM    1  C6  UNL     1      19.919  30.637  16.446  1.00  0.00     0.160 C 
ENDROOT
BRANCH   1   2
HETATM    2  C5  UNL     1      18.846  31.598  16.872  1.00  0.00     0.174 C 
BRANCH   2   3
HETATM    3  N1  UNL     1      19.130  32.980  16.588  1.00  0.00    -0.283 N 
BRANCH   3   4
HETATM    4  C4  UNL     1      20.414  33.208  16.157  1.00  0.00     0.080 C 
BRANCH   4   5
HETATM    5  C2  UNL     1      21.322  34.091  16.993  1.00  0.00     0.017 C 
HETATM    6  C1  UNL     1      21.731  35.348  16.283  1.00  0.00     0.015 C 
HETATM    7  C3  UNL     1      22.456  33.371  17.669  1.00  0.00     0.015 C 
ENDBRANCH   4   5
ENDBRANCH   3   4
BRANCH   3   8
HETATM    8  S1  UNL     1      17.777  33.793  16.067  1.00  0.00     0.264 S 
HETATM    9  O6  UNL     1      17.823  34.162  14.592  1.00  0.00    -0.200 OA
HETATM   10  O7  UNL     1      16.590  32.818  16.145  1.00  0.00    -0.200 OA
BRANCH   8  11
HETATM   11  C22 UNL     1      17.267  35.181  16.989  1.00  0.00     0.082 A 
HETATM   12  C23 UNL     1      15.944  35.492  17.205  1.00  0.00     0.028 A 
HETATM   13  C24 UNL     1      15.582  36.597  17.944  1.00  0.00     0.041 A 
HETATM   14  C25 UNL     1      16.522  37.447  18.505  1.00  0.00     0.105 A 
HETATM   15  C26 UNL     1      17.848  37.143  18.295  1.00  0.00     0.106 A 
HETATM   16  O9  UNL     1      16.463  38.606  19.278  1.00  0.00    -0.323 OA
HETATM   17  C27 UNL     1      18.217  36.019  17.543  1.00  0.00     0.065 A 
HETATM   18  O8  UNL     1      18.582  38.123  18.944  1.00  0.00    -0.323 OA
HETATM   19  C28 UNL     1      17.752  39.226  19.252  1.00  0.00     0.352 C 
ENDBRANCH   8  11
ENDBRANCH   3   8
ENDBRANCH   2   3
ENDBRANCH   1   2
BRANCH   1  20
HETATM   20  O1  UNL     1      20.113  29.614  17.344  1.00  0.00    -0.392 OA
ATOM     21  H1  UNL     1      20.134  28.758  16.932  1.00  0.00     0.210 HD
ENDBRANCH   1  20
BRANCH   1  22
HETATM   22  C7  UNL     1      19.663  30.031  15.093  1.00  0.00     0.121 C 
BRANCH  22  23
HETATM   23  C8  UNL     1      18.244  29.560  14.967  1.00  0.00     0.066 C 
BRANCH  23  24
HETATM   24  C9  UNL     1      18.032  28.809  13.708  1.00  0.00    -0.056 A 
HETATM   25  C10 UNL     1      17.745  27.466  13.766  1.00  0.00     0.007 A 
HETATM   26  C11 UNL     1      17.537  26.712  12.615  1.00  0.00     0.001 A 
HETATM   27  C12 UNL     1      17.629  27.352  11.393  1.00  0.00     0.000 A 
HETATM   28  C13 UNL     1      17.914  28.685  11.314  1.00  0.00     0.001 A 
HETATM   29  C14 UNL     1      18.119  29.424  12.484  1.00  0.00     0.007 A 
ENDBRANCH  23  24
ENDBRANCH  22  23
BRANCH  22  30
HETATM   30  N2  UNL     1      20.594  28.921  14.836  1.00  0.00    -0.329 N 
HETATM   31  C15 UNL     1      21.654  29.042  13.901  1.00  0.00     0.361 C 
HETATM   32  O2  UNL     1      21.793  30.112  13.286  1.00  0.00    -0.238 OA
ATOM     33  H2  UNL     1      20.474  28.044  15.342  1.00  0.00     0.165 HD
BRANCH  31  34
HETATM   34  O3  UNL     1      22.553  28.026  13.629  1.00  0.00    -0.296 OA
BRANCH  34  35
HETATM   35  C16 UNL     1      23.097  27.881  12.363  1.00  0.00     0.166 C 
HETATM   36  C17 UNL     1      24.385  27.096  12.334  1.00  0.00     0.204 C 
HETATM   37  O4  UNL     1      24.514  26.820  10.974  1.00  0.00    -0.358 OA
HETATM   38  C18 UNL     1      23.251  26.439  10.532  1.00  0.00     0.266 C 
HETATM   39  O5  UNL     1      23.113  25.071  10.674  1.00  0.00    -0.361 OA
HETATM   40  C21 UNL     1      22.247  27.112  11.401  1.00  0.00     0.075 C 
HETATM   41  C19 UNL     1      21.813  24.830  11.100  1.00  0.00     0.171 C 
HETATM   42  C20 UNL     1      21.525  25.962  12.061  1.00  0.00     0.038 C 
ENDBRANCH  34  35
ENDBRANCH  31  34
ENDBRANCH  22  30
ENDBRANCH   1  22
TORSDOF 13
ENDMDL
