MODEL 2
REMARK VINA RESULT: -9.063946601      2.555      5.828
REMARK  13 active torsions:
REMARK  status: ('A' for Active; 'I' for Inactive)
REMARK    1  A    between atoms: C2_2  and  C4_4 
REMARK    2  A    between atoms: C4_4  and  N1_5 
REMARK    3  A    between atoms: N1_5  and  C5_6 
REMARK    4  A    between atoms: N1_5  and  S1_31 
REMARK    5  A    between atoms: C5_6  and  C6_7 
REMARK    6  A    between atoms: C6_7  and  O1_8 
REMARK    7  A    between atoms: C6_7  and  C7_10 
REMARK    8  A    between atoms: C7_10  and  C8_11 
REMARK    9  A    between atoms: C7_10  and  N2_18 
REMARK   10  A    between atoms: C8_11  and  C9_12 
REMARK       I    between atoms: N2_18  and  C15_20 
REMARK   11  A    between atoms: C15_20  and  O3_22 
REMARK   12  A    between atoms: O3_22  and  C16_23 
REMARK   13  A    between atoms: S1_31  and  C22_34 
ROOT
HETATM    1  C6  UNL     1      19.656  31.994  16.146  1.00  0.00     0.160 C 
ENDROOT
BRANCH   1   2
HETATM    2  C5  UNL     1      20.362  33.320  16.145  1.00  0.00     0.174 C 
BRANCH   2   3
HETATM    3  N1  UNL     1      21.550  33.368  16.957  1.00  0.00    -0.283 N 
BRANCH   3   4
HETATM    4  C4  UNL     1      22.555  32.539  16.524  1.00  0.00     0.080 C 
BRANCH   4   5
HETATM    5  C2  UNL     1      23.077  32.696  15.108  1.00  0.00     0.017 C 
HETATM    6  C1  UNL     1      22.822  31.490  14.253  1.00  0.00     0.015 C 
HETATM    7  C3  UNL     1      24.478  33.234  15.008  1.00  0.00     0.015 C 
ENDBRANCH   4   5
ENDBRANCH   3   4
BRANCH   3   8
HETATM    8  S1  UNL     1      21.761  34.863  17.652  1.00  0.00     0.264 S 
HETATM    9  O6  UNL     1      22.723  34.852  18.830  1.00  0.00    -0.200 OA
HETATM   10  O7  UNL     1      22.479  35.756  16.625  1.00  0.00    -0.200 OA
BRANCH   8  11
HETATM   11  C22 UNL     1      20.331  35.758  18.088  1.00  0.00     0.082 A 
HETATM   12  C23 UNL     1      19.367  35.262  18.936  1.00  0.00     0.028 A 
HETATM   13  C24 UNL     1      18.251  36.003  19.258  1.00  0.00     0.041 A 
HETATM   14  C25 UNL     1      18.042  37.276  18.752  1.00  0.00     0.105 A 
HETATM   15  C26 UNL     1      19.002  37.780  17.905  1.00  0.00     0.106 A 
HETATM   16  O9  UNL     1      17.042  38.238  18.893  1.00  0.00    -0.323 OA
HETATM   17  C27 UNL     1      20.137  37.027  17.575  1.00  0.00     0.065 A 
HETATM   18  O8  UNL     1      18.574  39.047  17.538  1.00  0.00    -0.323 OA
HETATM   19  C28 UNL     1      17.204  39.205  17.850  1.00  0.00     0.352 C 
ENDBRANCH   8  11
ENDBRANCH   3   8
ENDBRANCH   2   3
ENDBRANCH   1   2
BRANCH   1  20
HETATM   20  O1  UNL     1      19.175  31.642  17.386  1.00  0.00    -0.392 OA
ATOM     21  H1  UNL     1      19.473  30.786  17.670  1.00  0.00     0.210 HD
ENDBRANCH   1  20
BRANCH   1  22
HETATM   22  C7  UNL     1      18.515  31.934  15.167  1.00  0.00     0.121 C 
BRANCH  22  23
HETATM   23  C8  UNL     1      17.197  31.817  15.873  1.00  0.00     0.066 C 
BRANCH  23  24
HETATM   24  C9  UNL     1      16.650  33.148  16.226  1.00  0.00    -0.056 A 
HETATM   25  C10 UNL     1      15.760  33.255  17.268  1.00  0.00     0.007 A 
HETATM   26  C11 UNL     1      15.217  34.480  17.642  1.00  0.00     0.001 A 
HETATM   27  C12 UNL     1      15.594  35.603  16.931  1.00  0.00     0.000 A 
HETATM   28  C13 UNL     1      16.476  35.518  15.892  1.00  0.00     0.001 A 
HETATM   29  C14 UNL     1      17.012  34.276  15.533  1.00  0.00     0.007 A 
ENDBRANCH  23  24
ENDBRANCH  22  23
BRANCH  22  30
HETATM   30  N2  UNL     1      18.694  30.816  14.228  1.00  0.00    -0.329 N 
HETATM   31  C15 UNL     1      19.369  30.984  12.992  1.00  0.00     0.361 C 
HETATM   32  O2  UNL     1      19.817  32.105  12.700  1.00  0.00    -0.238 OA
ATOM     33  H2  UNL     1      18.323  29.897  14.472  1.00  0.00     0.165 HD
BRANCH  31  34
HETATM   34  O3  UNL     1      19.561  29.961  12.080  1.00  0.00    -0.296 OA
BRANCH  34  35
HETATM   35  C16 UNL     1      19.827  28.670  12.509  1.00  0.00     0.166 C 
HETATM   36  C17 UNL     1      19.438  27.602  11.517  1.00  0.00     0.204 C 
HETATM   37  O4  UNL     1      20.102  26.489  12.029  1.00  0.00    -0.358 OA
HETATM   38  C18 UNL     1      21.374  26.924  12.387  1.00  0.00     0.266 C 
HETATM   39  O5  UNL     1      22.224  26.785  11.306  1.00  0.00    -0.361 OA
HETATM   40  C21 UNL     1      21.276  28.370  12.731  1.00  0.00     0.075 C 
HETATM   41  C19 UNL     1      23.062  27.891  11.295  1.00  0.00     0.171 C 
HETATM   42  C20 UNL     1      22.166  29.037  11.710  1.00  0.00     0.038 C 
ENDBRANCH  34  35
ENDBRANCH  31  34
ENDBRANCH  22  30
ENDBRANCH   1  22
TORSDOF 13
ENDMDL
