MODEL 3
REMARK VINA RESULT: -8.996940353      2.526      5.648
REMARK  13 active torsions:
REMARK  status: ('A' for Active; 'I' for Inactive)
REMARK    1  A    between atoms: C2_2  and  C4_4 
REMARK    2  A    between atoms: C4_4  and  N1_5 
REMARK    3  A    between atoms: N1_5  and  C5_6 
REMARK    4  A    between atoms: N1_5  and  S1_31 
REMARK    5  A    between atoms: C5_6  and  C6_7 
REMARK    6  A    between atoms: C6_7  and  O1_8 
REMARK    7  A    between atoms: C6_7  and  C7_10 
REMARK    8  A    between atoms: C7_10  and  C8_11 
REMARK    9  A    between atoms: C7_10  and  N2_18 
REMARK   10  A    between atoms: C8_11  and  C9_12 
REMARK       I    between atoms: N2_18  and  C15_20 
REMARK   11  A    between atoms: C15_20  and  O3_22 
REMARK   12  A    between atoms: O3_22  and  C16_23 
REMARK   13  A    between atoms: S1_31  and  C22_34 
ROOT
HETATM    1  C6  UNL     1      19.479  32.013  16.149  1.00  0.00     0.160 C 
ENDROOT
BRANCH   1   2
HETATM    2  C5  UNL     1      20.286  33.278  16.071  1.00  0.00     0.174 C 
BRANCH   2   3
HETATM    3  N1  UNL     1      21.498  33.266  16.849  1.00  0.00    -0.283 N 
BRANCH   3   4
HETATM    4  C4  UNL     1      22.443  32.380  16.393  1.00  0.00     0.080 C 
BRANCH   4   5
HETATM    5  C2  UNL     1      22.904  32.477  14.951  1.00  0.00     0.017 C 
HETATM    6  C1  UNL     1      22.645  31.223  14.169  1.00  0.00     0.015 C 
HETATM    7  C3  UNL     1      24.286  33.041  14.765  1.00  0.00     0.015 C 
ENDBRANCH   4   5
ENDBRANCH   3   4
BRANCH   3   8
HETATM    8  S1  UNL     1      21.811  34.751  17.527  1.00  0.00     0.264 S 
HETATM    9  O6  UNL     1      22.834  34.699  18.651  1.00  0.00    -0.200 OA
HETATM   10  O7  UNL     1      22.509  35.611  16.459  1.00  0.00    -0.200 OA
BRANCH   8  11
HETATM   11  C22 UNL     1      20.446  35.706  18.037  1.00  0.00     0.082 A 
HETATM   12  C23 UNL     1      19.477  35.232  18.892  1.00  0.00     0.028 A 
HETATM   13  C24 UNL     1      18.414  36.022  19.274  1.00  0.00     0.041 A 
HETATM   14  C25 UNL     1      18.265  37.323  18.823  1.00  0.00     0.105 A 
HETATM   15  C26 UNL     1      19.230  37.806  17.968  1.00  0.00     0.106 A 
HETATM   16  O9  UNL     1      17.326  38.334  19.028  1.00  0.00    -0.323 OA
HETATM   17  C27 UNL     1      20.311  37.004  17.578  1.00  0.00     0.065 A 
HETATM   18  O8  UNL     1      18.865  39.108  17.662  1.00  0.00    -0.323 OA
HETATM   19  C28 UNL     1      17.515  39.330  18.019  1.00  0.00     0.352 C 
ENDBRANCH   8  11
ENDBRANCH   3   8
ENDBRANCH   2   3
ENDBRANCH   1   2
BRANCH   1  20
HETATM   20  O1  UNL     1      19.071  31.714  17.428  1.00  0.00    -0.392 OA
ATOM     21  H1  UNL     1      19.347  30.850  17.713  1.00  0.00     0.210 HD
ENDBRANCH   1  20
BRANCH   1  22
HETATM   22  C7  UNL     1      18.264  32.035  15.263  1.00  0.00     0.121 C 
BRANCH  22  23
HETATM   23  C8  UNL     1      17.000  31.975  16.068  1.00  0.00     0.066 C 
BRANCH  23  24
HETATM   24  C9  UNL     1      16.519  33.330  16.424  1.00  0.00    -0.056 A 
HETATM   25  C10 UNL     1      15.649  33.480  17.478  1.00  0.00     0.007 A 
HETATM   26  C11 UNL     1      15.166  34.729  17.855  1.00  0.00     0.001 A 
HETATM   27  C12 UNL     1      15.584  35.832  17.136  1.00  0.00     0.000 A 
HETATM   28  C13 UNL     1      16.447  35.705  16.085  1.00  0.00     0.001 A 
HETATM   29  C14 UNL     1      16.921  34.439  15.723  1.00  0.00     0.007 A 
ENDBRANCH  23  24
ENDBRANCH  22  23
BRANCH  22  30
HETATM   30  N2  UNL     1      18.306  30.928  14.294  1.00  0.00    -0.329 N 
HETATM   31  C15 UNL     1      19.028  31.033  13.077  1.00  0.00     0.361 C 
HETATM   32  O2  UNL     1      19.634  32.087  12.827  1.00  0.00    -0.238 OA
ATOM     33  H2  UNL     1      17.805  30.065  14.504  1.00  0.00     0.165 HD
BRANCH  31  34
HETATM   34  O3  UNL     1      19.096  30.018  12.140  1.00  0.00    -0.296 OA
BRANCH  34  35
HETATM   35  C16 UNL     1      18.273  28.908  12.235  1.00  0.00     0.166 C 
HETATM   36  C17 UNL     1      17.678  28.469  10.920  1.00  0.00     0.204 C 
HETATM   37  O4  UNL     1      17.205  27.197  11.237  1.00  0.00    -0.358 OA
HETATM   38  C18 UNL     1      18.203  26.586  11.990  1.00  0.00     0.266 C 
HETATM   39  O5  UNL     1      19.070  25.921  11.142  1.00  0.00    -0.361 OA
HETATM   40  C21 UNL     1      18.957  27.659  12.695  1.00  0.00     0.075 C 
HETATM   41  C19 UNL     1      20.354  26.103  11.641  1.00  0.00     0.171 C 
HETATM   42  C20 UNL     1      20.356  27.530  12.141  1.00  0.00     0.038 C 
ENDBRANCH  34  35
ENDBRANCH  31  34
ENDBRANCH  22  30
ENDBRANCH   1  22
TORSDOF 13
ENDMDL
