MODEL 14
REMARK VINA RESULT: -9.136965015      2.679      6.828
REMARK  13 active torsions:
REMARK  status: ('A' for Active; 'I' for Inactive)
REMARK    1  A    between atoms: C2_2  and  C4_4 
REMARK    2  A    between atoms: C4_4  and  N1_5 
REMARK    3  A    between atoms: N1_5  and  C5_6 
REMARK    4  A    between atoms: N1_5  and  S1_31 
REMARK    5  A    between atoms: C5_6  and  C6_7 
REMARK    6  A    between atoms: C6_7  and  O1_8 
REMARK    7  A    between atoms: C6_7  and  C7_10 
REMARK    8  A    between atoms: C7_10  and  C8_11 
REMARK    9  A    between atoms: C7_10  and  N2_18 
REMARK   10  A    between atoms: C8_11  and  C9_12 
REMARK       I    between atoms: N2_18  and  C15_20 
REMARK   11  A    between atoms: C15_20  and  O3_22 
REMARK   12  A    between atoms: O3_22  and  C16_23 
REMARK   13  A    between atoms: S1_31  and  C22_34 
ROOT
HETATM    1  C6  UNL     1      15.222  23.117  18.436  1.00  0.00     0.160 C 
ENDROOT
BRANCH   1   2
HETATM    2  C5  UNL     1      16.154  24.286  18.284  1.00  0.00     0.174 C 
BRANCH   2   3
HETATM    3  N1  UNL     1      17.553  23.947  18.321  1.00  0.00    -0.283 N 
BRANCH   3   4
HETATM    4  C4  UNL     1      17.834  22.821  19.055  1.00  0.00     0.080 C 
BRANCH   4   5
HETATM    5  C2  UNL     1      18.608  22.966  20.353  1.00  0.00     0.017 C 
HETATM    6  C1  UNL     1      18.469  24.327  20.968  1.00  0.00     0.015 C 
HETATM    7  C3  UNL     1      20.022  22.456  20.306  1.00  0.00     0.015 C 
ENDBRANCH   4   5
ENDBRANCH   3   4
BRANCH   3   8
HETATM    8  S1  UNL     1      18.339  24.419  16.935  1.00  0.00     0.264 S 
HETATM    9  O6  UNL     1      18.561  23.283  15.949  1.00  0.00    -0.200 OA
HETATM   10  O7  UNL     1      17.400  25.367  16.168  1.00  0.00    -0.200 OA
BRANCH   8  11
HETATM   11  C22 UNL     1      19.820  25.319  17.116  1.00  0.00     0.082 A 
HETATM   12  C23 UNL     1      20.376  25.608  18.341  1.00  0.00     0.028 A 
HETATM   13  C24 UNL     1      21.551  26.320  18.441  1.00  0.00     0.041 A 
HETATM   14  C25 UNL     1      22.231  26.779  17.324  1.00  0.00     0.105 A 
HETATM   15  C26 UNL     1      21.682  26.493  16.094  1.00  0.00     0.106 A 
HETATM   16  O9  UNL     1      23.405  27.502  17.116  1.00  0.00    -0.323 OA
HETATM   17  C27 UNL     1      20.486  25.770  15.991  1.00  0.00     0.065 A 
HETATM   18  O8  UNL     1      22.531  27.048  15.149  1.00  0.00    -0.323 OA
HETATM   19  C28 UNL     1      23.403  27.975  15.765  1.00  0.00     0.352 C 
ENDBRANCH   8  11
ENDBRANCH   3   8
ENDBRANCH   2   3
ENDBRANCH   1   2
BRANCH   1  20
HETATM   20  O1  UNL     1      13.988  23.474  18.926  1.00  0.00    -0.392 OA
ATOM     21  H1  UNL     1      13.605  22.809  19.488  1.00  0.00     0.210 HD
ENDBRANCH   1  20
BRANCH   1  22
HETATM   22  C7  UNL     1      15.016  22.359  17.153  1.00  0.00     0.121 C 
BRANCH  22  23
HETATM   23  C8  UNL     1      14.221  23.162  16.167  1.00  0.00     0.066 C 
BRANCH  23  24
HETATM   24  C9  UNL     1      14.578  22.813  14.772  1.00  0.00    -0.056 A 
HETATM   25  C10 UNL     1      13.869  21.832  14.120  1.00  0.00     0.007 A 
HETATM   26  C11 UNL     1      14.162  21.466  12.811  1.00  0.00     0.001 A 
HETATM   27  C12 UNL     1      15.197  22.118  12.169  1.00  0.00     0.000 A 
HETATM   28  C13 UNL     1      15.915  23.095  12.798  1.00  0.00     0.001 A 
HETATM   29  C14 UNL     1      15.603  23.449  14.115  1.00  0.00     0.007 A 
ENDBRANCH  23  24
ENDBRANCH  22  23
BRANCH  22  30
HETATM   30  N2  UNL     1      14.357  21.069  17.412  1.00  0.00    -0.329 N 
HETATM   31  C15 UNL     1      15.098  19.912  17.765  1.00  0.00     0.361 C 
HETATM   32  O2  UNL     1      16.335  19.996  17.855  1.00  0.00    -0.238 OA
ATOM     33  H2  UNL     1      13.341  21.005  17.335  1.00  0.00     0.165 HD
BRANCH  31  34
HETATM   34  O3  UNL     1      14.521  18.681  18.019  1.00  0.00    -0.296 OA
BRANCH  34  35
HETATM   35  C16 UNL     1      14.093  18.348  19.294  1.00  0.00     0.166 C 
HETATM   36  C17 UNL     1      13.566  19.516  20.090  1.00  0.00     0.204 C 
HETATM   37  O4  UNL     1      12.918  18.869  21.140  1.00  0.00    -0.358 OA
HETATM   38  C18 UNL     1      12.213  17.813  20.572  1.00  0.00     0.266 C 
HETATM   39  O5  UNL     1      10.949  18.248  20.217  1.00  0.00    -0.361 OA
HETATM   40  C21 UNL     1      12.937  17.399  19.338  1.00  0.00     0.075 C 
HETATM   41  C19 UNL     1      10.632  17.649  19.005  1.00  0.00     0.171 C 
HETATM   42  C20 UNL     1      11.936  17.658  18.238  1.00  0.00     0.038 C 
ENDBRANCH  34  35
ENDBRANCH  31  34
ENDBRANCH  22  30
ENDBRANCH   1  22
TORSDOF 13
ENDMDL
