MODEL 1
REMARK VINA RESULT: -9.796982555      0.000      0.000
REMARK  13 active torsions:
REMARK  status: ('A' for Active; 'I' for Inactive)
REMARK    1  A    between atoms: C2_2  and  C4_4 
REMARK    2  A    between atoms: C4_4  and  N1_5 
REMARK    3  A    between atoms: N1_5  and  C5_6 
REMARK    4  A    between atoms: N1_5  and  S1_31 
REMARK    5  A    between atoms: C5_6  and  C6_7 
REMARK    6  A    between atoms: C6_7  and  O1_8 
REMARK    7  A    between atoms: C6_7  and  C7_10 
REMARK    8  A    between atoms: C7_10  and  C8_11 
REMARK    9  A    between atoms: C7_10  and  N2_18 
REMARK   10  A    between atoms: C8_11  and  C9_12 
REMARK       I    between atoms: N2_18  and  C15_20 
REMARK   11  A    between atoms: C15_20  and  O3_22 
REMARK   12  A    between atoms: O3_22  and  C16_23 
REMARK   13  A    between atoms: S1_31  and  C22_34 
ROOT
HETATM    1  C6  UNL     1      14.953  23.327  17.603  1.00  0.00     0.160 C 
ENDROOT
BRANCH   1   2
HETATM    2  C5  UNL     1      14.025  22.802  16.545  1.00  0.00     0.174 C 
BRANCH   2   3
HETATM    3  N1  UNL     1      14.611  21.824  15.665  1.00  0.00    -0.283 N 
BRANCH   3   4
HETATM    4  C4  UNL     1      13.913  20.643  15.603  1.00  0.00     0.080 C 
BRANCH   4   5
HETATM    5  C2  UNL     1      12.406  20.670  15.780  1.00  0.00     0.017 C 
HETATM    6  C1  UNL     1      11.889  19.501  16.565  1.00  0.00     0.015 C 
HETATM    7  C3  UNL     1      11.628  20.960  14.527  1.00  0.00     0.015 C 
ENDBRANCH   4   5
ENDBRANCH   3   4
BRANCH   3   8
HETATM    8  S1  UNL     1      15.420  22.537  14.400  1.00  0.00     0.264 S 
HETATM    9  O6  UNL     1      15.731  21.576  13.263  1.00  0.00    -0.200 OA
HETATM   10  O7  UNL     1      14.463  23.550  13.748  1.00  0.00    -0.200 OA
BRANCH   8  11
HETATM   11  C22 UNL     1      16.848  23.462  14.777  1.00  0.00     0.082 A 
HETATM   12  C23 UNL     1      17.857  22.986  15.583  1.00  0.00     0.028 A 
HETATM   13  C24 UNL     1      18.972  23.749  15.855  1.00  0.00     0.041 A 
HETATM   14  C25 UNL     1      19.137  25.023  15.335  1.00  0.00     0.105 A 
HETATM   15  C26 UNL     1      18.133  25.506  14.527  1.00  0.00     0.106 A 
HETATM   16  O9  UNL     1      20.125  26.002  15.429  1.00  0.00    -0.323 OA
HETATM   17  C27 UNL     1      16.998  24.731  14.251  1.00  0.00     0.065 A 
HETATM   18  O8  UNL     1      18.522  26.777  14.137  1.00  0.00    -0.323 OA
HETATM   19  C28 UNL     1      19.572  27.238  14.965  1.00  0.00     0.352 C 
ENDBRANCH   8  11
ENDBRANCH   3   8
ENDBRANCH   2   3
ENDBRANCH   1   2
BRANCH   1  20
HETATM   20  O1  UNL     1      14.356  24.247  18.433  1.00  0.00    -0.392 OA
ATOM     21  H1  UNL     1      13.522  23.949  18.778  1.00  0.00     0.210 HD
ENDBRANCH   1  20
BRANCH   1  22
HETATM   22  C7  UNL     1      15.545  22.241  18.458  1.00  0.00     0.121 C 
BRANCH  22  23
HETATM   23  C8  UNL     1      14.535  21.693  19.421  1.00  0.00     0.066 C 
BRANCH  23  24
HETATM   24  C9  UNL     1      14.371  20.229  19.261  1.00  0.00    -0.056 A 
HETATM   25  C10 UNL     1      13.413  19.574  19.997  1.00  0.00     0.007 A 
HETATM   26  C11 UNL     1      13.217  18.201  19.886  1.00  0.00     0.001 A 
HETATM   27  C12 UNL     1      14.020  17.499  19.008  1.00  0.00     0.000 A 
HETATM   28  C13 UNL     1      14.979  18.130  18.268  1.00  0.00     0.001 A 
HETATM   29  C14 UNL     1      15.159  19.512  18.395  1.00  0.00     0.007 A 
ENDBRANCH  23  24
ENDBRANCH  22  23
BRANCH  22  30
HETATM   30  N2  UNL     1      16.727  22.735  19.183  1.00  0.00    -0.329 N 
HETATM   31  C15 UNL     1      17.977  22.069  19.108  1.00  0.00     0.361 C 
HETATM   32  O2  UNL     1      18.071  21.043  18.414  1.00  0.00    -0.238 OA
ATOM     33  H2  UNL     1      16.644  23.577  19.752  1.00  0.00     0.165 HD
BRANCH  31  34
HETATM   34  O3  UNL     1      19.113  22.499  19.770  1.00  0.00    -0.296 OA
BRANCH  34  35
HETATM   35  C16 UNL     1      19.537  23.814  19.670  1.00  0.00     0.166 C 
HETATM   36  C17 UNL     1      19.363  24.614  20.938  1.00  0.00     0.204 C 
HETATM   37  O4  UNL     1      20.151  25.732  20.674  1.00  0.00    -0.358 OA
HETATM   38  C18 UNL     1      21.324  25.256  20.098  1.00  0.00     0.266 C 
HETATM   39  O5  UNL     1      22.245  24.991  21.094  1.00  0.00    -0.361 OA
HETATM   40  C21 UNL     1      20.999  23.982  19.400  1.00  0.00     0.075 C 
HETATM   41  C19 UNL     1      22.915  23.828  20.738  1.00  0.00     0.171 C 
HETATM   42  C20 UNL     1      21.840  22.958  20.124  1.00  0.00     0.038 C 
ENDBRANCH  34  35
ENDBRANCH  31  34
ENDBRANCH  22  30
ENDBRANCH   1  22
TORSDOF 13
ENDMDL
