MODEL 4
REMARK VINA RESULT: -9.530048256      2.491      6.788
REMARK  13 active torsions:
REMARK  status: ('A' for Active; 'I' for Inactive)
REMARK    1  A    between atoms: C2_2  and  C4_4 
REMARK    2  A    between atoms: C4_4  and  N1_5 
REMARK    3  A    between atoms: N1_5  and  C5_6 
REMARK    4  A    between atoms: N1_5  and  S1_31 
REMARK    5  A    between atoms: C5_6  and  C6_7 
REMARK    6  A    between atoms: C6_7  and  O1_8 
REMARK    7  A    between atoms: C6_7  and  C7_10 
REMARK    8  A    between atoms: C7_10  and  C8_11 
REMARK    9  A    between atoms: C7_10  and  N2_18 
REMARK   10  A    between atoms: C8_11  and  C9_12 
REMARK       I    between atoms: N2_18  and  C15_20 
REMARK   11  A    between atoms: C15_20  and  O3_22 
REMARK   12  A    between atoms: O3_22  and  C16_23 
REMARK   13  A    between atoms: S1_31  and  C22_34 
ROOT
HETATM    1  C6  UNL     1      15.050  23.181  18.253  1.00  0.00     0.160 C 
ENDROOT
BRANCH   1   2
HETATM    2  C5  UNL     1      16.223  24.114  18.150  1.00  0.00     0.174 C 
BRANCH   2   3
HETATM    3  N1  UNL     1      17.462  23.578  18.651  1.00  0.00    -0.283 N 
BRANCH   3   4
HETATM    4  C4  UNL     1      17.309  22.713  19.706  1.00  0.00     0.080 C 
BRANCH   4   5
HETATM    5  C2  UNL     1      18.215  22.862  20.914  1.00  0.00     0.017 C 
HETATM    6  C1  UNL     1      18.833  24.225  21.017  1.00  0.00     0.015 C 
HETATM    7  C3  UNL     1      19.186  21.731  21.119  1.00  0.00     0.015 C 
ENDBRANCH   4   5
ENDBRANCH   3   4
BRANCH   3   8
HETATM    8  S1  UNL     1      18.607  23.449  17.453  1.00  0.00     0.264 S 
HETATM    9  O6  UNL     1      19.840  22.667  17.877  1.00  0.00    -0.200 OA
HETATM   10  O7  UNL     1      18.011  22.579  16.333  1.00  0.00    -0.200 OA
BRANCH   8  11
HETATM   11  C22 UNL     1      19.104  24.915  16.653  1.00  0.00     0.082 A 
HETATM   12  C23 UNL     1      18.572  25.332  15.455  1.00  0.00     0.028 A 
HETATM   13  C24 UNL     1      18.991  26.501  14.857  1.00  0.00     0.041 A 
HETATM   14  C25 UNL     1      19.960  27.311  15.424  1.00  0.00     0.105 A 
HETATM   15  C26 UNL     1      20.497  26.902  16.624  1.00  0.00     0.106 A 
HETATM   16  O9  UNL     1      20.569  28.514  15.067  1.00  0.00    -0.323 OA
HETATM   17  C27 UNL     1      20.073  25.713  17.233  1.00  0.00     0.065 A 
HETATM   18  O8  UNL     1      21.429  27.863  16.983  1.00  0.00    -0.323 OA
HETATM   19  C28 UNL     1      21.744  28.674  15.868  1.00  0.00     0.352 C 
ENDBRANCH   8  11
ENDBRANCH   3   8
ENDBRANCH   2   3
ENDBRANCH   1   2
BRANCH   1  20
HETATM   20  O1  UNL     1      13.871  23.830  18.541  1.00  0.00    -0.392 OA
ATOM     21  H1  UNL     1      13.241  23.274  18.984  1.00  0.00     0.210 HD
ENDBRANCH   1  20
BRANCH   1  22
HETATM   22  C7  UNL     1      14.841  22.359  17.011  1.00  0.00     0.121 C 
BRANCH  22  23
HETATM   23  C8  UNL     1      13.988  23.085  16.014  1.00  0.00     0.066 C 
BRANCH  23  24
HETATM   24  C9  UNL     1      14.539  22.970  14.643  1.00  0.00    -0.056 A 
HETATM   25  C10 UNL     1      13.958  22.096  13.756  1.00  0.00     0.007 A 
HETATM   26  C11 UNL     1      14.435  21.948  12.457  1.00  0.00     0.001 A 
HETATM   27  C12 UNL     1      15.523  22.709  12.073  1.00  0.00     0.000 A 
HETATM   28  C13 UNL     1      16.114  23.583  12.940  1.00  0.00     0.001 A 
HETATM   29  C14 UNL     1      15.618  23.717  14.241  1.00  0.00     0.007 A 
ENDBRANCH  23  24
ENDBRANCH  22  23
BRANCH  22  30
HETATM   30  N2  UNL     1      14.242  21.057  17.344  1.00  0.00    -0.329 N 
HETATM   31  C15 UNL     1      15.042  19.940  17.699  1.00  0.00     0.361 C 
HETATM   32  O2  UNL     1      16.277  20.071  17.727  1.00  0.00    -0.238 OA
ATOM     33  H2  UNL     1      13.228  20.955  17.318  1.00  0.00     0.165 HD
BRANCH  31  34
HETATM   34  O3  UNL     1      14.523  18.699  18.021  1.00  0.00    -0.296 OA
BRANCH  34  35
HETATM   35  C16 UNL     1      14.148  18.403  19.321  1.00  0.00     0.166 C 
HETATM   36  C17 UNL     1      13.644  19.593  20.101  1.00  0.00     0.204 C 
HETATM   37  O4  UNL     1      13.041  18.975  21.195  1.00  0.00    -0.358 OA
HETATM   38  C18 UNL     1      12.322  17.897  20.688  1.00  0.00     0.266 C 
HETATM   39  O5  UNL     1      11.042  18.313  20.369  1.00  0.00    -0.361 OA
HETATM   40  C21 UNL     1      13.001  17.449  19.440  1.00  0.00     0.075 C 
HETATM   41  C19 UNL     1      10.684  17.674  19.190  1.00  0.00     0.171 C 
HETATM   42  C20 UNL     1      11.956  17.668  18.372  1.00  0.00     0.038 C 
ENDBRANCH  34  35
ENDBRANCH  31  34
ENDBRANCH  22  30
ENDBRANCH   1  22
TORSDOF 13
ENDMDL
