MODEL 2
REMARK VINA RESULT: -9.633675492      0.564      1.316
REMARK  13 active torsions:
REMARK  status: ('A' for Active; 'I' for Inactive)
REMARK    1  A    between atoms: C2_2  and  C4_4 
REMARK    2  A    between atoms: C4_4  and  N1_5 
REMARK    3  A    between atoms: N1_5  and  C5_6 
REMARK    4  A    between atoms: N1_5  and  S1_31 
REMARK    5  A    between atoms: C5_6  and  C6_7 
REMARK    6  A    between atoms: C6_7  and  O1_8 
REMARK    7  A    between atoms: C6_7  and  C7_10 
REMARK    8  A    between atoms: C7_10  and  C8_11 
REMARK    9  A    between atoms: C7_10  and  N2_18 
REMARK   10  A    between atoms: C8_11  and  C9_12 
REMARK       I    between atoms: N2_18  and  C15_20 
REMARK   11  A    between atoms: C15_20  and  O3_22 
REMARK   12  A    between atoms: O3_22  and  C16_23 
REMARK   13  A    between atoms: S1_31  and  C22_34 
ROOT
HETATM    1  C6  UNL     1      14.949  23.134  17.550  1.00  0.00     0.160 C 
ENDROOT
BRANCH   1   2
HETATM    2  C5  UNL     1      13.947  22.624  16.554  1.00  0.00     0.174 C 
BRANCH   2   3
HETATM    3  N1  UNL     1      14.456  21.630  15.646  1.00  0.00    -0.283 N 
BRANCH   3   4
HETATM    4  C4  UNL     1      13.752  20.451  15.658  1.00  0.00     0.080 C 
BRANCH   4   5
HETATM    5  C2  UNL     1      12.247  20.497  15.852  1.00  0.00     0.017 C 
HETATM    6  C1  UNL     1      11.723  19.329  16.634  1.00  0.00     0.015 C 
HETATM    7  C3  UNL     1      11.459  20.808  14.610  1.00  0.00     0.015 C 
ENDBRANCH   4   5
ENDBRANCH   3   4
BRANCH   3   8
HETATM    8  S1  UNL     1      15.163  22.320  14.309  1.00  0.00     0.264 S 
HETATM    9  O6  UNL     1      15.642  21.302  13.285  1.00  0.00    -0.200 OA
HETATM   10  O7  UNL     1      14.069  23.090  13.550  1.00  0.00    -0.200 OA
BRANCH   8  11
HETATM   11  C22 UNL     1      16.420  23.495  14.580  1.00  0.00     0.082 A 
HETATM   12  C23 UNL     1      16.300  24.818  14.219  1.00  0.00     0.028 A 
HETATM   13  C24 UNL     1      17.317  25.717  14.454  1.00  0.00     0.041 A 
HETATM   14  C25 UNL     1      18.505  25.342  15.062  1.00  0.00     0.105 A 
HETATM   15  C26 UNL     1      18.633  24.022  15.427  1.00  0.00     0.106 A 
HETATM   16  O9  UNL     1      19.678  26.006  15.420  1.00  0.00    -0.323 OA
HETATM   17  C27 UNL     1      17.600  23.106  15.188  1.00  0.00     0.065 A 
HETATM   18  O8  UNL     1      19.887  23.896  16.006  1.00  0.00    -0.323 OA
HETATM   19  C28 UNL     1      20.681  25.022  15.689  1.00  0.00     0.352 C 
ENDBRANCH   8  11
ENDBRANCH   3   8
ENDBRANCH   2   3
ENDBRANCH   1   2
BRANCH   1  20
HETATM   20  O1  UNL     1      14.442  24.117  18.368  1.00  0.00    -0.392 OA
ATOM     21  H1  UNL     1      13.887  24.735  17.905  1.00  0.00     0.210 HD
ENDBRANCH   1  20
BRANCH   1  22
HETATM   22  C7  UNL     1      15.518  22.048  18.421  1.00  0.00     0.121 C 
BRANCH  22  23
HETATM   23  C8  UNL     1      14.503  21.553  19.408  1.00  0.00     0.066 C 
BRANCH  23  24
HETATM   24  C9  UNL     1      14.300  20.090  19.289  1.00  0.00    -0.056 A 
HETATM   25  C10 UNL     1      15.097  19.367  18.434  1.00  0.00     0.007 A 
HETATM   26  C11 UNL     1      14.950  17.992  18.284  1.00  0.00     0.001 A 
HETATM   27  C12 UNL     1      13.969  17.358  19.023  1.00  0.00     0.000 A 
HETATM   28  C13 UNL     1      13.166  18.059  19.878  1.00  0.00     0.001 A 
HETATM   29  C14 UNL     1      13.332  19.441  20.014  1.00  0.00     0.007 A 
ENDBRANCH  23  24
ENDBRANCH  22  23
BRANCH  22  30
HETATM   30  N2  UNL     1      16.724  22.520  19.121  1.00  0.00    -0.329 N 
HETATM   31  C15 UNL     1      18.004  21.974  18.847  1.00  0.00     0.361 C 
HETATM   32  O2  UNL     1      18.104  21.075  17.996  1.00  0.00    -0.238 OA
ATOM     33  H2  UNL     1      16.636  23.258  19.820  1.00  0.00     0.165 HD
BRANCH  31  34
HETATM   34  O3  UNL     1      19.163  22.389  19.479  1.00  0.00    -0.296 OA
BRANCH  34  35
HETATM   35  C16 UNL     1      19.519  23.728  19.500  1.00  0.00     0.166 C 
HETATM   36  C17 UNL     1      19.236  24.418  20.811  1.00  0.00     0.204 C 
HETATM   37  O4  UNL     1      19.974  25.592  20.674  1.00  0.00    -0.358 OA
HETATM   38  C18 UNL     1      21.200  25.221  20.132  1.00  0.00     0.266 C 
HETATM   39  O5  UNL     1      22.081  24.928  21.156  1.00  0.00    -0.361 OA
HETATM   40  C21 UNL     1      20.982  23.989  19.325  1.00  0.00     0.075 C 
HETATM   41  C19 UNL     1      22.831  23.831  20.753  1.00  0.00     0.171 C 
HETATM   42  C20 UNL     1      21.839  22.957  20.017  1.00  0.00     0.038 C 
ENDBRANCH  34  35
ENDBRANCH  31  34
ENDBRANCH  22  30
ENDBRANCH   1  22
TORSDOF 13
ENDMDL
