MODEL 5
REMARK VINA RESULT: -9.453506070      2.339      8.633
REMARK  13 active torsions:
REMARK  status: ('A' for Active; 'I' for Inactive)
REMARK    1  A    between atoms: C2_2  and  C4_4 
REMARK    2  A    between atoms: C4_4  and  N1_5 
REMARK    3  A    between atoms: N1_5  and  C5_6 
REMARK    4  A    between atoms: N1_5  and  S1_31 
REMARK    5  A    between atoms: C5_6  and  C6_7 
REMARK    6  A    between atoms: C6_7  and  O1_8 
REMARK    7  A    between atoms: C6_7  and  C7_10 
REMARK    8  A    between atoms: C7_10  and  C8_11 
REMARK    9  A    between atoms: C7_10  and  N2_18 
REMARK   10  A    between atoms: C8_11  and  C9_12 
REMARK       I    between atoms: N2_18  and  C15_20 
REMARK   11  A    between atoms: C15_20  and  O3_22 
REMARK   12  A    between atoms: O3_22  and  C16_23 
REMARK   13  A    between atoms: S1_31  and  C22_34 
ROOT
HETATM    1  C6  UNL     1      16.521  24.253  18.209  1.00  0.00     0.160 C 
ENDROOT
BRANCH   1   2
HETATM    2  C5  UNL     1      17.772  24.529  18.994  1.00  0.00     0.174 C 
BRANCH   2   3
HETATM    3  N1  UNL     1      18.761  23.485  18.932  1.00  0.00    -0.283 N 
BRANCH   3   4
HETATM    4  C4  UNL     1      20.050  23.945  18.818  1.00  0.00     0.080 C 
BRANCH   4   5
HETATM    5  C2  UNL     1      20.381  25.335  19.328  1.00  0.00     0.017 C 
HETATM    6  C1  UNL     1      21.122  26.166  18.322  1.00  0.00     0.015 C 
HETATM    7  C3  UNL     1      20.970  25.377  20.711  1.00  0.00     0.015 C 
ENDBRANCH   4   5
ENDBRANCH   3   4
BRANCH   3   8
HETATM    8  S1  UNL     1      18.288  22.136  19.780  1.00  0.00     0.264 S 
HETATM    9  O6  UNL     1      19.440  21.207  20.130  1.00  0.00    -0.200 OA
HETATM   10  O7  UNL     1      17.787  22.604  21.157  1.00  0.00    -0.200 OA
BRANCH   8  11
HETATM   11  C22 UNL     1      16.972  21.197  19.129  1.00  0.00     0.082 A 
HETATM   12  C23 UNL     1      17.007  20.625  17.879  1.00  0.00     0.028 A 
HETATM   13  C24 UNL     1      15.945  19.887  17.402  1.00  0.00     0.041 A 
HETATM   14  C25 UNL     1      14.796  19.683  18.150  1.00  0.00     0.105 A 
HETATM   15  C26 UNL     1      14.753  20.251  19.402  1.00  0.00     0.106 A 
HETATM   16  O9  UNL     1      13.596  19.004  17.942  1.00  0.00    -0.323 OA
HETATM   17  C27 UNL     1      15.832  21.002  19.888  1.00  0.00     0.065 A 
HETATM   18  O8  UNL     1      13.524  19.911  19.944  1.00  0.00    -0.323 OA
HETATM   19  C28 UNL     1      12.658  19.447  18.928  1.00  0.00     0.352 C 
ENDBRANCH   8  11
ENDBRANCH   3   8
ENDBRANCH   2   3
ENDBRANCH   1   2
BRANCH   1  20
HETATM   20  O1  UNL     1      15.500  25.127  18.501  1.00  0.00    -0.392 OA
ATOM     21  H1  UNL     1      15.668  26.010  18.194  1.00  0.00     0.210 HD
ENDBRANCH   1  20
BRANCH   1  22
HETATM   22  C7  UNL     1      16.743  24.273  16.722  1.00  0.00     0.121 C 
BRANCH  22  23
HETATM   23  C8  UNL     1      17.219  25.618  16.259  1.00  0.00     0.066 C 
BRANCH  23  24
HETATM   24  C9  UNL     1      18.572  25.537  15.660  1.00  0.00    -0.056 A 
HETATM   25  C10 UNL     1      19.155  26.677  15.160  1.00  0.00     0.007 A 
HETATM   26  C11 UNL     1      20.423  26.658  14.586  1.00  0.00     0.001 A 
HETATM   27  C12 UNL     1      21.093  25.450  14.528  1.00  0.00     0.000 A 
HETATM   28  C13 UNL     1      20.530  24.307  15.019  1.00  0.00     0.001 A 
HETATM   29  C14 UNL     1      19.255  24.348  15.592  1.00  0.00     0.007 A 
ENDBRANCH  23  24
ENDBRANCH  22  23
BRANCH  22  30
HETATM   30  N2  UNL     1      15.514  23.892  16.007  1.00  0.00    -0.329 N 
HETATM   31  C15 UNL     1      15.510  22.861  15.033  1.00  0.00     0.361 C 
HETATM   32  O2  UNL     1      16.572  22.269  14.780  1.00  0.00    -0.238 OA
ATOM     33  H2  UNL     1      14.645  24.383  16.218  1.00  0.00     0.165 HD
BRANCH  31  34
HETATM   34  O3  UNL     1      14.379  22.469  14.339  1.00  0.00    -0.296 OA
BRANCH  34  35
HETATM   35  C16 UNL     1      13.362  21.776  14.975  1.00  0.00     0.166 C 
HETATM   36  C17 UNL     1      11.980  22.114  14.471  1.00  0.00     0.204 C 
HETATM   37  O4  UNL     1      11.224  21.074  15.009  1.00  0.00    -0.358 OA
HETATM   38  C18 UNL     1      11.963  19.912  14.813  1.00  0.00     0.266 C 
HETATM   39  O5  UNL     1      11.630  19.361  13.590  1.00  0.00    -0.361 OA
HETATM   40  C21 UNL     1      13.403  20.292  14.788  1.00  0.00     0.075 C 
HETATM   41  C19 UNL     1      12.801  18.872  13.026  1.00  0.00     0.171 C 
HETATM   42  C20 UNL     1      13.847  19.899  13.400  1.00  0.00     0.038 C 
ENDBRANCH  34  35
ENDBRANCH  31  34
ENDBRANCH  22  30
ENDBRANCH   1  22
TORSDOF 13
ENDMDL
