MODEL 2
REMARK VINA RESULT: -4.872695496      2.534      3.959
REMARK  4 active torsions:
REMARK  status: ('A' for Active; 'I' for Inactive)
REMARK    1  A    between atoms: C2_2  and  N1_3 
REMARK    2  A    between atoms: C2_2  and  C6_10 
REMARK       I    between atoms: N1_3  and  C3_5 
REMARK    3  A    between atoms: C3_5  and  C4_7 
REMARK    4  A    between atoms: C4_7  and  C5_8 
ROOT
HETATM    1  N1  UNL     1      13.847  28.252  30.199  1.00  0.00    -0.347 N 
ATOM      2  H1  UNL     1      14.813  28.156  30.510  1.00  0.00     0.163 HD
HETATM    3  C3  UNL     1      13.102  27.070  30.018  1.00  0.00     0.219 C 
HETATM    4  O1  UNL     1      11.909  27.212  29.633  1.00  0.00    -0.274 OA
ENDROOT
BRANCH   1   5
HETATM    5  C2  UNL     1      13.352  29.582  29.979  1.00  0.00     0.181 C 
HETATM    6  C1  UNL     1      14.163  30.163  28.812  1.00  0.00     0.043 C 
BRANCH   5   7
HETATM    7  C6  UNL     1      13.392  30.444  31.151  1.00  0.00     0.196 C 
HETATM    8  O2  UNL     1      14.476  30.925  31.554  1.00  0.00    -0.646 OA
HETATM    9  O3  UNL     1      12.242  30.759  31.850  1.00  0.00    -0.646 OA
ENDBRANCH   5   7
ENDBRANCH   1   5
BRANCH   3  10
HETATM   10  C4  UNL     1      13.657  25.714  30.260  1.00  0.00     0.114 C 
BRANCH  10  11
HETATM   11  C5  UNL     1      15.036  25.750  30.854  1.00  0.00     0.095 C 
HETATM   12  S1  UNL     1      16.240  24.775  29.973  1.00  0.00    -0.097 SA
ENDBRANCH  10  11
ENDBRANCH   3  10
TORSDOF 4
ENDMDL
