MODEL 13
REMARK VINA RESULT: -6.213411805      1.995      4.500
REMARK  5 active torsions:
REMARK  status: ('A' for Active; 'I' for Inactive)
REMARK    1  A    between atoms: O1_2  and  C2_3 
REMARK    2  A    between atoms: C2_3  and  C3_4 
REMARK    3  A    between atoms: C5_6  and  O2_7 
REMARK    4  A    between atoms: C9_13  and  C10_14 
REMARK    5  A    between atoms: C13_17  and  O4_18 
ROOT
HETATM    1  C3  UNL     1      -5.812   6.414  24.561  1.00  0.00     0.003 A 
HETATM    2  C4  UNL     1      -4.579   6.534  25.011  1.00  0.00     0.048 A 
HETATM    3  C5  UNL     1      -4.245   5.962  26.279  1.00  0.00     0.067 A 
HETATM    4  C6  UNL     1      -5.226   5.314  26.972  1.00  0.00     0.051 A 
HETATM    5  C7  UNL     1      -6.507   5.167  26.490  1.00  0.00     0.004 A 
HETATM    6  C8  UNL     1      -6.809   5.718  25.271  1.00  0.00     0.094 A 
HETATM    7  O3  UNL     1      -8.078   5.579  24.748  1.00  0.00    -0.312 OA
HETATM    8  C9  UNL     1      -8.880   4.450  25.224  1.00  0.00     0.072 C 
HETATM    9  C16 UNL     1      -8.864   4.360  26.663  1.00  0.00     0.073 C 
HETATM   10  C17 UNL     1      -9.290   3.114  27.362  1.00  0.00     0.016 C 
HETATM   11  C18 UNL     1      -8.764   3.362  28.785  1.00  0.00     0.005 C 
HETATM   12  C19 UNL     1      -7.317   3.753  28.416  1.00  0.00     0.036 C 
HETATM   13  C20 UNL     1      -7.579   4.726  27.345  1.00  0.00    -0.056 C 
ENDROOT
BRANCH   8  14
HETATM   14  C10 UNL     1      -8.707   3.267  24.381  1.00  0.00    -0.005 A 
HETATM   15  C11 UNL     1      -7.519   2.609  24.172  1.00  0.00     0.017 A 
HETATM   16  C12 UNL     1      -7.382   1.485  23.318  1.00  0.00     0.037 A 
HETATM   17  C13 UNL     1      -8.478   1.026  22.646  1.00  0.00     0.065 A 
HETATM   18  C14 UNL     1      -9.675   1.663  22.825  1.00  0.00     0.037 A 
HETATM   19  C15 UNL     1      -9.789   2.757  23.683  1.00  0.00     0.017 A 
BRANCH  17  20
HETATM   20  O4  UNL     1      -8.376  -0.046  21.789  1.00  0.00    -0.361 OA
ATOM     21  H4  UNL     1      -7.609  -0.156  21.241  1.00  0.00     0.217 HD
ENDBRANCH  17  20
ENDBRANCH   8  14
BRANCH   1  22
HETATM   22  C2  UNL     1      -6.309   7.067  23.294  1.00  0.00     0.208 C 
BRANCH  22  23
HETATM   23  O1  UNL     1      -5.455   6.642  22.200  1.00  0.00    -0.391 OA
HETATM   24  C1  UNL     1      -6.076   5.509  21.696  1.00  0.00     0.201 C 
ENDBRANCH  22  23
ENDBRANCH   1  22
BRANCH   3  25
HETATM   25  O2  UNL     1      -2.960   6.047  26.818  1.00  0.00    -0.361 OA
ATOM     26  H2  UNL     1      -2.768   5.785  27.711  1.00  0.00     0.217 HD
ENDBRANCH   3  25
TORSDOF 5
ENDMDL
