MODEL 5
REMARK VINA RESULT: -7.446512002      2.107      5.791
REMARK  5 active torsions:
REMARK  status: ('A' for Active; 'I' for Inactive)
REMARK    1  A    between atoms: O1_2  and  C2_3 
REMARK    2  A    between atoms: C2_3  and  C3_4 
REMARK    3  A    between atoms: C5_6  and  O2_7 
REMARK    4  A    between atoms: C9_13  and  C10_14 
REMARK    5  A    between atoms: C13_17  and  O4_18 
ROOT
HETATM    1  C3  UNL     1      -6.996   2.086  23.355  1.00  0.00     0.003 A 
HETATM    2  C4  UNL     1      -8.095   1.380  23.176  1.00  0.00     0.048 A 
HETATM    3  C5  UNL     1      -9.277   1.743  23.895  1.00  0.00     0.067 A 
HETATM    4  C6  UNL     1      -9.213   2.811  24.742  1.00  0.00     0.051 A 
HETATM    5  C7  UNL     1      -8.072   3.563  24.909  1.00  0.00     0.004 A 
HETATM    6  C8  UNL     1      -6.949   3.204  24.209  1.00  0.00     0.094 A 
HETATM    7  O3  UNL     1      -5.791   3.942  24.338  1.00  0.00    -0.312 OA
HETATM    8  C9  UNL     1      -5.927   5.332  24.777  1.00  0.00     0.072 C 
HETATM    9  C16 UNL     1      -6.782   5.441  25.933  1.00  0.00     0.073 C 
HETATM   10  C17 UNL     1      -7.363   6.751  26.342  1.00  0.00     0.016 C 
HETATM   11  C18 UNL     1      -8.444   6.311  27.343  1.00  0.00     0.005 C 
HETATM   12  C19 UNL     1      -9.130   5.243  26.466  1.00  0.00     0.036 C 
HETATM   13  C20 UNL     1      -7.950   4.502  25.995  1.00  0.00    -0.056 C 
ENDROOT
BRANCH   8  14
HETATM   14  C10 UNL     1      -6.052   6.250  23.644  1.00  0.00    -0.005 A 
HETATM   15  C11 UNL     1      -6.766   6.001  22.497  1.00  0.00     0.017 A 
HETATM   16  C12 UNL     1      -6.833   6.900  21.403  1.00  0.00     0.037 A 
HETATM   17  C13 UNL     1      -6.147   8.078  21.469  1.00  0.00     0.065 A 
HETATM   18  C14 UNL     1      -5.419   8.354  22.594  1.00  0.00     0.037 A 
HETATM   19  C15 UNL     1      -5.380   7.461  23.665  1.00  0.00     0.017 A 
BRANCH  17  20
HETATM   20  O4  UNL     1      -6.169   8.963  20.415  1.00  0.00    -0.361 OA
ATOM     21  H4  UNL     1      -6.312   8.655  19.528  1.00  0.00     0.217 HD
ENDBRANCH  17  20
ENDBRANCH   8  14
BRANCH   1  22
HETATM   22  C2  UNL     1      -5.664   1.733  22.737  1.00  0.00     0.208 C 
BRANCH  22  23
HETATM   23  O1  UNL     1      -5.815   1.749  21.294  1.00  0.00    -0.391 OA
HETATM   24  C1  UNL     1      -5.538   3.058  20.931  1.00  0.00     0.201 C 
ENDBRANCH  22  23
ENDBRANCH   1  22
BRANCH   3  25
HETATM   25  O2  UNL     1     -10.477   1.044  23.755  1.00  0.00    -0.361 OA
ATOM     26  H2  UNL     1     -11.062   0.891  24.488  1.00  0.00     0.217 HD
ENDBRANCH   3  25
TORSDOF 5
ENDMDL
