MODEL 2
REMARK VINA RESULT: -8.124484121      2.199      4.559
REMARK  5 active torsions:
REMARK  status: ('A' for Active; 'I' for Inactive)
REMARK    1  A    between atoms: O1_2  and  C2_3 
REMARK    2  A    between atoms: C2_3  and  C3_4 
REMARK    3  A    between atoms: C5_6  and  O2_7 
REMARK    4  A    between atoms: C9_13  and  C10_14 
REMARK    5  A    between atoms: C13_17  and  O4_18 
ROOT
HETATM    1  C3  UNL     1      -6.508   7.135  23.030  1.00  0.00     0.003 A 
HETATM    2  C4  UNL     1      -5.311   7.682  23.102  1.00  0.00     0.048 A 
HETATM    3  C5  UNL     1      -4.466   7.360  24.210  1.00  0.00     0.067 A 
HETATM    4  C6  UNL     1      -4.941   6.494  25.152  1.00  0.00     0.051 A 
HETATM    5  C7  UNL     1      -6.181   5.902  25.063  1.00  0.00     0.004 A 
HETATM    6  C8  UNL     1      -6.977   6.220  23.992  1.00  0.00     0.094 A 
HETATM    7  O3  UNL     1      -8.220   5.635  23.861  1.00  0.00    -0.312 OA
HETATM    8  C9  UNL     1      -8.434   4.355  24.537  1.00  0.00     0.072 C 
HETATM    9  C16 UNL     1      -7.988   4.399  25.907  1.00  0.00     0.073 C 
HETATM   10  C17 UNL     1      -7.762   3.148  26.686  1.00  0.00     0.016 C 
HETATM   11  C18 UNL     1      -6.973   3.674  27.896  1.00  0.00     0.005 C 
HETATM   12  C19 UNL     1      -5.903   4.475  27.125  1.00  0.00     0.036 C 
HETATM   13  C20 UNL     1      -6.762   5.216  26.189  1.00  0.00    -0.056 C 
ENDROOT
BRANCH   8  14
HETATM   14  C10 UNL     1      -8.120   3.222  23.667  1.00  0.00    -0.005 A 
HETATM   15  C11 UNL     1      -6.889   2.964  23.114  1.00  0.00     0.017 A 
HETATM   16  C12 UNL     1      -6.631   1.874  22.243  1.00  0.00     0.037 A 
HETATM   17  C13 UNL     1      -7.654   1.032  21.914  1.00  0.00     0.065 A 
HETATM   18  C14 UNL     1      -8.894   1.265  22.440  1.00  0.00     0.037 A 
HETATM   19  C15 UNL     1      -9.121   2.334  23.307  1.00  0.00     0.017 A 
BRANCH  17  20
HETATM   20  O4  UNL     1      -7.445  -0.020  21.051  1.00  0.00    -0.361 OA
ATOM     21  H4  UNL     1      -8.176  -0.438  20.612  1.00  0.00     0.217 HD
ENDBRANCH  17  20
ENDBRANCH   8  14
BRANCH   1  22
HETATM   22  C2  UNL     1      -7.526   7.481  21.971  1.00  0.00     0.208 C 
BRANCH  22  23
HETATM   23  O1  UNL     1      -6.941   7.205  20.672  1.00  0.00    -0.391 OA
HETATM   24  C1  UNL     1      -6.365   8.406  20.289  1.00  0.00     0.201 C 
ENDBRANCH  22  23
ENDBRANCH   1  22
BRANCH   3  25
HETATM   25  O2  UNL     1      -3.187   7.899  24.352  1.00  0.00    -0.361 OA
ATOM     26  H2  UNL     1      -2.632   7.699  25.097  1.00  0.00     0.217 HD
ENDBRANCH   3  25
TORSDOF 5
ENDMDL
