MODEL 7
REMARK VINA RESULT: -7.063827975      1.828      6.163
REMARK  5 active torsions:
REMARK  status: ('A' for Active; 'I' for Inactive)
REMARK    1  A    between atoms: O1_2  and  C2_3 
REMARK    2  A    between atoms: C2_3  and  C3_4 
REMARK    3  A    between atoms: C5_6  and  O2_7 
REMARK    4  A    between atoms: C9_13  and  C10_14 
REMARK    5  A    between atoms: C13_17  and  O4_18 
ROOT
HETATM    1  C3  UNL     1      -7.107   2.455  23.013  1.00  0.00     0.003 A 
HETATM    2  C4  UNL     1      -8.291   2.097  22.555  1.00  0.00     0.048 A 
HETATM    3  C5  UNL     1      -9.439   2.266  23.392  1.00  0.00     0.067 A 
HETATM    4  C6  UNL     1      -9.256   2.794  24.637  1.00  0.00     0.051 A 
HETATM    5  C7  UNL     1      -8.024   3.192  25.105  1.00  0.00     0.004 A 
HETATM    6  C8  UNL     1      -6.934   3.025  24.288  1.00  0.00     0.094 A 
HETATM    7  O3  UNL     1      -5.686   3.426  24.717  1.00  0.00    -0.312 OA
HETATM    8  C9  UNL     1      -5.631   4.455  25.756  1.00  0.00     0.072 C 
HETATM    9  C16 UNL     1      -6.517   4.148  26.852  1.00  0.00     0.073 C 
HETATM   10  C17 UNL     1      -6.912   5.192  27.840  1.00  0.00     0.016 C 
HETATM   11  C18 UNL     1      -8.096   4.515  28.548  1.00  0.00     0.005 C 
HETATM   12  C19 UNL     1      -8.892   4.100  27.293  1.00  0.00     0.036 C 
HETATM   13  C20 UNL     1      -7.816   3.486  26.500  1.00  0.00    -0.056 C 
ENDROOT
BRANCH   8  14
HETATM   14  C10 UNL     1      -5.557   5.801  25.186  1.00  0.00    -0.005 A 
HETATM   15  C11 UNL     1      -6.502   6.365  24.363  1.00  0.00     0.017 A 
HETATM   16  C12 UNL     1      -6.378   7.661  23.798  1.00  0.00     0.037 A 
HETATM   17  C13 UNL     1      -5.260   8.396  24.064  1.00  0.00     0.065 A 
HETATM   18  C14 UNL     1      -4.296   7.860  24.873  1.00  0.00     0.037 A 
HETATM   19  C15 UNL     1      -4.447   6.590  25.430  1.00  0.00     0.017 A 
BRANCH  17  20
HETATM   20  O4  UNL     1      -5.095   9.646  23.512  1.00  0.00    -0.361 OA
ATOM     21  H4  UNL     1      -5.808  10.068  23.048  1.00  0.00     0.217 HD
ENDBRANCH  17  20
ENDBRANCH   8  14
BRANCH   1  22
HETATM   22  C2  UNL     1      -5.815   2.224  22.268  1.00  0.00     0.208 C 
BRANCH  22  23
HETATM   23  O1  UNL     1      -5.847   3.013  21.050  1.00  0.00    -0.391 OA
HETATM   24  C1  UNL     1      -5.494   4.291  21.456  1.00  0.00     0.201 C 
ENDBRANCH  22  23
ENDBRANCH   1  22
BRANCH   3  25
HETATM   25  O2  UNL     1     -10.722   1.911  22.974  1.00  0.00    -0.361 OA
ATOM     26  H2  UNL     1     -11.499   2.361  23.287  1.00  0.00     0.217 HD
ENDBRANCH   3  25
TORSDOF 5
ENDMDL
