MODEL 8
REMARK VINA RESULT: -6.650901109      2.124      4.336
REMARK  5 active torsions:
REMARK  status: ('A' for Active; 'I' for Inactive)
REMARK    1  A    between atoms: O1_2  and  C2_3 
REMARK    2  A    between atoms: C2_3  and  C3_4 
REMARK    3  A    between atoms: C5_6  and  O2_7 
REMARK    4  A    between atoms: C9_13  and  C10_14 
REMARK    5  A    between atoms: C13_17  and  O4_18 
ROOT
HETATM    1  C3  UNL     1      -5.283   7.608  23.478  1.00  0.00     0.003 A 
HETATM    2  C4  UNL     1      -5.888   8.352  22.573  1.00  0.00     0.048 A 
HETATM    3  C5  UNL     1      -6.595   7.710  21.508  1.00  0.00     0.067 A 
HETATM    4  C6  UNL     1      -6.610   6.345  21.475  1.00  0.00     0.051 A 
HETATM    5  C7  UNL     1      -6.001   5.570  22.435  1.00  0.00     0.004 A 
HETATM    6  C8  UNL     1      -5.331   6.201  23.452  1.00  0.00     0.094 A 
HETATM    7  O3  UNL     1      -4.720   5.458  24.441  1.00  0.00    -0.312 OA
HETATM    8  C9  UNL     1      -5.227   4.104  24.672  1.00  0.00     0.072 C 
HETATM    9  C16 UNL     1      -5.363   3.372  23.437  1.00  0.00     0.073 C 
HETATM   10  C17 UNL     1      -6.185   2.131  23.362  1.00  0.00     0.016 C 
HETATM   11  C18 UNL     1      -6.324   1.942  21.843  1.00  0.00     0.005 C 
HETATM   12  C19 UNL     1      -6.793   3.369  21.489  1.00  0.00     0.036 C 
HETATM   13  C20 UNL     1      -5.800   4.157  22.235  1.00  0.00    -0.056 C 
ENDROOT
BRANCH   8  14
HETATM   14  C10 UNL     1      -6.274   4.082  25.693  1.00  0.00    -0.005 A 
HETATM   15  C11 UNL     1      -7.585   4.444  25.493  1.00  0.00     0.017 A 
HETATM   16  C12 UNL     1      -8.565   4.446  26.517  1.00  0.00     0.037 A 
HETATM   17  C13 UNL     1      -8.202   4.085  27.783  1.00  0.00     0.065 A 
HETATM   18  C14 UNL     1      -6.903   3.727  28.018  1.00  0.00     0.037 A 
HETATM   19  C15 UNL     1      -5.960   3.717  26.991  1.00  0.00     0.017 A 
BRANCH  17  20
HETATM   20  O4  UNL     1      -9.121   4.100  28.807  1.00  0.00    -0.361 OA
ATOM     21  H4  UNL     1      -8.843   4.232  29.705  1.00  0.00     0.217 HD
ENDBRANCH  17  20
ENDBRANCH   8  14
BRANCH   1  22
HETATM   22  C2  UNL     1      -4.419   8.168  24.582  1.00  0.00     0.208 C 
BRANCH  22  23
HETATM   23  O1  UNL     1      -5.250   9.005  25.429  1.00  0.00    -0.391 OA
HETATM   24  C1  UNL     1      -5.436   8.255  26.580  1.00  0.00     0.201 C 
ENDBRANCH  22  23
ENDBRANCH   1  22
BRANCH   3  25
HETATM   25  O2  UNL     1      -7.259   8.431  20.515  1.00  0.00    -0.361 OA
ATOM     26  H2  UNL     1      -7.113   8.272  19.590  1.00  0.00     0.217 HD
ENDBRANCH   3  25
TORSDOF 5
ENDMDL
