MODEL 4
REMARK VINA RESULT: -4.970256192      8.305      9.973
REMARK  4 active torsions:
REMARK  status: ('A' for Active; 'I' for Inactive)
REMARK    1  A    between atoms: N1_1  and  C1_5 
REMARK    2  A    between atoms: C1_5  and  C2_6 
REMARK    3  A    between atoms: C2_6  and  C3_7 
REMARK    4  A    between atoms: C8_14  and  O1_15 
ROOT
HETATM    1  C3  UNL     1      25.756  -9.060 -10.810  1.00  0.00    -0.029 A 
HETATM    2  C4  UNL     1      25.665  -8.042 -11.753  1.00  0.00     0.096 A 
HETATM    3  N2  UNL     1      26.733  -7.233 -11.640  1.00  0.00    -0.365 N 
ATOM      4  H2  UNL     1      26.913  -6.407 -12.211  1.00  0.00     0.165 HD
HETATM    5  C5  UNL     1      27.528  -7.688 -10.647  1.00  0.00     0.043 A 
HETATM    6  C6  UNL     1      28.729  -7.251 -10.105  1.00  0.00     0.033 A 
HETATM    7  C7  UNL     1      29.338  -7.919  -9.064  1.00  0.00     0.039 A 
HETATM    8  C8  UNL     1      28.741  -9.050  -8.541  1.00  0.00     0.066 A 
HETATM    9  C9  UNL     1      27.552  -9.491  -9.071  1.00  0.00     0.050 A 
HETATM   10  C10 UNL     1      26.942  -8.816 -10.121  1.00  0.00     0.001 A 
ENDROOT
BRANCH   1  11
HETATM   11  C2  UNL     1      24.840 -10.197 -10.542  1.00  0.00     0.068 C 
BRANCH  11  12
HETATM   12  C1  UNL     1      24.851 -11.123 -11.768  1.00  0.00     0.234 C 
BRANCH  12  13
HETATM   13  N1  UNL     1      24.010 -12.250 -11.498  1.00  0.00    -0.079 N 
ATOM     14  H13 UNL     1      24.524 -13.031 -11.089  1.00  0.00     0.274 HD
ATOM     15  H12 UNL     1      23.369 -12.082 -10.724  1.00  0.00     0.274 HD
ATOM     16  H11 UNL     1      23.525 -12.509 -12.357  1.00  0.00     0.274 HD
ENDBRANCH  12  13
ENDBRANCH  11  12
ENDBRANCH   1  11
BRANCH   8  17
HETATM   17  O1  UNL     1      29.294  -9.786  -7.483  1.00  0.00    -0.361 OA
ATOM     18  H1  UNL     1      28.765 -10.221  -6.824  1.00  0.00     0.217 HD
ENDBRANCH   8  17
TORSDOF 4
ENDMDL
