MODEL 5
REMARK VINA RESULT: -4.913082300      3.013      4.993
REMARK  4 active torsions:
REMARK  status: ('A' for Active; 'I' for Inactive)
REMARK    1  A    between atoms: N1_1  and  C1_5 
REMARK    2  A    between atoms: C1_5  and  C2_6 
REMARK    3  A    between atoms: C2_6  and  C3_7 
REMARK    4  A    between atoms: C8_14  and  O1_15 
ROOT
HETATM    1  C3  UNL     1      18.036 -10.325  -4.549  1.00  0.00    -0.029 A 
HETATM    2  C4  UNL     1      17.176 -11.129  -3.808  1.00  0.00     0.096 A 
HETATM    3  N2  UNL     1      17.665 -12.381  -3.766  1.00  0.00    -0.365 N 
ATOM      4  H2  UNL     1      17.230 -13.170  -3.288  1.00  0.00     0.165 HD
HETATM    5  C5  UNL     1      18.824 -12.426  -4.458  1.00  0.00     0.043 A 
HETATM    6  C6  UNL     1      19.732 -13.438  -4.741  1.00  0.00     0.033 A 
HETATM    7  C7  UNL     1      20.861 -13.205  -5.496  1.00  0.00     0.039 A 
HETATM    8  C8  UNL     1      21.100 -11.936  -5.988  1.00  0.00     0.066 A 
HETATM    9  C9  UNL     1      20.207 -10.927  -5.712  1.00  0.00     0.050 A 
HETATM   10  C10 UNL     1      19.070 -11.166  -4.950  1.00  0.00     0.001 A 
ENDROOT
BRANCH   1  11
HETATM   11  C2  UNL     1      17.945  -8.879  -4.874  1.00  0.00     0.068 C 
BRANCH  11  12
HETATM   12  C1  UNL     1      16.593  -8.623  -5.558  1.00  0.00     0.234 C 
BRANCH  12  13
HETATM   13  N1  UNL     1      16.706  -7.450  -6.371  1.00  0.00    -0.079 N 
ATOM     14  H13 UNL     1      15.826  -6.941  -6.446  1.00  0.00     0.274 HD
ATOM     15  H12 UNL     1      17.255  -6.716  -5.923  1.00  0.00     0.274 HD
ATOM     16  H11 UNL     1      17.082  -7.718  -7.280  1.00  0.00     0.274 HD
ENDBRANCH  12  13
ENDBRANCH  11  12
ENDBRANCH   1  11
BRANCH   8  17
HETATM   17  O1  UNL     1      22.223 -11.616  -6.764  1.00  0.00    -0.361 OA
ATOM     18  H1  UNL     1      22.226 -10.915  -7.405  1.00  0.00     0.217 HD
ENDBRANCH   8  17
TORSDOF 4
ENDMDL
