MODEL 6
REMARK VINA RESULT: -4.768266047      8.364      9.433
REMARK  4 active torsions:
REMARK  status: ('A' for Active; 'I' for Inactive)
REMARK    1  A    between atoms: N1_1  and  C1_5 
REMARK    2  A    between atoms: C1_5  and  C2_6 
REMARK    3  A    between atoms: C2_6  and  C3_7 
REMARK    4  A    between atoms: C8_14  and  O1_15 
ROOT
HETATM    1  C3  UNL     1      24.988 -10.948 -11.119  1.00  0.00    -0.029 A 
HETATM    2  C4  UNL     1      25.250 -11.923 -10.163  1.00  0.00     0.096 A 
HETATM    3  N2  UNL     1      26.185 -11.468  -9.309  1.00  0.00    -0.365 N 
ATOM      4  H2  UNL     1      26.560 -11.984  -8.513  1.00  0.00     0.165 HD
HETATM    5  C5  UNL     1      26.546 -10.219  -9.675  1.00  0.00     0.043 A 
HETATM    6  C6  UNL     1      27.452  -9.297  -9.168  1.00  0.00     0.033 A 
HETATM    7  C7  UNL     1      27.632  -8.063  -9.755  1.00  0.00     0.039 A 
HETATM    8  C8  UNL     1      26.898  -7.731 -10.877  1.00  0.00     0.066 A 
HETATM    9  C9  UNL     1      25.998  -8.637 -11.386  1.00  0.00     0.050 A 
HETATM   10  C10 UNL     1      25.819  -9.880 -10.791  1.00  0.00     0.001 A 
ENDROOT
BRANCH   1  11
HETATM   11  C2  UNL     1      24.038 -10.963 -12.261  1.00  0.00     0.068 C 
BRANCH  11  12
HETATM   12  C1  UNL     1      23.816 -12.424 -12.683  1.00  0.00     0.234 C 
BRANCH  12  13
HETATM   13  N1  UNL     1      22.500 -12.821 -12.282  1.00  0.00    -0.079 N 
ATOM     14  H13 UNL     1      22.408 -13.833 -12.192  1.00  0.00     0.274 HD
ATOM     15  H12 UNL     1      22.295 -12.575 -11.314  1.00  0.00     0.274 HD
ATOM     16  H11 UNL     1      21.826 -12.424 -12.937  1.00  0.00     0.274 HD
ENDBRANCH  12  13
ENDBRANCH  11  12
ENDBRANCH   1  11
BRANCH   8  17
HETATM   17  O1  UNL     1      27.022  -6.498 -11.534  1.00  0.00    -0.361 OA
ATOM     18  H1  UNL     1      26.730  -6.356 -12.427  1.00  0.00     0.217 HD
ENDBRANCH   8  17
TORSDOF 4
ENDMDL
