MODEL 1
REMARK VINA RESULT: -7.799042743      0.000      0.000
REMARK  4 active torsions:
REMARK  status: ('A' for Active; 'I' for Inactive)
REMARK    1  A    between atoms: N1_1  and  C1_5 
REMARK    2  A    between atoms: C1_5  and  C2_6 
REMARK    3  A    between atoms: C2_6  and  C3_7 
REMARK    4  A    between atoms: C8_14  and  O1_15 
ROOT
HETATM    1  C3  UNL     1      20.664 -11.831  -5.878  1.00  0.00    -0.029 A 
HETATM    2  C4  UNL     1      21.038 -10.508  -6.083  1.00  0.00     0.096 A 
HETATM    3  N2  UNL     1      20.100  -9.695  -5.564  1.00  0.00    -0.365 N 
ATOM      4  H2  UNL     1      20.126  -8.676  -5.579  1.00  0.00     0.165 HD
HETATM    5  C5  UNL     1      19.117 -10.447  -5.022  1.00  0.00     0.043 A 
HETATM    6  C6  UNL     1      17.929 -10.144  -4.371  1.00  0.00     0.033 A 
HETATM    7  C7  UNL     1      17.085 -11.132  -3.910  1.00  0.00     0.039 A 
HETATM    8  C8  UNL     1      17.424 -12.458  -4.101  1.00  0.00     0.066 A 
HETATM    9  C9  UNL     1      18.598 -12.768  -4.744  1.00  0.00     0.050 A 
HETATM   10  C10 UNL     1      19.447 -11.769  -5.206  1.00  0.00     0.001 A 
ENDROOT
BRANCH   1  11
HETATM   11  C2  UNL     1      21.362 -13.088  -6.254  1.00  0.00     0.068 C 
BRANCH  11  12
HETATM   12  C1  UNL     1      22.775 -12.727  -6.736  1.00  0.00     0.234 C 
BRANCH  12  13
HETATM   13  N1  UNL     1      23.072 -13.502  -7.904  1.00  0.00    -0.079 N 
ATOM     14  H13 UNL     1      24.075 -13.602  -8.061  1.00  0.00     0.274 HD
ATOM     15  H12 UNL     1      22.849 -14.489  -7.784  1.00  0.00     0.274 HD
ATOM     16  H11 UNL     1      22.591 -13.087  -8.701  1.00  0.00     0.274 HD
ENDBRANCH  12  13
ENDBRANCH  11  12
ENDBRANCH   1  11
BRANCH   8  17
HETATM   17  O1  UNL     1      16.621 -13.522  -3.665  1.00  0.00    -0.361 OA
ATOM     18  H1  UNL     1      16.946 -14.223  -3.113  1.00  0.00     0.217 HD
ENDBRANCH   8  17
TORSDOF 4
ENDMDL
