MODEL 3
REMARK VINA RESULT: -8.813393417      1.545      2.040
REMARK  6 active torsions:
REMARK  status: ('A' for Active; 'I' for Inactive)
REMARK    1  A    between atoms: C4_4  and  C5_5 
REMARK    2  A    between atoms: C5_5  and  N1_6 
REMARK    3  A    between atoms: N1_6  and  S1_8 
REMARK    4  A    between atoms: S1_8  and  C6_11 
REMARK    5  A    between atoms: C10_15  and  N2_16 
REMARK    6  A    between atoms: N2_16  and  C11_18 
ROOT
HETATM    1  S1  UNL     1      18.848  22.150  15.965  1.00  0.00     0.259 S 
HETATM    2  O1  UNL     1      20.101  21.420  15.625  1.00  0.00    -0.201 OA
HETATM    3  O2  UNL     1      18.009  21.248  16.825  1.00  0.00    -0.201 OA
ENDROOT
BRANCH   1   4
HETATM    4  N1  UNL     1      17.998  22.535  14.514  1.00  0.00    -0.310 N 
ATOM      5  H1  UNL     1      17.330  23.302  14.437  1.00  0.00     0.172 HD
BRANCH   4   6
HETATM    6  C5  UNL     1      18.333  21.665  13.432  1.00  0.00     0.189 C 
BRANCH   6   7
HETATM    7  C4  UNL     1      18.761  22.495  12.278  1.00  0.00     0.032 A 
HETATM    8  C3  UNL     1      20.089  22.670  11.948  1.00  0.00     0.051 A 
HETATM    9  C2  UNL     1      20.423  23.454  10.863  1.00  0.00     0.009 A 
HETATM   10  C1  UNL     1      21.839  23.663  10.480  1.00  0.00     0.068 C 
HETATM   11  N5  UNL     1      19.446  24.039  10.142  1.00  0.00    -0.335 N 
HETATM   12  C17 UNL     1      18.156  23.875  10.455  1.00  0.00     0.193 A 
ATOM     13  H5  UNL     1      19.696  24.618   9.340  1.00  0.00     0.168 HD
HETATM   14  N3  UNL     1      17.847  23.120  11.499  1.00  0.00    -0.332 N 
HETATM   15  N4  UNL     1      17.109  24.491   9.696  1.00  0.00    -0.063 NA
ATOM     16  H3  UNL     1      16.860  23.001  11.729  1.00  0.00     0.168 HD
ENDBRANCH   6   7
ENDBRANCH   4   6
ENDBRANCH   1   4
BRANCH   1  17
HETATM   17  C6  UNL     1      19.220  23.576  16.891  1.00  0.00     0.081 A 
HETATM   18  C7  UNL     1      20.205  23.505  17.867  1.00  0.00     0.025 A 
HETATM   19  C8  UNL     1      20.517  24.613  18.609  1.00  0.00     0.004 A 
HETATM   20  C9  UNL     1      19.860  25.797  18.394  1.00  0.00     0.029 A 
HETATM   21  C10 UNL     1      18.872  25.907  17.431  1.00  0.00     0.033 A 
HETATM   22  C16 UNL     1      18.586  24.780  16.708  1.00  0.00     0.054 A 
BRANCH  21  23
HETATM   23  N2  UNL     1      18.218  27.153  17.243  1.00  0.00    -0.365 N 
ATOM     24  H2  UNL     1      18.104  27.791  18.031  1.00  0.00     0.165 HD
BRANCH  23  25
HETATM   25  C11 UNL     1      17.721  27.514  15.962  1.00  0.00     0.101 C 
HETATM   26  C12 UNL     1      16.418  27.676  15.814  1.00  0.00     0.034 C 
HETATM   27  C13 UNL     1      15.405  27.514  16.886  1.00  0.00     0.073 C 
HETATM   28  C15 UNL     1      15.678  28.042  14.613  1.00  0.00     0.290 C 
HETATM   29  C14 UNL     1      14.273  28.397  16.366  1.00  0.00     0.184 C 
HETATM   30  O3  UNL     1      14.317  28.106  14.969  1.00  0.00    -0.317 OA
HETATM   31  O4  UNL     1      16.199  28.250  13.492  1.00  0.00    -0.260 OA
ENDBRANCH  23  25
ENDBRANCH  21  23
ENDBRANCH   1  17
TORSDOF 6
ENDMDL
