MODEL 2
REMARK VINA RESULT: -8.816639526      1.596      2.001
REMARK  6 active torsions:
REMARK  status: ('A' for Active; 'I' for Inactive)
REMARK    1  A    between atoms: C4_4  and  C5_5 
REMARK    2  A    between atoms: C5_5  and  N1_6 
REMARK    3  A    between atoms: N1_6  and  S1_8 
REMARK    4  A    between atoms: S1_8  and  C6_11 
REMARK    5  A    between atoms: C10_15  and  N2_16 
REMARK    6  A    between atoms: N2_16  and  C11_18 
ROOT
HETATM    1  S1  UNL     1      19.349  22.601  14.508  1.00  0.00     0.259 S 
HETATM    2  O1  UNL     1      18.874  21.234  14.859  1.00  0.00    -0.201 OA
HETATM    3  O2  UNL     1      18.237  23.302  13.780  1.00  0.00    -0.201 OA
ENDROOT
BRANCH   1   4
HETATM    4  N1  UNL     1      20.735  22.481  13.487  1.00  0.00    -0.310 N 
ATOM      5  H1  UNL     1      21.096  21.598  13.126  1.00  0.00     0.172 HD
BRANCH   4   6
HETATM    6  C5  UNL     1      21.320  23.752  13.203  1.00  0.00     0.189 C 
BRANCH   6   7
HETATM    7  C4  UNL     1      21.386  23.918  11.729  1.00  0.00     0.032 A 
HETATM    8  C3  UNL     1      20.570  24.801  11.050  1.00  0.00     0.051 A 
HETATM    9  C2  UNL     1      20.680  24.909   9.679  1.00  0.00     0.009 A 
HETATM   10  C1  UNL     1      19.820  25.847   8.918  1.00  0.00     0.068 C 
HETATM   11  N5  UNL     1      21.581  24.153   9.023  1.00  0.00    -0.335 N 
HETATM   12  C17 UNL     1      22.375  23.295   9.673  1.00  0.00     0.193 A 
ATOM     13  H5  UNL     1      21.659  24.236   8.009  1.00  0.00     0.168 HD
HETATM   14  N3  UNL     1      22.262  23.198  10.990  1.00  0.00    -0.332 N 
HETATM   15  N4  UNL     1      23.337  22.484   8.987  1.00  0.00    -0.063 NA
ATOM     16  H3  UNL     1      22.873  22.541  11.476  1.00  0.00     0.168 HD
ENDBRANCH   6   7
ENDBRANCH   4   6
ENDBRANCH   1   4
BRANCH   1  17
HETATM   17  C6  UNL     1      19.692  23.504  15.955  1.00  0.00     0.081 A 
HETATM   18  C7  UNL     1      20.663  23.031  16.828  1.00  0.00     0.025 A 
HETATM   19  C8  UNL     1      20.953  23.724  17.973  1.00  0.00     0.004 A 
HETATM   20  C9  UNL     1      20.288  24.887  18.265  1.00  0.00     0.029 A 
HETATM   21  C10 UNL     1      19.314  25.391  17.421  1.00  0.00     0.033 A 
HETATM   22  C16 UNL     1      19.050  24.673  16.285  1.00  0.00     0.054 A 
BRANCH  21  23
HETATM   23  N2  UNL     1      18.651  26.598  17.763  1.00  0.00    -0.365 N 
ATOM     24  H2  UNL     1      19.185  27.383  18.138  1.00  0.00     0.165 HD
BRANCH  23  25
HETATM   25  C11 UNL     1      17.247  26.719  17.585  1.00  0.00     0.101 C 
HETATM   26  C12 UNL     1      16.800  27.406  16.548  1.00  0.00     0.034 C 
HETATM   27  C13 UNL     1      17.648  28.075  15.531  1.00  0.00     0.073 C 
HETATM   28  C15 UNL     1      15.421  27.667  16.157  1.00  0.00     0.290 C 
HETATM   29  C14 UNL     1      16.702  28.120  14.334  1.00  0.00     0.184 C 
HETATM   30  O3  UNL     1      15.464  28.429  14.973  1.00  0.00    -0.317 OA
HETATM   31  O4  UNL     1      14.414  27.269  16.790  1.00  0.00    -0.260 OA
ENDBRANCH  23  25
ENDBRANCH  21  23
ENDBRANCH   1  17
TORSDOF 6
ENDMDL
