MODEL 10
REMARK VINA RESULT: -8.502051633      2.923      6.182
REMARK  6 active torsions:
REMARK  status: ('A' for Active; 'I' for Inactive)
REMARK    1  A    between atoms: C4_4  and  C5_5 
REMARK    2  A    between atoms: C5_5  and  N1_6 
REMARK    3  A    between atoms: N1_6  and  S1_8 
REMARK    4  A    between atoms: S1_8  and  C6_11 
REMARK    5  A    between atoms: C10_15  and  N2_16 
REMARK    6  A    between atoms: N2_16  and  C11_18 
ROOT
HETATM    1  S1  UNL     1      20.674  24.085  16.903  1.00  0.00     0.259 S 
HETATM    2  O1  UNL     1      20.929  23.458  18.229  1.00  0.00    -0.201 OA
HETATM    3  O2  UNL     1      21.990  24.207  16.189  1.00  0.00    -0.201 OA
ENDROOT
BRANCH   1   4
HETATM    4  N1  UNL     1      19.982  25.648  17.132  1.00  0.00    -0.310 N 
ATOM      5  H1  UNL     1      20.476  26.519  16.937  1.00  0.00     0.172 HD
BRANCH   4   6
HETATM    6  C5  UNL     1      18.642  25.590  17.624  1.00  0.00     0.189 C 
BRANCH   6   7
HETATM    7  C4  UNL     1      17.828  26.587  16.883  1.00  0.00     0.032 A 
HETATM    8  C3  UNL     1      18.383  27.464  15.975  1.00  0.00     0.051 A 
HETATM    9  C2  UNL     1      17.573  28.367  15.318  1.00  0.00     0.009 A 
HETATM   10  C1  UNL     1      18.136  29.323  14.336  1.00  0.00     0.068 C 
HETATM   11  N5  UNL     1      16.250  28.379  15.574  1.00  0.00    -0.335 N 
HETATM   12  C17 UNL     1      15.703  27.533  16.453  1.00  0.00     0.193 A 
ATOM     13  H5  UNL     1      15.653  29.048  15.087  1.00  0.00     0.168 HD
HETATM   14  N3  UNL     1      16.490  26.669  17.079  1.00  0.00    -0.332 N 
HETATM   15  N4  UNL     1      14.298  27.535  16.734  1.00  0.00    -0.063 NA
ATOM     16  H3  UNL     1      16.063  26.028  17.747  1.00  0.00     0.168 HD
ENDBRANCH   6   7
ENDBRANCH   4   6
ENDBRANCH   1   4
BRANCH   1  17
HETATM   17  C6  UNL     1      19.642  23.059  15.946  1.00  0.00     0.081 A 
HETATM   18  C7  UNL     1      18.631  22.347  16.577  1.00  0.00     0.025 A 
HETATM   19  C8  UNL     1      17.805  21.534  15.848  1.00  0.00     0.004 A 
HETATM   20  C9  UNL     1      17.971  21.417  14.492  1.00  0.00     0.029 A 
HETATM   21  C10 UNL     1      18.968  22.110  13.827  1.00  0.00     0.033 A 
HETATM   22  C16 UNL     1      19.774  22.914  14.587  1.00  0.00     0.054 A 
BRANCH  21  23
HETATM   23  N2  UNL     1      19.104  21.958  12.422  1.00  0.00    -0.365 N 
ATOM     24  H2  UNL     1      19.799  21.314  12.045  1.00  0.00     0.165 HD
BRANCH  23  25
HETATM   25  C11 UNL     1      18.275  22.700  11.539  1.00  0.00     0.101 C 
HETATM   26  C12 UNL     1      18.788  23.752  10.925  1.00  0.00     0.034 C 
HETATM   27  C13 UNL     1      20.182  24.238  11.077  1.00  0.00     0.073 C 
HETATM   28  C15 UNL     1      18.146  24.660   9.985  1.00  0.00     0.290 C 
HETATM   29  C14 UNL     1      20.386  24.983   9.760  1.00  0.00     0.184 C 
HETATM   30  O3  UNL     1      19.113  25.608   9.598  1.00  0.00    -0.317 OA
HETATM   31  O4  UNL     1      16.950  24.575   9.618  1.00  0.00    -0.260 OA
ENDBRANCH  23  25
ENDBRANCH  21  23
ENDBRANCH   1  17
TORSDOF 6
ENDMDL
