MODEL 1
REMARK VINA RESULT: -8.923941313      0.000      0.000
REMARK  6 active torsions:
REMARK  status: ('A' for Active; 'I' for Inactive)
REMARK    1  A    between atoms: C4_4  and  C5_5 
REMARK    2  A    between atoms: C5_5  and  N1_6 
REMARK    3  A    between atoms: N1_6  and  S1_8 
REMARK    4  A    between atoms: S1_8  and  C6_11 
REMARK    5  A    between atoms: C10_15  and  N2_16 
REMARK    6  A    between atoms: N2_16  and  C11_18 
ROOT
HETATM    1  S1  UNL     1      19.662  22.830  14.463  1.00  0.00     0.259 S 
HETATM    2  O1  UNL     1      19.917  21.385  14.715  1.00  0.00    -0.201 OA
HETATM    3  O2  UNL     1      18.235  22.976  14.015  1.00  0.00    -0.201 OA
ENDROOT
BRANCH   1   4
HETATM    4  N1  UNL     1      20.726  23.391  13.227  1.00  0.00    -0.310 N 
ATOM      5  H1  UNL     1      21.400  24.145  13.361  1.00  0.00     0.172 HD
BRANCH   4   6
HETATM    6  C5  UNL     1      20.560  22.686  11.996  1.00  0.00     0.189 C 
BRANCH   6   7
HETATM    7  C4  UNL     1      19.826  23.562  11.049  1.00  0.00     0.032 A 
HETATM    8  C3  UNL     1      20.422  24.641  10.429  1.00  0.00     0.051 A 
HETATM    9  C2  UNL     1      19.685  25.418   9.559  1.00  0.00     0.009 A 
HETATM   10  C1  UNL     1      20.294  26.584   8.876  1.00  0.00     0.068 C 
HETATM   11  N5  UNL     1      18.394  25.111   9.327  1.00  0.00    -0.335 N 
HETATM   12  C17 UNL     1      17.808  24.067   9.923  1.00  0.00     0.193 A 
ATOM     13  H5  UNL     1      17.852  25.687   8.682  1.00  0.00     0.168 HD
HETATM   14  N3  UNL     1      18.525  23.327  10.758  1.00  0.00    -0.332 N 
HETATM   15  N4  UNL     1      16.436  23.731   9.684  1.00  0.00    -0.063 NA
ATOM     16  H3  UNL     1      18.068  22.533  11.207  1.00  0.00     0.168 HD
ENDBRANCH   6   7
ENDBRANCH   4   6
ENDBRANCH   1   4
BRANCH   1  17
HETATM   17  C6  UNL     1      19.854  23.736  15.937  1.00  0.00     0.081 A 
HETATM   18  C7  UNL     1      20.735  23.269  16.903  1.00  0.00     0.025 A 
HETATM   19  C8  UNL     1      20.905  23.963  18.071  1.00  0.00     0.004 A 
HETATM   20  C9  UNL     1      20.207  25.122  18.295  1.00  0.00     0.029 A 
HETATM   21  C10 UNL     1      19.319  25.619  17.357  1.00  0.00     0.033 A 
HETATM   22  C16 UNL     1      19.174  24.900  16.201  1.00  0.00     0.054 A 
BRANCH  21  23
HETATM   23  N2  UNL     1      18.617  26.822  17.630  1.00  0.00    -0.365 N 
ATOM     24  H2  UNL     1      19.130  27.655  17.922  1.00  0.00     0.165 HD
BRANCH  23  25
HETATM   25  C11 UNL     1      17.204  26.872  17.500  1.00  0.00     0.101 C 
HETATM   26  C12 UNL     1      16.687  27.514  16.466  1.00  0.00     0.034 C 
HETATM   27  C13 UNL     1      17.467  28.200  15.406  1.00  0.00     0.073 C 
HETATM   28  C15 UNL     1      15.285  27.700  16.119  1.00  0.00     0.290 C 
HETATM   29  C14 UNL     1      16.479  28.173  14.242  1.00  0.00     0.184 C 
HETATM   30  O3  UNL     1      15.250  28.436  14.918  1.00  0.00    -0.317 OA
HETATM   31  O4  UNL     1      14.321  27.268  16.795  1.00  0.00    -0.260 OA
ENDBRANCH  23  25
ENDBRANCH  21  23
ENDBRANCH   1  17
TORSDOF 6
ENDMDL
