MODEL 2
REMARK VINA RESULT: -10.409974279      1.171      1.294
REMARK  4 active torsions:
REMARK  status: ('A' for Active; 'I' for Inactive)
REMARK    1  A    between atoms: C4_4  and  C5_5 
REMARK    2  A    between atoms: C6_6  and  C7_7 
REMARK    3  A    between atoms: C12_12  and  C13_13 
REMARK    4  A    between atoms: N1_14  and  N2_16 
ROOT
HETATM    1  C7  UNL     1       4.710  31.962  24.606  1.00  0.00     0.029 A 
HETATM    2  C8  UNL     1       5.059  30.754  23.999  1.00  0.00     0.021 A 
HETATM    3  C9  UNL     1       6.383  30.395  23.829  1.00  0.00     0.002 A 
HETATM    4  C10 UNL     1       7.365  31.252  24.271  1.00  0.00     0.001 A 
HETATM    5  C11 UNL     1       7.005  32.438  24.868  1.00  0.00     0.014 A 
HETATM    6  C12 UNL     1       5.692  32.809  25.043  1.00  0.00    -0.001 A 
ENDROOT
BRANCH   1   7
HETATM    7  C6  UNL     1       3.343  32.360  24.795  1.00  0.00    -0.059 C 
HETATM    8  C5  UNL     1       2.192  32.679  24.962  1.00  0.00    -0.043 C 
BRANCH   8   9
HETATM    9  C4  UNL     1       0.803  33.038  25.158  1.00  0.00     0.091 A 
HETATM   10  C3  UNL     1       0.135  32.738  26.325  1.00  0.00     0.063 A 
HETATM   11  C2  UNL     1      -1.198  33.077  26.527  1.00  0.00     0.010 A 
HETATM   12  C1  UNL     1      -1.870  32.730  27.802  1.00  0.00     0.068 C 
HETATM   13  N5  UNL     1      -1.811  33.717  25.526  1.00  0.00    -0.334 N 
HETATM   14  C17 UNL     1      -1.153  34.008  24.388  1.00  0.00     0.193 A 
ATOM     15  H5  UNL     1      -2.790  33.986  25.625  1.00  0.00     0.168 HD
HETATM   16  N3  UNL     1       0.146  33.673  24.199  1.00  0.00    -0.323 N 
HETATM   17  N4  UNL     1      -1.906  34.695  23.378  1.00  0.00    -0.063 NA
ATOM     18  H3  UNL     1       0.616  33.907  23.324  1.00  0.00     0.169 HD
ENDBRANCH   8   9
ENDBRANCH   1   7
BRANCH   6  19
HETATM   19  C13 UNL     1       5.312  34.075  25.679  1.00  0.00     0.120 C 
HETATM   20  N1  UNL     1       5.193  35.167  25.009  1.00  0.00    -0.304 N 
ATOM     21  H1  UNL     1       5.375  35.126  24.006  1.00  0.00     0.186 HD
BRANCH  20  22
HETATM   22  N2  UNL     1       4.840  36.390  25.543  1.00  0.00    -0.235 N 
HETATM   23  C14 UNL     1       5.738  37.481  25.827  1.00  0.00     0.181 A 
HETATM   24  C15 UNL     1       4.883  38.592  26.399  1.00  0.00     0.202 A 
HETATM   25  O1  UNL     1       3.563  38.096  26.410  1.00  0.00    -0.301 OA
HETATM   26  C16 UNL     1       3.540  36.799  25.910  1.00  0.00     0.381 A 
HETATM   27  O2  UNL     1       2.491  36.109  25.808  1.00  0.00    -0.236 OA
ENDBRANCH  20  22
ENDBRANCH   6  19
TORSDOF 4
ENDMDL
