MODEL 3
REMARK VINA RESULT: -10.394280833      0.823      1.711
REMARK  4 active torsions:
REMARK  status: ('A' for Active; 'I' for Inactive)
REMARK    1  A    between atoms: C4_4  and  C5_5 
REMARK    2  A    between atoms: C6_6  and  C7_7 
REMARK    3  A    between atoms: C12_12  and  C13_13 
REMARK    4  A    between atoms: N1_14  and  N2_16 
ROOT
HETATM    1  C7  UNL     1       4.552  32.414  24.825  1.00  0.00     0.029 A 
HETATM    2  C8  UNL     1       5.041  31.183  24.385  1.00  0.00     0.021 A 
HETATM    3  C9  UNL     1       6.399  30.937  24.308  1.00  0.00     0.002 A 
HETATM    4  C10 UNL     1       7.275  31.933  24.675  1.00  0.00     0.001 A 
HETATM    5  C11 UNL     1       6.778  33.142  25.108  1.00  0.00     0.014 A 
HETATM    6  C12 UNL     1       5.430  33.400  25.189  1.00  0.00    -0.001 A 
ENDROOT
BRANCH   1   7
HETATM    7  C6  UNL     1       3.147  32.696  24.915  1.00  0.00    -0.059 C 
HETATM    8  C5  UNL     1       1.970  32.951  24.991  1.00  0.00    -0.043 C 
BRANCH   8   9
HETATM    9  C4  UNL     1       0.563  33.276  25.095  1.00  0.00     0.091 A 
HETATM   10  C3  UNL     1      -0.096  33.968  24.102  1.00  0.00     0.063 A 
HETATM   11  C2  UNL     1      -1.446  34.286  24.189  1.00  0.00     0.010 A 
HETATM   12  C1  UNL     1      -2.107  35.034  23.092  1.00  0.00     0.068 C 
HETATM   13  N5  UNL     1      -2.086  33.886  25.292  1.00  0.00    -0.334 N 
HETATM   14  C17 UNL     1      -1.437  33.209  26.259  1.00  0.00     0.193 A 
ATOM     15  H5  UNL     1      -3.078  34.096  25.403  1.00  0.00     0.168 HD
HETATM   16  N3  UNL     1      -0.120  32.904  26.166  1.00  0.00    -0.323 N 
HETATM   17  N4  UNL     1      -2.219  32.827  27.400  1.00  0.00    -0.063 NA
ATOM     18  H3  UNL     1       0.342  32.390  26.917  1.00  0.00     0.169 HD
ENDBRANCH   8   9
ENDBRANCH   1   7
BRANCH   6  19
HETATM   19  C13 UNL     1       4.904  34.689  25.650  1.00  0.00     0.120 C 
HETATM   20  N1  UNL     1       5.676  35.638  26.049  1.00  0.00    -0.304 N 
ATOM     21  H1  UNL     1       6.681  35.464  26.034  1.00  0.00     0.186 HD
BRANCH  20  22
HETATM   22  N2  UNL     1       5.249  36.873  26.495  1.00  0.00    -0.235 N 
HETATM   23  C14 UNL     1       5.218  38.088  25.720  1.00  0.00     0.181 A 
HETATM   24  C15 UNL     1       4.678  39.161  26.641  1.00  0.00     0.202 A 
HETATM   25  O1  UNL     1       4.425  38.521  27.872  1.00  0.00    -0.301 OA
HETATM   26  C16 UNL     1       4.765  37.175  27.785  1.00  0.00     0.381 A 
HETATM   27  O2  UNL     1       4.647  36.362  28.740  1.00  0.00    -0.236 OA
ENDBRANCH  20  22
ENDBRANCH   6  19
TORSDOF 4
ENDMDL
