MODEL 1
REMARK VINA RESULT: -10.698094350      0.000      0.000
REMARK  4 active torsions:
REMARK  status: ('A' for Active; 'I' for Inactive)
REMARK    1  A    between atoms: C4_4  and  C5_5 
REMARK    2  A    between atoms: C6_6  and  C7_7 
REMARK    3  A    between atoms: C12_12  and  C13_13 
REMARK    4  A    between atoms: N1_14  and  N2_16 
ROOT
HETATM    1  C7  UNL     1       4.649  32.528  24.853  1.00  0.00     0.029 A 
HETATM    2  C8  UNL     1       5.174  31.299  24.452  1.00  0.00     0.021 A 
HETATM    3  C9  UNL     1       6.538  31.088  24.388  1.00  0.00     0.002 A 
HETATM    4  C10 UNL     1       7.384  32.118  24.731  1.00  0.00     0.001 A 
HETATM    5  C11 UNL     1       6.852  33.325  25.126  1.00  0.00     0.014 A 
HETATM    6  C12 UNL     1       5.497  33.547  25.193  1.00  0.00    -0.001 A 
ENDROOT
BRANCH   1   7
HETATM    7  C6  UNL     1       3.236  32.774  24.929  1.00  0.00    -0.059 C 
HETATM    8  C5  UNL     1       2.052  32.991  25.006  1.00  0.00    -0.043 C 
BRANCH   8   9
HETATM    9  C4  UNL     1       0.632  33.254  25.122  1.00  0.00     0.091 A 
HETATM   10  C3  UNL     1      -0.081  32.893  26.244  1.00  0.00     0.063 A 
HETATM   11  C2  UNL     1      -1.443  33.140  26.369  1.00  0.00     0.010 A 
HETATM   12  C1  UNL     1      -2.164  32.730  27.598  1.00  0.00     0.068 C 
HETATM   13  N5  UNL     1      -2.039  33.750  25.339  1.00  0.00    -0.334 N 
HETATM   14  C17 UNL     1      -1.336  34.101  24.246  1.00  0.00     0.193 A 
ATOM     15  H5  UNL     1      -3.038  33.952  25.383  1.00  0.00     0.168 HD
HETATM   16  N3  UNL     1      -0.008  33.856  24.132  1.00  0.00    -0.323 N 
HETATM   17  N4  UNL     1      -2.072  34.751  23.200  1.00  0.00    -0.063 NA
ATOM     18  H3  UNL     1       0.496  34.134  23.289  1.00  0.00     0.169 HD
ENDBRANCH   8   9
ENDBRANCH   1   7
BRANCH   6  19
HETATM   19  C13 UNL     1       4.933  34.835  25.614  1.00  0.00     0.120 C 
HETATM   20  N1  UNL     1       5.563  35.629  26.406  1.00  0.00    -0.304 N 
ATOM     21  H1  UNL     1       6.481  35.332  26.738  1.00  0.00     0.186 HD
BRANCH  20  22
HETATM   22  N2  UNL     1       5.092  36.852  26.841  1.00  0.00    -0.235 N 
HETATM   23  C14 UNL     1       4.832  38.003  26.013  1.00  0.00     0.181 A 
HETATM   24  C15 UNL     1       4.336  39.088  26.944  1.00  0.00     0.202 A 
HETATM   25  O1  UNL     1       4.330  38.517  28.234  1.00  0.00    -0.301 OA
HETATM   26  C16 UNL     1       4.778  37.203  28.172  1.00  0.00     0.381 A 
HETATM   27  O2  UNL     1       4.880  36.452  29.178  1.00  0.00    -0.236 OA
ENDBRANCH  20  22
ENDBRANCH   6  19
TORSDOF 4
ENDMDL
