MODEL 2
REMARK VINA RESULT: -9.543256736      1.205      1.520
REMARK  13 active torsions:
REMARK  status: ('A' for Active; 'I' for Inactive)
REMARK       I    between atoms: C2_2  and  N1_4 
REMARK    1  A    between atoms: N1_4  and  C3_6 
REMARK    2  A    between atoms: C3_6  and  C5_8 
REMARK       I    between atoms: C5_8  and  N2_10 
REMARK    3  A    between atoms: N2_10  and  C6_12 
REMARK    4  A    between atoms: C6_12  and  C7_13 
REMARK    5  A    between atoms: C6_12  and  C14_20 
REMARK    6  A    between atoms: C7_13  and  C8_14 
REMARK    7  A    between atoms: C14_20  and  O3_21 
REMARK    8  A    between atoms: C14_20  and  C15_23 
REMARK    9  A    between atoms: C15_23  and  N3_24 
REMARK   10  A    between atoms: N3_24  and  C16_25 
REMARK   11  A    between atoms: N3_24  and  S2_31 
REMARK   12  A    between atoms: C16_25  and  C17_26 
REMARK   13  A    between atoms: S2_31  and  C21_34 
ROOT
HETATM    1  C14 UNL     1      20.201  29.565  15.101  1.00  0.00     0.180 C 
ENDROOT
BRANCH   1   2
HETATM    2  C6  UNL     1      20.005  29.108  13.674  1.00  0.00     0.122 C 
BRANCH   2   3
HETATM    3  N2  UNL     1      21.075  28.186  13.341  1.00  0.00    -0.352 N 
HETATM    4  C5  UNL     1      22.096  28.544  12.414  1.00  0.00     0.240 C 
HETATM    5  O2  UNL     1      22.078  29.683  11.870  1.00  0.00    -0.271 OA
ATOM      6  H2  UNL     1      21.096  27.264  13.778  1.00  0.00     0.163 HD
BRANCH   4   7
HETATM    7  C3  UNL     1      23.184  27.612  12.066  1.00  0.00     0.172 C 
HETATM    8  C4  UNL     1      24.492  28.356  12.002  1.00  0.00     0.042 C 
BRANCH   7   9
HETATM    9  N1  UNL     1      22.904  26.966  10.799  1.00  0.00    -0.349 N 
HETATM   10  C2  UNL     1      22.152  25.780  10.761  1.00  0.00     0.214 C 
HETATM   11  C1  UNL     1      21.827  25.067   9.498  1.00  0.00     0.117 C 
HETATM   12  O1  UNL     1      21.711  25.264  11.836  1.00  0.00    -0.274 OA
ATOM     13  H1  UNL     1      23.253  27.373   9.931  1.00  0.00     0.163 HD
ENDBRANCH   7   9
ENDBRANCH   4   7
ENDBRANCH   2   3
BRANCH   2  14
HETATM   14  C7  UNL     1      18.735  28.355  13.542  1.00  0.00     0.066 C 
BRANCH  14  15
HETATM   15  C8  UNL     1      18.454  27.688  12.286  1.00  0.00    -0.056 A 
HETATM   16  C9  UNL     1      18.266  28.477  11.150  1.00  0.00     0.007 A 
HETATM   17  C10 UNL     1      18.002  27.945   9.917  1.00  0.00     0.001 A 
HETATM   18  C11 UNL     1      17.912  26.600   9.754  1.00  0.00     0.000 A 
HETATM   19  C12 UNL     1      18.096  25.790  10.882  1.00  0.00     0.001 A 
HETATM   20  C13 UNL     1      18.359  26.339  12.099  1.00  0.00     0.007 A 
ENDBRANCH  14  15
ENDBRANCH   2  14
ENDBRANCH   1   2
BRANCH   1  21
HETATM   21  O3  UNL     1      20.324  28.451  15.946  1.00  0.00    -0.388 OA
ATOM     22  H3  UNL     1      19.762  27.748  15.640  1.00  0.00     0.210 HD
ENDBRANCH   1  21
BRANCH   1  23
HETATM   23  C15 UNL     1      19.054  30.446  15.578  1.00  0.00     0.110 C 
BRANCH  23  24
HETATM   24  N3  UNL     1      19.373  31.773  15.805  1.00  0.00    -0.279 N 
BRANCH  24  25
HETATM   25  C16 UNL     1      20.423  32.040  16.709  1.00  0.00     0.186 C 
BRANCH  25  26
HETATM   26  C17 UNL     1      21.664  32.473  16.001  1.00  0.00     0.001 A 
HETATM   27  C18 UNL     1      22.720  33.103  16.597  1.00  0.00     0.017 A 
HETATM   28  C19 UNL     1      23.765  33.424  15.806  1.00  0.00     0.008 A 
HETATM   29  C20 UNL     1      23.678  33.092  14.482  1.00  0.00     0.050 A 
HETATM   30  S1  UNL     1      22.148  32.346  14.377  1.00  0.00    -0.105 SA
ENDBRANCH  25  26
ENDBRANCH  24  25
BRANCH  24  31
HETATM   31  S2  UNL     1      18.420  33.059  15.378  1.00  0.00     0.267 S 
HETATM   32  O4  UNL     1      17.270  32.558  14.494  1.00  0.00    -0.200 OA
HETATM   33  O5  UNL     1      19.234  34.042  14.507  1.00  0.00    -0.200 OA
BRANCH  31  34
HETATM   34  C21 UNL     1      17.730  34.023  16.629  1.00  0.00     0.121 A 
HETATM   35  C22 UNL     1      16.360  33.921  16.880  1.00  0.00     0.074 A 
HETATM   36  C23 UNL     1      15.728  34.630  17.867  1.00  0.00     0.156 A 
HETATM   37  F1  UNL     1      14.401  34.495  18.068  1.00  0.00    -0.203 F 
HETATM   38  C24 UNL     1      16.445  35.497  18.670  1.00  0.00     0.157 A 
HETATM   39  F2  UNL     1      15.797  36.190  19.641  1.00  0.00    -0.203 F 
HETATM   40  C25 UNL     1      17.799  35.623  18.449  1.00  0.00     0.089 A 
HETATM   41  C26 UNL     1      18.412  34.897  17.448  1.00  0.00     0.142 A 
HETATM   42  F3  UNL     1      19.721  35.050  17.234  1.00  0.00    -0.204 F 
ENDBRANCH  31  34
ENDBRANCH  24  31
ENDBRANCH  23  24
ENDBRANCH   1  23
TORSDOF 13
ENDMDL
