MODEL 1
REMARK VINA RESULT: -10.038958724      0.000      0.000
REMARK  13 active torsions:
REMARK  status: ('A' for Active; 'I' for Inactive)
REMARK       I    between atoms: C2_2  and  N1_4 
REMARK    1  A    between atoms: N1_4  and  C3_6 
REMARK    2  A    between atoms: C3_6  and  C5_8 
REMARK       I    between atoms: C5_8  and  N2_10 
REMARK    3  A    between atoms: N2_10  and  C6_12 
REMARK    4  A    between atoms: C6_12  and  C7_13 
REMARK    5  A    between atoms: C6_12  and  C14_20 
REMARK    6  A    between atoms: C7_13  and  C8_14 
REMARK    7  A    between atoms: C14_20  and  O3_21 
REMARK    8  A    between atoms: C14_20  and  C15_23 
REMARK    9  A    between atoms: C15_23  and  N3_24 
REMARK   10  A    between atoms: N3_24  and  C16_25 
REMARK   11  A    between atoms: N3_24  and  S2_31 
REMARK   12  A    between atoms: C16_25  and  C17_26 
REMARK   13  A    between atoms: S2_31  and  C21_34 
ROOT
HETATM    1  C14 UNL     1      20.505  29.497  15.065  1.00  0.00     0.180 C 
ENDROOT
BRANCH   1   2
HETATM    2  C6  UNL     1      20.210  29.115  13.633  1.00  0.00     0.122 C 
BRANCH   2   3
HETATM    3  N2  UNL     1      21.215  28.161  13.201  1.00  0.00    -0.352 N 
HETATM    4  C5  UNL     1      22.301  28.559  12.369  1.00  0.00     0.240 C 
HETATM    5  O2  UNL     1      22.400  29.762  11.999  1.00  0.00    -0.271 OA
ATOM      6  H2  UNL     1      21.142  27.188  13.498  1.00  0.00     0.163 HD
BRANCH   4   7
HETATM    7  C3  UNL     1      23.324  27.596  11.921  1.00  0.00     0.172 C 
HETATM    8  C4  UNL     1      24.643  28.300  11.742  1.00  0.00     0.042 C 
BRANCH   7   9
HETATM    9  N1  UNL     1      22.910  26.967  10.682  1.00  0.00    -0.349 N 
HETATM   10  C2  UNL     1      22.142  25.791  10.710  1.00  0.00     0.214 C 
HETATM   11  C1  UNL     1      21.683  25.095   9.479  1.00  0.00     0.117 C 
HETATM   12  O1  UNL     1      21.803  25.270  11.818  1.00  0.00    -0.274 OA
ATOM     13  H1  UNL     1      23.178  27.378   9.788  1.00  0.00     0.163 HD
ENDBRANCH   7   9
ENDBRANCH   4   7
ENDBRANCH   2   3
BRANCH   2  14
HETATM   14  C7  UNL     1      18.900  28.428  13.541  1.00  0.00     0.066 C 
BRANCH  14  15
HETATM   15  C8  UNL     1      18.565  27.740  12.309  1.00  0.00    -0.056 A 
HETATM   16  C9  UNL     1      18.382  28.506  11.157  1.00  0.00     0.007 A 
HETATM   17  C10 UNL     1      18.071  27.953   9.945  1.00  0.00     0.001 A 
HETATM   18  C11 UNL     1      17.925  26.608   9.819  1.00  0.00     0.000 A 
HETATM   19  C12 UNL     1      18.104  25.822  10.964  1.00  0.00     0.001 A 
HETATM   20  C13 UNL     1      18.414  26.390  12.161  1.00  0.00     0.007 A 
ENDBRANCH  14  15
ENDBRANCH   2  14
ENDBRANCH   1   2
BRANCH   1  21
HETATM   21  O3  UNL     1      20.805  28.347  15.814  1.00  0.00    -0.388 OA
ATOM     22  H3  UNL     1      20.918  28.577  16.729  1.00  0.00     0.210 HD
ENDBRANCH   1  21
BRANCH   1  23
HETATM   23  C15 UNL     1      19.340  30.237  15.707  1.00  0.00     0.110 C 
BRANCH  23  24
HETATM   24  N3  UNL     1      19.350  31.613  15.560  1.00  0.00    -0.279 N 
BRANCH  24  25
HETATM   25  C16 UNL     1      20.177  32.350  16.434  1.00  0.00     0.186 C 
BRANCH  25  26
HETATM   26  C17 UNL     1      21.531  32.581  15.848  1.00  0.00     0.001 A 
HETATM   27  C18 UNL     1      22.675  32.752  16.575  1.00  0.00     0.017 A 
HETATM   28  C19 UNL     1      23.816  32.950  15.882  1.00  0.00     0.008 A 
HETATM   29  C20 UNL     1      23.729  32.961  14.518  1.00  0.00     0.050 A 
HETATM   30  S1  UNL     1      22.067  32.697  14.239  1.00  0.00    -0.105 SA
ENDBRANCH  25  26
ENDBRANCH  24  25
BRANCH  24  31
HETATM   31  S2  UNL     1      18.236  32.478  14.691  1.00  0.00     0.267 S 
HETATM   32  O4  UNL     1      17.456  31.518  13.782  1.00  0.00    -0.200 OA
HETATM   33  O5  UNL     1      18.963  33.465  13.751  1.00  0.00    -0.200 OA
BRANCH  31  34
HETATM   34  C21 UNL     1      17.084  33.430  15.549  1.00  0.00     0.121 A 
HETATM   35  C22 UNL     1      17.099  34.817  15.383  1.00  0.00     0.074 A 
HETATM   36  C23 UNL     1      16.210  35.653  16.006  1.00  0.00     0.156 A 
HETATM   37  F1  UNL     1      16.268  36.986  15.812  1.00  0.00    -0.203 F 
HETATM   38  C24 UNL     1      15.241  35.136  16.845  1.00  0.00     0.157 A 
HETATM   39  F2  UNL     1      14.370  35.984  17.453  1.00  0.00    -0.203 F 
HETATM   40  C25 UNL     1      15.197  33.772  17.033  1.00  0.00     0.089 A 
HETATM   41  C26 UNL     1      16.105  32.953  16.394  1.00  0.00     0.142 A 
HETATM   42  F3  UNL     1      16.062  31.635  16.606  1.00  0.00    -0.204 F 
ENDBRANCH  31  34
ENDBRANCH  24  31
ENDBRANCH  23  24
ENDBRANCH   1  23
TORSDOF 13
ENDMDL
