MODEL 6
REMARK VINA RESULT: -9.400526826      2.568      4.498
REMARK  13 active torsions:
REMARK  status: ('A' for Active; 'I' for Inactive)
REMARK       I    between atoms: C2_2  and  N1_4 
REMARK    1  A    between atoms: N1_4  and  C3_6 
REMARK    2  A    between atoms: C3_6  and  C5_8 
REMARK       I    between atoms: C5_8  and  N2_10 
REMARK    3  A    between atoms: N2_10  and  C6_12 
REMARK    4  A    between atoms: C6_12  and  C7_13 
REMARK    5  A    between atoms: C6_12  and  C14_20 
REMARK    6  A    between atoms: C7_13  and  C8_14 
REMARK    7  A    between atoms: C14_20  and  O3_21 
REMARK    8  A    between atoms: C14_20  and  C15_23 
REMARK    9  A    between atoms: C15_23  and  N3_24 
REMARK   10  A    between atoms: N3_24  and  C16_25 
REMARK   11  A    between atoms: N3_24  and  S2_31 
REMARK   12  A    between atoms: C16_25  and  C17_26 
REMARK   13  A    between atoms: S2_31  and  C21_34 
ROOT
HETATM    1  C14 UNL     1      18.831  28.753  14.182  1.00  0.00     0.180 C 
ENDROOT
BRANCH   1   2
HETATM    2  C6  UNL     1      19.087  28.355  12.747  1.00  0.00     0.122 C 
BRANCH   2   3
HETATM    3  N2  UNL     1      20.360  27.661  12.688  1.00  0.00    -0.352 N 
HETATM    4  C5  UNL     1      21.483  28.234  12.025  1.00  0.00     0.240 C 
HETATM    5  O2  UNL     1      21.378  29.368  11.480  1.00  0.00    -0.271 OA
ATOM      6  H2  UNL     1      20.452  26.745  13.128  1.00  0.00     0.163 HD
BRANCH   4   7
HETATM    7  C3  UNL     1      22.779  27.535  11.956  1.00  0.00     0.172 C 
HETATM    8  C4  UNL     1      23.896  28.499  12.256  1.00  0.00     0.042 C 
BRANCH   7   9
HETATM    9  N1  UNL     1      22.958  26.941  10.645  1.00  0.00    -0.349 N 
HETATM   10  C2  UNL     1      23.832  25.855  10.475  1.00  0.00     0.214 C 
HETATM   11  C1  UNL     1      24.061  25.198   9.161  1.00  0.00     0.117 C 
HETATM   12  O1  UNL     1      24.471  25.383  11.466  1.00  0.00    -0.274 OA
ATOM     13  H1  UNL     1      22.448  27.313   9.844  1.00  0.00     0.163 HD
ENDBRANCH   7   9
ENDBRANCH   4   7
ENDBRANCH   2   3
BRANCH   2  14
HETATM   14  C7  UNL     1      18.055  27.396  12.284  1.00  0.00     0.066 C 
BRANCH  14  15
HETATM   15  C8  UNL     1      18.053  27.002  10.889  1.00  0.00    -0.056 A 
HETATM   16  C9  UNL     1      18.246  27.992   9.926  1.00  0.00     0.007 A 
HETATM   17  C10 UNL     1      18.267  27.723   8.584  1.00  0.00     0.001 A 
HETATM   18  C11 UNL     1      18.097  26.452   8.135  1.00  0.00     0.000 A 
HETATM   19  C12 UNL     1      17.902  25.444   9.087  1.00  0.00     0.001 A 
HETATM   20  C13 UNL     1      17.884  25.731  10.417  1.00  0.00     0.007 A 
ENDBRANCH  14  15
ENDBRANCH   2  14
ENDBRANCH   1   2
BRANCH   1  21
HETATM   21  O3  UNL     1      18.051  27.774  14.817  1.00  0.00    -0.388 OA
ATOM     22  H3  UNL     1      18.172  27.824  15.758  1.00  0.00     0.210 HD
ENDBRANCH   1  21
BRANCH   1  23
HETATM   23  C15 UNL     1      18.137  30.105  14.281  1.00  0.00     0.110 C 
BRANCH  23  24
HETATM   24  N3  UNL     1      18.873  31.113  14.878  1.00  0.00    -0.279 N 
BRANCH  24  25
HETATM   25  C16 UNL     1      18.718  31.290  16.270  1.00  0.00     0.186 C 
BRANCH  25  26
HETATM   26  C17 UNL     1      17.732  32.367  16.581  1.00  0.00     0.001 A 
HETATM   27  C18 UNL     1      16.408  32.332  16.243  1.00  0.00     0.017 A 
HETATM   28  C19 UNL     1      15.657  33.393  16.605  1.00  0.00     0.008 A 
HETATM   29  C20 UNL     1      16.281  34.406  17.277  1.00  0.00     0.050 A 
HETATM   30  S1  UNL     1      17.892  33.856  17.385  1.00  0.00    -0.105 SA
ENDBRANCH  25  26
ENDBRANCH  24  25
BRANCH  24  31
HETATM   31  S2  UNL     1      19.645  32.330  14.060  1.00  0.00     0.267 S 
HETATM   32  O4  UNL     1      18.770  33.590  14.095  1.00  0.00    -0.200 OA
HETATM   33  O5  UNL     1      19.786  31.945  12.571  1.00  0.00    -0.200 OA
BRANCH  31  34
HETATM   34  C21 UNL     1      21.229  32.785  14.565  1.00  0.00     0.121 A 
HETATM   35  C22 UNL     1      21.366  33.764  15.552  1.00  0.00     0.074 A 
HETATM   36  C23 UNL     1      22.582  34.175  16.031  1.00  0.00     0.156 A 
HETATM   37  F1  UNL     1      22.659  35.125  16.984  1.00  0.00    -0.203 F 
HETATM   38  C24 UNL     1      23.748  33.618  15.540  1.00  0.00     0.157 A 
HETATM   39  F2  UNL     1      24.942  34.041  16.030  1.00  0.00    -0.203 F 
HETATM   40  C25 UNL     1      23.649  32.649  14.566  1.00  0.00     0.089 A 
HETATM   41  C26 UNL     1      22.413  32.253  14.099  1.00  0.00     0.142 A 
HETATM   42  F3  UNL     1      22.338  31.330  13.138  1.00  0.00    -0.204 F 
ENDBRANCH  31  34
ENDBRANCH  24  31
ENDBRANCH  23  24
ENDBRANCH   1  23
TORSDOF 13
ENDMDL
