MODEL 9
REMARK VINA RESULT: -9.312618212      1.867      2.003
REMARK  13 active torsions:
REMARK  status: ('A' for Active; 'I' for Inactive)
REMARK       I    between atoms: C2_2  and  N1_4 
REMARK    1  A    between atoms: N1_4  and  C3_6 
REMARK    2  A    between atoms: C3_6  and  C5_8 
REMARK       I    between atoms: C5_8  and  N2_10 
REMARK    3  A    between atoms: N2_10  and  C6_12 
REMARK    4  A    between atoms: C6_12  and  C7_13 
REMARK    5  A    between atoms: C6_12  and  C14_20 
REMARK    6  A    between atoms: C7_13  and  C8_14 
REMARK    7  A    between atoms: C14_20  and  O3_21 
REMARK    8  A    between atoms: C14_20  and  C15_23 
REMARK    9  A    between atoms: C15_23  and  N3_24 
REMARK   10  A    between atoms: N3_24  and  C16_25 
REMARK   11  A    between atoms: N3_24  and  S2_31 
REMARK   12  A    between atoms: C16_25  and  C17_26 
REMARK   13  A    between atoms: S2_31  and  C21_34 
ROOT
HETATM    1  C14 UNL     1      20.034  29.565  15.018  1.00  0.00     0.180 C 
ENDROOT
BRANCH   1   2
HETATM    2  C6  UNL     1      19.873  29.104  13.588  1.00  0.00     0.122 C 
BRANCH   2   3
HETATM    3  N2  UNL     1      20.960  28.194  13.278  1.00  0.00    -0.352 N 
HETATM    4  C5  UNL     1      22.016  28.577  12.402  1.00  0.00     0.240 C 
HETATM    5  O2  UNL     1      22.015  29.728  11.883  1.00  0.00    -0.271 OA
ATOM      6  H2  UNL     1      20.968  27.263  13.695  1.00  0.00     0.163 HD
BRANCH   4   7
HETATM    7  C3  UNL     1      23.122  27.658  12.077  1.00  0.00     0.172 C 
HETATM    8  C4  UNL     1      24.420  28.419  12.026  1.00  0.00     0.042 C 
BRANCH   7   9
HETATM    9  N1  UNL     1      22.869  26.998  10.811  1.00  0.00    -0.349 N 
HETATM   10  C2  UNL     1      22.149  25.792  10.775  1.00  0.00     0.214 C 
HETATM   11  C1  UNL     1      21.853  25.064   9.513  1.00  0.00     0.117 C 
HETATM   12  O1  UNL     1      21.712  25.271  11.848  1.00  0.00    -0.274 OA
ATOM     13  H1  UNL     1      23.215  27.409   9.945  1.00  0.00     0.163 HD
ENDBRANCH   7   9
ENDBRANCH   4   7
ENDBRANCH   2   3
BRANCH   2  14
HETATM   14  C7  UNL     1      18.615  28.337  13.431  1.00  0.00     0.066 C 
BRANCH  14  15
HETATM   15  C8  UNL     1      18.383  27.636  12.183  1.00  0.00    -0.056 A 
HETATM   16  C9  UNL     1      18.229  28.394  11.022  1.00  0.00     0.007 A 
HETATM   17  C10 UNL     1      18.013  27.829   9.795  1.00  0.00     0.001 A 
HETATM   18  C11 UNL     1      17.939  26.479   9.663  1.00  0.00     0.000 A 
HETATM   19  C12 UNL     1      18.090  25.700  10.817  1.00  0.00     0.001 A 
HETATM   20  C13 UNL     1      18.305  26.281  12.028  1.00  0.00     0.007 A 
ENDBRANCH  14  15
ENDBRANCH   2  14
ENDBRANCH   1   2
BRANCH   1  21
HETATM   21  O3  UNL     1      20.029  28.456  15.880  1.00  0.00    -0.388 OA
ATOM     22  H3  UNL     1      20.381  28.703  16.727  1.00  0.00     0.210 HD
ENDBRANCH   1  21
BRANCH   1  23
HETATM   23  C15 UNL     1      18.939  30.539  15.428  1.00  0.00     0.110 C 
BRANCH  23  24
HETATM   24  N3  UNL     1      19.371  31.789  15.837  1.00  0.00    -0.279 N 
BRANCH  24  25
HETATM   25  C16 UNL     1      20.499  31.837  16.683  1.00  0.00     0.186 C 
BRANCH  25  26
HETATM   26  C17 UNL     1      21.703  32.355  15.967  1.00  0.00     0.001 A 
HETATM   27  C18 UNL     1      22.823  32.843  16.580  1.00  0.00     0.017 A 
HETATM   28  C19 UNL     1      23.821  33.269  15.778  1.00  0.00     0.008 A 
HETATM   29  C20 UNL     1      23.627  33.175  14.428  1.00  0.00     0.050 A 
HETATM   30  S1  UNL     1      22.066  32.499  14.313  1.00  0.00    -0.105 SA
ENDBRANCH  25  26
ENDBRANCH  24  25
BRANCH  24  31
HETATM   31  S2  UNL     1      18.488  33.184  15.701  1.00  0.00     0.267 S 
HETATM   32  O4  UNL     1      16.995  32.832  15.681  1.00  0.00    -0.200 OA
HETATM   33  O5  UNL     1      18.789  33.857  14.343  1.00  0.00    -0.200 OA
BRANCH  31  34
HETATM   34  C21 UNL     1      18.714  34.419  16.882  1.00  0.00     0.121 A 
HETATM   35  C22 UNL     1      19.817  35.268  16.766  1.00  0.00     0.074 A 
HETATM   36  C23 UNL     1      20.068  36.290  17.643  1.00  0.00     0.156 A 
HETATM   37  F1  UNL     1      21.147  37.082  17.486  1.00  0.00    -0.203 F 
HETATM   38  C24 UNL     1      19.212  36.521  18.704  1.00  0.00     0.157 A 
HETATM   39  F2  UNL     1      19.481  37.539  19.562  1.00  0.00    -0.203 F 
HETATM   40  C25 UNL     1      18.114  35.701  18.849  1.00  0.00     0.089 A 
HETATM   41  C26 UNL     1      17.885  34.679  17.952  1.00  0.00     0.142 A 
HETATM   42  F3  UNL     1      16.829  33.880  18.122  1.00  0.00    -0.204 F 
ENDBRANCH  31  34
ENDBRANCH  24  31
ENDBRANCH  23  24
ENDBRANCH   1  23
TORSDOF 13
ENDMDL
