MODEL 12
REMARK VINA RESULT: -9.241103753      1.325      1.813
REMARK  13 active torsions:
REMARK  status: ('A' for Active; 'I' for Inactive)
REMARK       I    between atoms: C2_2  and  N1_4 
REMARK    1  A    between atoms: N1_4  and  C3_6 
REMARK    2  A    between atoms: C3_6  and  C5_8 
REMARK       I    between atoms: C5_8  and  N2_10 
REMARK    3  A    between atoms: N2_10  and  C6_12 
REMARK    4  A    between atoms: C6_12  and  C7_13 
REMARK    5  A    between atoms: C6_12  and  C14_20 
REMARK    6  A    between atoms: C7_13  and  C8_14 
REMARK    7  A    between atoms: C14_20  and  O3_21 
REMARK    8  A    between atoms: C14_20  and  C15_23 
REMARK    9  A    between atoms: C15_23  and  N3_24 
REMARK   10  A    between atoms: N3_24  and  C16_25 
REMARK   11  A    between atoms: N3_24  and  S2_31 
REMARK   12  A    between atoms: C16_25  and  C17_26 
REMARK   13  A    between atoms: S2_31  and  C21_34 
ROOT
HETATM    1  C14 UNL     1      20.467  29.699  14.556  1.00  0.00     0.180 C 
ENDROOT
BRANCH   1   2
HETATM    2  C6  UNL     1      20.197  29.093  13.198  1.00  0.00     0.122 C 
BRANCH   2   3
HETATM    3  N2  UNL     1      21.243  28.128  12.914  1.00  0.00    -0.352 N 
HETATM    4  C5  UNL     1      22.381  28.482  12.133  1.00  0.00     0.240 C 
HETATM    5  O2  UNL     1      22.490  29.654  11.678  1.00  0.00    -0.271 OA
ATOM      6  H2  UNL     1      21.162  27.179  13.280  1.00  0.00     0.163 HD
BRANCH   4   7
HETATM    7  C3  UNL     1      23.447  27.507  11.835  1.00  0.00     0.172 C 
HETATM    8  C4  UNL     1      24.779  28.208  11.785  1.00  0.00     0.042 C 
BRANCH   7   9
HETATM    9  N1  UNL     1      23.176  26.838  10.579  1.00  0.00    -0.349 N 
HETATM   10  C2  UNL     1      22.360  25.694  10.549  1.00  0.00     0.214 C 
HETATM   11  C1  UNL     1      22.041  24.960   9.296  1.00  0.00     0.117 C 
HETATM   12  O1  UNL     1      21.853  25.238  11.621  1.00  0.00    -0.274 OA
ATOM     13  H1  UNL     1      23.579  27.197   9.713  1.00  0.00     0.163 HD
ENDBRANCH   7   9
ENDBRANCH   4   7
ENDBRANCH   2   3
BRANCH   2  14
HETATM   14  C7  UNL     1      18.917  28.344  13.212  1.00  0.00     0.066 C 
BRANCH  14  15
HETATM   15  C8  UNL     1      18.551  27.579  12.036  1.00  0.00    -0.056 A 
HETATM   16  C9  UNL     1      18.350  28.269  10.839  1.00  0.00     0.007 A 
HETATM   17  C10 UNL     1      18.008  27.640   9.674  1.00  0.00     0.001 A 
HETATM   18  C11 UNL     1      17.848  26.291   9.641  1.00  0.00     0.000 A 
HETATM   19  C12 UNL     1      18.044  25.581  10.831  1.00  0.00     0.001 A 
HETATM   20  C13 UNL     1      18.385  26.225  11.981  1.00  0.00     0.007 A 
ENDBRANCH  14  15
ENDBRANCH   2  14
ENDBRANCH   1   2
BRANCH   1  21
HETATM   21  O3  UNL     1      19.594  29.147  15.507  1.00  0.00    -0.388 OA
ATOM     22  H3  UNL     1      20.054  29.012  16.328  1.00  0.00     0.210 HD
ENDBRANCH   1  21
BRANCH   1  23
HETATM   23  C15 UNL     1      20.319  31.214  14.541  1.00  0.00     0.110 C 
BRANCH  23  24
HETATM   24  N3  UNL     1      19.464  31.741  15.494  1.00  0.00    -0.279 N 
BRANCH  24  25
HETATM   25  C16 UNL     1      19.998  31.981  16.778  1.00  0.00     0.186 C 
BRANCH  25  26
HETATM   26  C17 UNL     1      20.736  33.278  16.834  1.00  0.00     0.001 A 
HETATM   27  C18 UNL     1      20.153  34.497  17.041  1.00  0.00     0.017 A 
HETATM   28  C19 UNL     1      20.972  35.569  17.063  1.00  0.00     0.008 A 
HETATM   29  C20 UNL     1      22.308  35.345  16.879  1.00  0.00     0.050 A 
HETATM   30  S1  UNL     1      22.386  33.653  16.680  1.00  0.00    -0.105 SA
ENDBRANCH  25  26
ENDBRANCH  24  25
BRANCH  24  31
HETATM   31  S2  UNL     1      17.814  31.790  15.358  1.00  0.00     0.267 S 
HETATM   32  O4  UNL     1      17.207  30.675  16.220  1.00  0.00    -0.200 OA
HETATM   33  O5  UNL     1      17.404  31.479  13.902  1.00  0.00    -0.200 OA
BRANCH  31  34
HETATM   34  C21 UNL     1      17.000  33.256  15.758  1.00  0.00     0.121 A 
HETATM   35  C22 UNL     1      16.055  33.243  16.787  1.00  0.00     0.074 A 
HETATM   36  C23 UNL     1      15.374  34.361  17.189  1.00  0.00     0.156 A 
HETATM   37  F1  UNL     1      14.472  34.295  18.188  1.00  0.00    -0.203 F 
HETATM   38  C24 UNL     1      15.605  35.576  16.570  1.00  0.00     0.157 A 
HETATM   39  F2  UNL     1      14.917  36.672  16.985  1.00  0.00    -0.203 F 
HETATM   40  C25 UNL     1      16.530  35.625  15.551  1.00  0.00     0.089 A 
HETATM   41  C26 UNL     1      17.202  34.484  15.165  1.00  0.00     0.142 A 
HETATM   42  F3  UNL     1      18.078  34.546  14.158  1.00  0.00    -0.204 F 
ENDBRANCH  31  34
ENDBRANCH  24  31
ENDBRANCH  23  24
ENDBRANCH   1  23
TORSDOF 13
ENDMDL
