MODEL 7
REMARK VINA RESULT: -9.352046496      3.412      8.521
REMARK  13 active torsions:
REMARK  status: ('A' for Active; 'I' for Inactive)
REMARK       I    between atoms: C2_2  and  N1_4 
REMARK    1  A    between atoms: N1_4  and  C3_6 
REMARK    2  A    between atoms: C3_6  and  C5_8 
REMARK       I    between atoms: C5_8  and  N2_10 
REMARK    3  A    between atoms: N2_10  and  C6_12 
REMARK    4  A    between atoms: C6_12  and  C7_13 
REMARK    5  A    between atoms: C6_12  and  C14_20 
REMARK    6  A    between atoms: C7_13  and  C8_14 
REMARK    7  A    between atoms: C14_20  and  O3_21 
REMARK    8  A    between atoms: C14_20  and  C15_23 
REMARK    9  A    between atoms: C15_23  and  N3_24 
REMARK   10  A    between atoms: N3_24  and  C16_25 
REMARK   11  A    between atoms: N3_24  and  S2_31 
REMARK   12  A    between atoms: C16_25  and  C17_26 
REMARK   13  A    between atoms: S2_31  and  C21_34 
ROOT
HETATM    1  C14 UNL     1      17.672  31.563  16.277  1.00  0.00     0.180 C 
ENDROOT
BRANCH   1   2
HETATM    2  C6  UNL     1      17.827  33.014  16.668  1.00  0.00     0.122 C 
BRANCH   2   3
HETATM    3  N2  UNL     1      19.179  33.431  16.343  1.00  0.00    -0.352 N 
HETATM    4  C5  UNL     1      19.870  34.383  17.146  1.00  0.00     0.240 C 
HETATM    5  O2  UNL     1      19.305  34.876  18.162  1.00  0.00    -0.271 OA
ATOM      6  H2  UNL     1      19.642  33.036  15.525  1.00  0.00     0.163 HD
BRANCH   4   7
HETATM    7  C3  UNL     1      21.241  34.817  16.822  1.00  0.00     0.172 C 
HETATM    8  C4  UNL     1      21.304  36.321  16.776  1.00  0.00     0.042 C 
BRANCH   7   9
HETATM    9  N1  UNL     1      21.659  34.250  15.555  1.00  0.00    -0.349 N 
HETATM   10  C2  UNL     1      22.881  33.565  15.456  1.00  0.00     0.214 C 
HETATM   11  C1  UNL     1      23.369  32.959  14.190  1.00  0.00     0.117 C 
HETATM   12  O1  UNL     1      23.630  33.434  16.475  1.00  0.00    -0.274 OA
ATOM     13  H1  UNL     1      21.064  34.349  14.733  1.00  0.00     0.163 HD
ENDBRANCH   7   9
ENDBRANCH   4   7
ENDBRANCH   2   3
BRANCH   2  14
HETATM   14  C7  UNL     1      16.913  33.865  15.869  1.00  0.00     0.066 C 
BRANCH  14  15
HETATM   15  C8  UNL     1      16.219  34.950  16.534  1.00  0.00    -0.056 A 
HETATM   16  C9  UNL     1      15.056  34.648  17.244  1.00  0.00     0.007 A 
HETATM   17  C10 UNL     1      14.331  35.597  17.911  1.00  0.00     0.001 A 
HETATM   18  C11 UNL     1      14.728  36.897  17.904  1.00  0.00     0.000 A 
HETATM   19  C12 UNL     1      15.892  37.220  17.197  1.00  0.00     0.001 A 
HETATM   20  C13 UNL     1      16.600  36.261  16.540  1.00  0.00     0.007 A 
ENDBRANCH  14  15
ENDBRANCH   2  14
ENDBRANCH   1   2
BRANCH   1  21
HETATM   21  O3  UNL     1      18.479  30.759  17.098  1.00  0.00    -0.388 OA
ATOM     22  H3  UNL     1      18.898  30.083  16.578  1.00  0.00     0.210 HD
ENDBRANCH   1  21
BRANCH   1  23
HETATM   23  C15 UNL     1      18.031  31.326  14.817  1.00  0.00     0.110 C 
BRANCH  23  24
HETATM   24  N3  UNL     1      18.721  30.156  14.552  1.00  0.00    -0.279 N 
BRANCH  24  25
HETATM   25  C16 UNL     1      17.956  29.003  14.277  1.00  0.00     0.186 C 
BRANCH  25  26
HETATM   26  C17 UNL     1      17.972  28.665  12.823  1.00  0.00     0.001 A 
HETATM   27  C18 UNL     1      17.204  29.278  11.873  1.00  0.00     0.017 A 
HETATM   28  C19 UNL     1      17.346  28.847  10.602  1.00  0.00     0.008 A 
HETATM   29  C20 UNL     1      18.240  27.839  10.375  1.00  0.00     0.050 A 
HETATM   30  S1  UNL     1      18.858  27.520  11.933  1.00  0.00    -0.105 SA
ENDBRANCH  25  26
ENDBRANCH  24  25
BRANCH  24  31
HETATM   31  S2  UNL     1      20.331  29.919  14.862  1.00  0.00     0.267 S 
HETATM   32  O4  UNL     1      20.490  28.699  15.778  1.00  0.00    -0.200 OA
HETATM   33  O5  UNL     1      20.891  31.124  15.649  1.00  0.00    -0.200 OA
BRANCH  31  34
HETATM   34  C21 UNL     1      21.403  29.709  13.528  1.00  0.00     0.121 A 
HETATM   35  C22 UNL     1      22.379  28.713  13.599  1.00  0.00     0.074 A 
HETATM   36  C23 UNL     1      23.261  28.457  12.582  1.00  0.00     0.156 A 
HETATM   37  F1  UNL     1      24.185  27.484  12.702  1.00  0.00    -0.203 F 
HETATM   38  C24 UNL     1      23.212  29.200  11.417  1.00  0.00     0.157 A 
HETATM   39  F2  UNL     1      24.096  28.930  10.422  1.00  0.00    -0.203 F 
HETATM   40  C25 UNL     1      22.261  30.191  11.313  1.00  0.00     0.089 A 
HETATM   41  C26 UNL     1      21.385  30.428  12.352  1.00  0.00     0.142 A 
HETATM   42  F3  UNL     1      20.486  31.409  12.243  1.00  0.00    -0.204 F 
ENDBRANCH  31  34
ENDBRANCH  24  31
ENDBRANCH  23  24
ENDBRANCH   1  23
TORSDOF 13
ENDMDL
