MODEL 8
REMARK VINA RESULT: -9.321942586      2.720      5.192
REMARK  13 active torsions:
REMARK  status: ('A' for Active; 'I' for Inactive)
REMARK       I    between atoms: C2_2  and  N1_4 
REMARK    1  A    between atoms: N1_4  and  C3_6 
REMARK    2  A    between atoms: C3_6  and  C5_8 
REMARK       I    between atoms: C5_8  and  N2_10 
REMARK    3  A    between atoms: N2_10  and  C6_12 
REMARK    4  A    between atoms: C6_12  and  C7_13 
REMARK    5  A    between atoms: C6_12  and  C14_20 
REMARK    6  A    between atoms: C7_13  and  C8_14 
REMARK    7  A    between atoms: C14_20  and  O3_21 
REMARK    8  A    between atoms: C14_20  and  C15_23 
REMARK    9  A    between atoms: C15_23  and  N3_24 
REMARK   10  A    between atoms: N3_24  and  C16_25 
REMARK   11  A    between atoms: N3_24  and  S2_31 
REMARK   12  A    between atoms: C16_25  and  C17_26 
REMARK   13  A    between atoms: S2_31  and  C21_34 
ROOT
HETATM    1  C14 UNL     1      20.328  29.089  14.543  1.00  0.00     0.180 C 
ENDROOT
BRANCH   1   2
HETATM    2  C6  UNL     1      20.831  28.460  13.264  1.00  0.00     0.122 C 
BRANCH   2   3
HETATM    3  N2  UNL     1      19.935  28.840  12.187  1.00  0.00    -0.352 N 
HETATM    4  C5  UNL     1      18.938  27.944  11.706  1.00  0.00     0.240 C 
HETATM    5  O2  UNL     1      18.823  26.798  12.222  1.00  0.00    -0.271 OA
ATOM      6  H2  UNL     1      20.021  29.766  11.768  1.00  0.00     0.163 HD
BRANCH   4   7
HETATM    7  C3  UNL     1      18.027  28.319  10.610  1.00  0.00     0.172 C 
HETATM    8  C4  UNL     1      16.914  29.182  11.144  1.00  0.00     0.042 C 
BRANCH   7   9
HETATM    9  N1  UNL     1      17.490  27.131   9.976  1.00  0.00    -0.349 N 
HETATM   10  C2  UNL     1      17.798  26.845   8.636  1.00  0.00     0.214 C 
HETATM   11  C1  UNL     1      17.284  25.645   7.925  1.00  0.00     0.117 C 
HETATM   12  O1  UNL     1      18.549  27.623   7.968  1.00  0.00    -0.274 OA
ATOM     13  H1  UNL     1      16.887  26.500  10.504  1.00  0.00     0.163 HD
ENDBRANCH   7   9
ENDBRANCH   4   7
ENDBRANCH   2   3
BRANCH   2  14
HETATM   14  C7  UNL     1      22.169  28.996  12.917  1.00  0.00     0.066 C 
BRANCH  14  15
HETATM   15  C8  UNL     1      23.125  28.110  12.282  1.00  0.00    -0.056 A 
HETATM   16  C9  UNL     1      22.677  26.861  11.848  1.00  0.00     0.007 A 
HETATM   17  C10 UNL     1      23.497  25.956  11.233  1.00  0.00     0.001 A 
HETATM   18  C11 UNL     1      24.807  26.248  11.019  1.00  0.00     0.000 A 
HETATM   19  C12 UNL     1      25.276  27.496  11.448  1.00  0.00     0.001 A 
HETATM   20  C13 UNL     1      24.444  28.384  12.057  1.00  0.00     0.007 A 
ENDBRANCH  14  15
ENDBRANCH   2  14
ENDBRANCH   1   2
BRANCH   1  21
HETATM   21  O3  UNL     1      19.190  28.401  14.997  1.00  0.00    -0.388 OA
ATOM     22  H3  UNL     1      18.499  28.456  14.348  1.00  0.00     0.210 HD
ENDBRANCH   1  21
BRANCH   1  23
HETATM   23  C15 UNL     1      19.996  30.563  14.359  1.00  0.00     0.110 C 
BRANCH  23  24
HETATM   24  N3  UNL     1      20.472  31.411  15.344  1.00  0.00    -0.279 N 
BRANCH  24  25
HETATM   25  C16 UNL     1      19.690  31.552  16.509  1.00  0.00     0.186 C 
BRANCH  25  26
HETATM   26  C17 UNL     1      18.408  32.265  16.230  1.00  0.00     0.001 A 
HETATM   27  C18 UNL     1      17.166  31.704  16.339  1.00  0.00     0.017 A 
HETATM   28  C19 UNL     1      16.112  32.495  16.049  1.00  0.00     0.008 A 
HETATM   29  C20 UNL     1      16.375  33.782  15.672  1.00  0.00     0.050 A 
HETATM   30  S1  UNL     1      18.078  33.856  15.733  1.00  0.00    -0.105 SA
ENDBRANCH  25  26
ENDBRANCH  24  25
BRANCH  24  31
HETATM   31  S2  UNL     1      21.686  32.518  15.129  1.00  0.00     0.267 S 
HETATM   32  O4  UNL     1      21.554  33.142  13.733  1.00  0.00    -0.200 OA
HETATM   33  O5  UNL     1      23.054  31.800  15.152  1.00  0.00    -0.200 OA
BRANCH  31  34
HETATM   34  C21 UNL     1      21.831  33.810  16.262  1.00  0.00     0.121 A 
HETATM   35  C22 UNL     1      21.493  35.103  15.855  1.00  0.00     0.074 A 
HETATM   36  C23 UNL     1      21.555  36.187  16.690  1.00  0.00     0.156 A 
HETATM   37  F1  UNL     1      21.218  37.416  16.247  1.00  0.00    -0.203 F 
HETATM   38  C24 UNL     1      21.967  36.034  18.000  1.00  0.00     0.157 A 
HETATM   39  F2  UNL     1      22.022  37.123  18.810  1.00  0.00    -0.203 F 
HETATM   40  C25 UNL     1      22.309  34.772  18.435  1.00  0.00     0.089 A 
HETATM   41  C26 UNL     1      22.238  33.696  17.574  1.00  0.00     0.142 A 
HETATM   42  F3  UNL     1      22.595  32.484  18.006  1.00  0.00    -0.204 F 
ENDBRANCH  31  34
ENDBRANCH  24  31
ENDBRANCH  23  24
ENDBRANCH   1  23
TORSDOF 13
ENDMDL
