MODEL 11
REMARK VINA RESULT: -9.100765299      2.339      8.089
REMARK  13 active torsions:
REMARK  status: ('A' for Active; 'I' for Inactive)
REMARK    1  A    between atoms: C2_2  and  C26_39 
REMARK    2  A    between atoms: C3_3  and  C4_4 
REMARK       I    between atoms: C4_4  and  N1_6 
REMARK    3  A    between atoms: N1_6  and  C5_8 
REMARK    4  A    between atoms: C5_8  and  C6_9 
REMARK    5  A    between atoms: C5_8  and  C13_16 
REMARK    6  A    between atoms: C6_9  and  C7_10 
REMARK    7  A    between atoms: C13_16  and  O2_17 
REMARK    8  A    between atoms: C13_16  and  C14_19 
REMARK    9  A    between atoms: C14_19  and  N2_20 
REMARK   10  A    between atoms: N2_20  and  C15_21 
REMARK   11  A    between atoms: N2_20  and  S2_27 
REMARK   12  A    between atoms: C15_21  and  C16_22 
REMARK   13  A    between atoms: S2_27  and  C20_30 
ROOT
HETATM    1  C13 UNL     1      19.964  29.652  15.405  1.00  0.00     0.180 C 
ENDROOT
BRANCH   1   2
HETATM    2  C5  UNL     1      19.892  29.061  14.047  1.00  0.00     0.122 C 
BRANCH   2   3
HETATM    3  N1  UNL     1      21.103  28.338  13.673  1.00  0.00    -0.350 N 
HETATM    4  C4  UNL     1      22.130  28.893  12.867  1.00  0.00     0.242 C 
HETATM    5  O1  UNL     1      21.988  30.056  12.461  1.00  0.00    -0.269 OA
ATOM      6  H1  UNL     1      21.216  27.381  14.009  1.00  0.00     0.163 HD
BRANCH   4   7
HETATM    7  C3  UNL     1      23.330  28.149  12.507  1.00  0.00     0.085 C 
HETATM    8  C2  UNL     1      23.372  27.229  11.567  1.00  0.00     0.027 C 
HETATM    9  C1  UNL     1      22.157  26.908  10.816  1.00  0.00     0.053 C 
BRANCH   8  10
HETATM   10  C26 UNL     1      24.666  26.534  11.289  1.00  0.00     0.413 C 
HETATM   11  F4  UNL     1      25.517  26.668  12.375  1.00  0.00    -0.166 F 
HETATM   12  F5  UNL     1      24.400  25.176  11.077  1.00  0.00    -0.166 F 
HETATM   13  F6  UNL     1      25.302  27.024  10.187  1.00  0.00    -0.166 F 
ENDBRANCH   8  10
ENDBRANCH   4   7
ENDBRANCH   2   3
BRANCH   2  14
HETATM   14  C6  UNL     1      18.746  28.125  13.867  1.00  0.00     0.066 C 
BRANCH  14  15
HETATM   15  C7  UNL     1      18.535  27.653  12.483  1.00  0.00    -0.056 A 
HETATM   16  C8  UNL     1      18.320  28.599  11.474  1.00  0.00     0.007 A 
HETATM   17  C9  UNL     1      18.104  28.249  10.164  1.00  0.00     0.001 A 
HETATM   18  C10 UNL     1      18.092  26.921   9.794  1.00  0.00     0.000 A 
HETATM   19  C11 UNL     1      18.300  25.975  10.758  1.00  0.00     0.001 A 
HETATM   20  C12 UNL     1      18.515  26.349  12.075  1.00  0.00     0.007 A 
ENDBRANCH  14  15
ENDBRANCH   2  14
ENDBRANCH   1   2
BRANCH   1  21
HETATM   21  O2  UNL     1      20.187  28.711  16.364  1.00  0.00    -0.388 OA
ATOM     22  H2  UNL     1      20.845  28.988  16.991  1.00  0.00     0.210 HD
ENDBRANCH   1  21
BRANCH   1  23
HETATM   23  C14 UNL     1      18.678  30.419  15.699  1.00  0.00     0.110 C 
BRANCH  23  24
HETATM   24  N2  UNL     1      18.864  31.785  15.514  1.00  0.00    -0.279 N 
BRANCH  24  25
HETATM   25  C15 UNL     1      20.171  32.097  14.975  1.00  0.00     0.186 C 
BRANCH  25  26
HETATM   26  C16 UNL     1      20.912  32.952  15.973  1.00  0.00     0.001 A 
HETATM   27  C17 UNL     1      21.645  32.560  17.057  1.00  0.00     0.017 A 
HETATM   28  C18 UNL     1      22.213  33.517  17.800  1.00  0.00     0.008 A 
HETATM   29  C19 UNL     1      22.010  34.817  17.410  1.00  0.00     0.050 A 
HETATM   30  S1  UNL     1      21.035  34.650  16.021  1.00  0.00    -0.105 SA
ENDBRANCH  25  26
ENDBRANCH  24  25
BRANCH  24  31
HETATM   31  S2  UNL     1      17.679  32.894  15.230  1.00  0.00     0.267 S 
HETATM   32  O3  UNL     1      16.494  32.186  14.579  1.00  0.00    -0.200 OA
HETATM   33  O4  UNL     1      18.147  33.857  14.133  1.00  0.00    -0.200 OA
BRANCH  31  34
HETATM   34  C20 UNL     1      17.100  33.886  16.526  1.00  0.00     0.121 A 
HETATM   35  C21 UNL     1      17.968  34.091  17.613  1.00  0.00     0.074 A 
HETATM   36  C22 UNL     1      17.673  34.871  18.692  1.00  0.00     0.156 A 
HETATM   37  F1  UNL     1      18.528  35.056  19.735  1.00  0.00    -0.203 F 
HETATM   38  C23 UNL     1      16.442  35.491  18.701  1.00  0.00     0.157 A 
HETATM   39  F2  UNL     1      16.121  36.277  19.768  1.00  0.00    -0.203 F 
HETATM   40  C24 UNL     1      15.578  35.308  17.654  1.00  0.00     0.089 A 
HETATM   41  C25 UNL     1      15.891  34.500  16.546  1.00  0.00     0.142 A 
HETATM   42  F3  UNL     1      14.953  34.354  15.576  1.00  0.00    -0.204 F 
ENDBRANCH  31  34
ENDBRANCH  24  31
ENDBRANCH  23  24
ENDBRANCH   1  23
TORSDOF 13
ENDMDL
