MODEL 4
REMARK VINA RESULT: -9.446030031      2.420      8.114
REMARK  13 active torsions:
REMARK  status: ('A' for Active; 'I' for Inactive)
REMARK    1  A    between atoms: C2_2  and  C26_39 
REMARK    2  A    between atoms: C3_3  and  C4_4 
REMARK       I    between atoms: C4_4  and  N1_6 
REMARK    3  A    between atoms: N1_6  and  C5_8 
REMARK    4  A    between atoms: C5_8  and  C6_9 
REMARK    5  A    between atoms: C5_8  and  C13_16 
REMARK    6  A    between atoms: C6_9  and  C7_10 
REMARK    7  A    between atoms: C13_16  and  O2_17 
REMARK    8  A    between atoms: C13_16  and  C14_19 
REMARK    9  A    between atoms: C14_19  and  N2_20 
REMARK   10  A    between atoms: N2_20  and  C15_21 
REMARK   11  A    between atoms: N2_20  and  S2_27 
REMARK   12  A    between atoms: C15_21  and  C16_22 
REMARK   13  A    between atoms: S2_27  and  C20_30 
ROOT
HETATM    1  C13 UNL     1      20.129  29.362  15.492  1.00  0.00     0.180 C 
ENDROOT
BRANCH   1   2
HETATM    2  C5  UNL     1      20.012  28.908  14.086  1.00  0.00     0.122 C 
BRANCH   2   3
HETATM    3  N1  UNL     1      21.183  28.172  13.624  1.00  0.00    -0.350 N 
HETATM    4  C4  UNL     1      22.198  28.742  12.813  1.00  0.00     0.242 C 
HETATM    5  O1  UNL     1      22.079  29.932  12.481  1.00  0.00    -0.269 OA
ATOM      6  H1  UNL     1      21.278  27.194  13.898  1.00  0.00     0.163 HD
BRANCH   4   7
HETATM    7  C3  UNL     1      23.359  27.986  12.364  1.00  0.00     0.085 C 
HETATM    8  C2  UNL     1      23.326  27.087  11.403  1.00  0.00     0.027 C 
HETATM    9  C1  UNL     1      22.061  26.806  10.721  1.00  0.00     0.053 C 
BRANCH   8  10
HETATM   10  C26 UNL     1      24.586  26.375  11.031  1.00  0.00     0.413 C 
HETATM   11  F4  UNL     1      25.517  26.499  12.050  1.00  0.00    -0.166 F 
HETATM   12  F5  UNL     1      24.288  25.021  10.842  1.00  0.00    -0.166 F 
HETATM   13  F6  UNL     1      25.145  26.856   9.884  1.00  0.00    -0.166 F 
ENDBRANCH   8  10
ENDBRANCH   4   7
ENDBRANCH   2   3
BRANCH   2  14
HETATM   14  C6  UNL     1      18.822  28.044  13.838  1.00  0.00     0.066 C 
BRANCH  14  15
HETATM   15  C7  UNL     1      18.583  27.699  12.421  1.00  0.00    -0.056 A 
HETATM   16  C8  UNL     1      18.567  26.349  12.051  1.00  0.00     0.007 A 
HETATM   17  C9  UNL     1      18.364  25.939  10.756  1.00  0.00     0.001 A 
HETATM   18  C10 UNL     1      18.166  26.868   9.757  1.00  0.00     0.000 A 
HETATM   19  C11 UNL     1      18.177  28.194  10.090  1.00  0.00     0.001 A 
HETATM   20  C12 UNL     1      18.384  28.587  11.403  1.00  0.00     0.007 A 
ENDBRANCH  14  15
ENDBRANCH   2  14
ENDBRANCH   1   2
BRANCH   1  21
HETATM   21  O2  UNL     1      20.229  28.320  16.363  1.00  0.00    -0.388 OA
ATOM     22  H2  UNL     1      19.489  28.278  16.958  1.00  0.00     0.210 HD
ENDBRANCH   1  21
BRANCH   1  23
HETATM   23  C14 UNL     1      18.933  30.241  15.848  1.00  0.00     0.110 C 
BRANCH  23  24
HETATM   24  N2  UNL     1      19.124  31.543  15.396  1.00  0.00    -0.279 N 
BRANCH  24  25
HETATM   25  C15 UNL     1      20.512  31.823  15.090  1.00  0.00     0.186 C 
BRANCH  25  26
HETATM   26  C16 UNL     1      21.083  32.682  16.189  1.00  0.00     0.001 A 
HETATM   27  C17 UNL     1      22.096  32.394  17.060  1.00  0.00     0.017 A 
HETATM   28  C18 UNL     1      22.426  33.329  17.959  1.00  0.00     0.008 A 
HETATM   29  C19 UNL     1      21.717  34.503  17.930  1.00  0.00     0.050 A 
HETATM   30  S1  UNL     1      20.619  34.255  16.650  1.00  0.00    -0.105 SA
ENDBRANCH  25  26
ENDBRANCH  24  25
BRANCH  24  31
HETATM   31  S2  UNL     1      18.008  32.472  14.618  1.00  0.00     0.267 S 
HETATM   32  O3  UNL     1      17.245  31.594  13.630  1.00  0.00    -0.200 OA
HETATM   33  O4  UNL     1      18.733  33.465  13.703  1.00  0.00    -0.200 OA
BRANCH  31  34
HETATM   34  C20 UNL     1      16.873  33.404  15.536  1.00  0.00     0.121 A 
HETATM   35  C21 UNL     1      16.935  34.802  15.403  1.00  0.00     0.074 A 
HETATM   36  C22 UNL     1      16.091  35.669  16.032  1.00  0.00     0.156 A 
HETATM   37  F1  UNL     1      16.168  37.021  15.890  1.00  0.00    -0.203 F 
HETATM   38  C23 UNL     1      15.122  35.123  16.846  1.00  0.00     0.157 A 
HETATM   39  F2  UNL     1      14.264  35.967  17.487  1.00  0.00    -0.203 F 
HETATM   40  C24 UNL     1      15.040  33.763  16.993  1.00  0.00     0.089 A 
HETATM   41  C25 UNL     1      15.916  32.877  16.340  1.00  0.00     0.142 A 
HETATM   42  F3  UNL     1      15.776  31.548  16.578  1.00  0.00    -0.204 F 
ENDBRANCH  31  34
ENDBRANCH  24  31
ENDBRANCH  23  24
ENDBRANCH   1  23
TORSDOF 13
ENDMDL
