MODEL 1
REMARK VINA RESULT: -9.683704049      0.000      0.000
REMARK  13 active torsions:
REMARK  status: ('A' for Active; 'I' for Inactive)
REMARK    1  A    between atoms: C2_2  and  C26_39 
REMARK    2  A    between atoms: C3_3  and  C4_4 
REMARK       I    between atoms: C4_4  and  N1_6 
REMARK    3  A    between atoms: N1_6  and  C5_8 
REMARK    4  A    between atoms: C5_8  and  C6_9 
REMARK    5  A    between atoms: C5_8  and  C13_16 
REMARK    6  A    between atoms: C6_9  and  C7_10 
REMARK    7  A    between atoms: C13_16  and  O2_17 
REMARK    8  A    between atoms: C13_16  and  C14_19 
REMARK    9  A    between atoms: C14_19  and  N2_20 
REMARK   10  A    between atoms: N2_20  and  C15_21 
REMARK   11  A    between atoms: N2_20  and  S2_27 
REMARK   12  A    between atoms: C15_21  and  C16_22 
REMARK   13  A    between atoms: S2_27  and  C20_30 
ROOT
HETATM    1  C13 UNL     1      19.360  30.991  16.433  1.00  0.00     0.180 C 
ENDROOT
BRANCH   1   2
HETATM    2  C5  UNL     1      17.973  31.333  16.038  1.00  0.00     0.122 C 
BRANCH   2   3
HETATM    3  N1  UNL     1      17.480  32.548  16.679  1.00  0.00    -0.350 N 
HETATM    4  C4  UNL     1      16.101  32.846  16.838  1.00  0.00     0.242 C 
HETATM    5  O1  UNL     1      15.275  32.026  16.408  1.00  0.00    -0.269 OA
ATOM      6  H1  UNL     1      18.162  33.219  17.030  1.00  0.00     0.163 HD
BRANCH   4   7
HETATM    7  C3  UNL     1      15.634  34.066  17.481  1.00  0.00     0.085 C 
HETATM    8  C2  UNL     1      15.591  35.240  16.890  1.00  0.00     0.027 C 
HETATM    9  C1  UNL     1      16.031  35.365  15.499  1.00  0.00     0.053 C 
BRANCH   8  10
HETATM   10  C26 UNL     1      15.089  36.421  17.656  1.00  0.00     0.413 C 
HETATM   11  F4  UNL     1      13.707  36.482  17.578  1.00  0.00    -0.166 F 
HETATM   12  F5  UNL     1      15.469  36.271  18.995  1.00  0.00    -0.166 F 
HETATM   13  F6  UNL     1      15.594  37.602  17.197  1.00  0.00    -0.166 F 
ENDBRANCH   8  10
ENDBRANCH   4   7
ENDBRANCH   2   3
BRANCH   2  14
HETATM   14  C6  UNL     1      17.800  31.509  14.568  1.00  0.00     0.066 C 
BRANCH  14  15
HETATM   15  C7  UNL     1      17.921  30.270  13.771  1.00  0.00    -0.056 A 
HETATM   16  C8  UNL     1      17.481  30.279  12.442  1.00  0.00     0.007 A 
HETATM   17  C9  UNL     1      17.545  29.171  11.634  1.00  0.00     0.001 A 
HETATM   18  C10 UNL     1      18.058  27.987  12.120  1.00  0.00     0.000 A 
HETATM   19  C11 UNL     1      18.496  27.949  13.414  1.00  0.00     0.001 A 
HETATM   20  C12 UNL     1      18.422  29.079  14.214  1.00  0.00     0.007 A 
ENDBRANCH  14  15
ENDBRANCH   2  14
ENDBRANCH   1   2
BRANCH   1  21
HETATM   21  O2  UNL     1      19.399  30.185  17.530  1.00  0.00    -0.388 OA
ATOM     22  H2  UNL     1      19.915  30.561  18.233  1.00  0.00     0.210 HD
ENDBRANCH   1  21
BRANCH   1  23
HETATM   23  C14 UNL     1      20.153  32.271  16.684  1.00  0.00     0.110 C 
BRANCH  23  24
HETATM   24  N2  UNL     1      20.671  32.774  15.495  1.00  0.00    -0.279 N 
BRANCH  24  25
HETATM   25  C15 UNL     1      20.313  34.161  15.280  1.00  0.00     0.186 C 
BRANCH  25  26
HETATM   26  C16 UNL     1      20.540  34.921  16.562  1.00  0.00     0.001 A 
HETATM   27  C17 UNL     1      21.718  35.186  17.202  1.00  0.00     0.017 A 
HETATM   28  C18 UNL     1      21.661  35.886  18.340  1.00  0.00     0.008 A 
HETATM   29  C19 UNL     1      20.420  36.282  18.771  1.00  0.00     0.050 A 
HETATM   30  S1  UNL     1      19.383  35.660  17.570  1.00  0.00    -0.105 SA
ENDBRANCH  25  26
ENDBRANCH  24  25
BRANCH  24  31
HETATM   31  S2  UNL     1      22.035  32.250  14.733  1.00  0.00     0.267 S 
HETATM   32  O3  UNL     1      23.042  31.803  15.789  1.00  0.00    -0.200 OA
HETATM   33  O4  UNL     1      22.733  33.446  14.079  1.00  0.00    -0.200 OA
BRANCH  31  34
HETATM   34  C20 UNL     1      21.922  31.030  13.510  1.00  0.00     0.121 A 
HETATM   35  C21 UNL     1      22.727  29.888  13.667  1.00  0.00     0.074 A 
HETATM   36  C22 UNL     1      22.727  28.827  12.810  1.00  0.00     0.156 A 
HETATM   37  F1  UNL     1      23.515  27.731  12.980  1.00  0.00    -0.203 F 
HETATM   38  C23 UNL     1      21.878  28.895  11.727  1.00  0.00     0.157 A 
HETATM   39  F2  UNL     1      21.857  27.847  10.854  1.00  0.00    -0.203 F 
HETATM   40  C24 UNL     1      21.082  29.996  11.550  1.00  0.00     0.089 A 
HETATM   41  C25 UNL     1      21.090  31.086  12.440  1.00  0.00     0.142 A 
HETATM   42  F3  UNL     1      20.291  32.146  12.158  1.00  0.00    -0.204 F 
ENDBRANCH  31  34
ENDBRANCH  24  31
ENDBRANCH  23  24
ENDBRANCH   1  23
TORSDOF 13
ENDMDL
