MODEL 3
REMARK VINA RESULT: -9.462700083      3.717      7.988
REMARK  13 active torsions:
REMARK  status: ('A' for Active; 'I' for Inactive)
REMARK    1  A    between atoms: C2_2  and  C26_39 
REMARK    2  A    between atoms: C3_3  and  C4_4 
REMARK       I    between atoms: C4_4  and  N1_6 
REMARK    3  A    between atoms: N1_6  and  C5_8 
REMARK    4  A    between atoms: C5_8  and  C6_9 
REMARK    5  A    between atoms: C5_8  and  C13_16 
REMARK    6  A    between atoms: C6_9  and  C7_10 
REMARK    7  A    between atoms: C13_16  and  O2_17 
REMARK    8  A    between atoms: C13_16  and  C14_19 
REMARK    9  A    between atoms: C14_19  and  N2_20 
REMARK   10  A    between atoms: N2_20  and  C15_21 
REMARK   11  A    between atoms: N2_20  and  S2_27 
REMARK   12  A    between atoms: C15_21  and  C16_22 
REMARK   13  A    between atoms: S2_27  and  C20_30 
ROOT
HETATM    1  C13 UNL     1      18.431  28.477  11.626  1.00  0.00     0.180 C 
ENDROOT
BRANCH   1   2
HETATM    2  C5  UNL     1      19.065  27.181  11.287  1.00  0.00     0.122 C 
BRANCH   2   3
HETATM    3  N1  UNL     1      20.477  27.123  11.650  1.00  0.00    -0.350 N 
HETATM    4  C4  UNL     1      21.461  26.462  10.870  1.00  0.00     0.242 C 
HETATM    5  O1  UNL     1      21.097  25.905   9.823  1.00  0.00    -0.269 OA
ATOM      6  H1  UNL     1      20.772  27.581  12.512  1.00  0.00     0.163 HD
BRANCH   4   7
HETATM    7  C3  UNL     1      22.865  26.418  11.254  1.00  0.00     0.085 C 
HETATM    8  C2  UNL     1      23.707  27.416  11.085  1.00  0.00     0.027 C 
HETATM    9  C1  UNL     1      23.236  28.662  10.477  1.00  0.00     0.053 C 
BRANCH   8  10
HETATM   10  C26 UNL     1      25.126  27.250  11.523  1.00  0.00     0.413 C 
HETATM   11  F4  UNL     1      25.599  28.440  12.052  1.00  0.00    -0.166 F 
HETATM   12  F5  UNL     1      25.170  26.258  12.509  1.00  0.00    -0.166 F 
HETATM   13  F6  UNL     1      25.953  26.880  10.504  1.00  0.00    -0.166 F 
ENDBRANCH   8  10
ENDBRANCH   4   7
ENDBRANCH   2   3
BRANCH   2  14
HETATM   14  C6  UNL     1      18.398  26.008  11.922  1.00  0.00     0.066 C 
BRANCH  14  15
HETATM   15  C7  UNL     1      17.760  25.065  10.980  1.00  0.00    -0.056 A 
HETATM   16  C8  UNL     1      17.617  25.446   9.640  1.00  0.00     0.007 A 
HETATM   17  C9  UNL     1      17.026  24.637   8.701  1.00  0.00     0.001 A 
HETATM   18  C10 UNL     1      16.543  23.396   9.058  1.00  0.00     0.000 A 
HETATM   19  C11 UNL     1      16.669  22.999  10.360  1.00  0.00     0.001 A 
HETATM   20  C12 UNL     1      17.268  23.829  11.293  1.00  0.00     0.007 A 
ENDBRANCH  14  15
ENDBRANCH   2  14
ENDBRANCH   1   2
BRANCH   1  21
HETATM   21  O2  UNL     1      17.636  28.938  10.622  1.00  0.00    -0.388 OA
ATOM     22  H2  UNL     1      16.720  28.730  10.765  1.00  0.00     0.210 HD
ENDBRANCH   1  21
BRANCH   1  23
HETATM   23  C14 UNL     1      19.508  29.501  11.968  1.00  0.00     0.110 C 
BRANCH  23  24
HETATM   24  N2  UNL     1      19.447  29.855  13.312  1.00  0.00    -0.279 N 
BRANCH  24  25
HETATM   25  C15 UNL     1      18.085  29.976  13.789  1.00  0.00     0.186 C 
BRANCH  25  26
HETATM   26  C16 UNL     1      17.902  31.353  14.377  1.00  0.00     0.001 A 
HETATM   27  C17 UNL     1      18.422  32.541  13.950  1.00  0.00     0.017 A 
HETATM   28  C18 UNL     1      18.112  33.640  14.647  1.00  0.00     0.008 A 
HETATM   29  C19 UNL     1      17.294  33.480  15.737  1.00  0.00     0.050 A 
HETATM   30  S1  UNL     1      16.990  31.803  15.744  1.00  0.00    -0.105 SA
ENDBRANCH  25  26
ENDBRANCH  24  25
BRANCH  24  31
HETATM   31  S2  UNL     1      20.589  29.528  14.453  1.00  0.00     0.267 S 
HETATM   32  O3  UNL     1      21.634  28.596  13.845  1.00  0.00    -0.200 OA
HETATM   33  O4  UNL     1      19.964  28.667  15.556  1.00  0.00    -0.200 OA
BRANCH  31  34
HETATM   34  C20 UNL     1      21.397  30.831  15.259  1.00  0.00     0.121 A 
HETATM   35  C21 UNL     1      22.559  31.338  14.652  1.00  0.00     0.074 A 
HETATM   36  C22 UNL     1      23.287  32.381  15.142  1.00  0.00     0.156 A 
HETATM   37  F1  UNL     1      24.411  32.857  14.539  1.00  0.00    -0.203 F 
HETATM   38  C23 UNL     1      22.841  32.964  16.309  1.00  0.00     0.157 A 
HETATM   39  F2  UNL     1      23.550  34.010  16.823  1.00  0.00    -0.203 F 
HETATM   40  C24 UNL     1      21.711  32.489  16.921  1.00  0.00     0.089 A 
HETATM   41  C25 UNL     1      20.967  31.411  16.407  1.00  0.00     0.142 A 
HETATM   42  F3  UNL     1      19.882  30.992  17.106  1.00  0.00    -0.204 F 
ENDBRANCH  31  34
ENDBRANCH  24  31
ENDBRANCH  23  24
ENDBRANCH   1  23
TORSDOF 13
ENDMDL
