MODEL 10
REMARK VINA RESULT: -9.120473263      2.712      8.253
REMARK  13 active torsions:
REMARK  status: ('A' for Active; 'I' for Inactive)
REMARK    1  A    between atoms: C2_2  and  C26_39 
REMARK    2  A    between atoms: C3_3  and  C4_4 
REMARK       I    between atoms: C4_4  and  N1_6 
REMARK    3  A    between atoms: N1_6  and  C5_8 
REMARK    4  A    between atoms: C5_8  and  C6_9 
REMARK    5  A    between atoms: C5_8  and  C13_16 
REMARK    6  A    between atoms: C6_9  and  C7_10 
REMARK    7  A    between atoms: C13_16  and  O2_17 
REMARK    8  A    between atoms: C13_16  and  C14_19 
REMARK    9  A    between atoms: C14_19  and  N2_20 
REMARK   10  A    between atoms: N2_20  and  C15_21 
REMARK   11  A    between atoms: N2_20  and  S2_27 
REMARK   12  A    between atoms: C15_21  and  C16_22 
REMARK   13  A    between atoms: S2_27  and  C20_30 
ROOT
HETATM    1  C13 UNL     1      19.186  28.705  14.608  1.00  0.00     0.180 C 
ENDROOT
BRANCH   1   2
HETATM    2  C5  UNL     1      19.392  28.237  13.216  1.00  0.00     0.122 C 
BRANCH   2   3
HETATM    3  N1  UNL     1      20.714  27.659  12.997  1.00  0.00    -0.350 N 
HETATM    4  C4  UNL     1      21.719  28.277  12.208  1.00  0.00     0.242 C 
HETATM    5  O1  UNL     1      21.456  29.368  11.679  1.00  0.00    -0.269 OA
ATOM      6  H1  UNL     1      20.926  26.763  13.434  1.00  0.00     0.163 HD
BRANCH   4   7
HETATM    7  C3  UNL     1      23.031  27.679  12.005  1.00  0.00     0.085 C 
HETATM    8  C2  UNL     1      23.293  26.770  11.091  1.00  0.00     0.027 C 
HETATM    9  C1  UNL     1      22.222  26.308  10.204  1.00  0.00     0.053 C 
BRANCH   8  10
HETATM   10  C26 UNL     1      24.682  26.231  10.979  1.00  0.00     0.413 C 
HETATM   11  F4  UNL     1      25.395  26.518  12.132  1.00  0.00    -0.166 F 
HETATM   12  F5  UNL     1      24.605  24.843  10.819  1.00  0.00    -0.166 F 
HETATM   13  F6  UNL     1      25.365  26.748   9.917  1.00  0.00    -0.166 F 
ENDBRANCH   8  10
ENDBRANCH   4   7
ENDBRANCH   2   3
BRANCH   2  14
HETATM   14  C6  UNL     1      18.390  27.226  12.774  1.00  0.00     0.066 C 
BRANCH  14  15
HETATM   15  C7  UNL     1      18.407  26.917  11.329  1.00  0.00    -0.056 A 
HETATM   16  C8  UNL     1      18.233  27.963  10.415  1.00  0.00     0.007 A 
HETATM   17  C9  UNL     1      18.224  27.765   9.057  1.00  0.00     0.001 A 
HETATM   18  C10 UNL     1      18.390  26.498   8.539  1.00  0.00     0.000 A 
HETATM   19  C11 UNL     1      18.563  25.457   9.408  1.00  0.00     0.001 A 
HETATM   20  C12 UNL     1      18.569  25.678  10.777  1.00  0.00     0.007 A 
ENDBRANCH  14  15
ENDBRANCH   2  14
ENDBRANCH   1   2
BRANCH   1  21
HETATM   21  O2  UNL     1      17.867  28.771  14.937  1.00  0.00    -0.388 OA
ATOM     22  H2  UNL     1      17.338  28.172  14.423  1.00  0.00     0.210 HD
ENDBRANCH   1  21
BRANCH   1  23
HETATM   23  C14 UNL     1      19.851  30.065  14.796  1.00  0.00     0.110 C 
BRANCH  23  24
HETATM   24  N2  UNL     1      18.968  30.973  15.370  1.00  0.00    -0.279 N 
BRANCH  24  25
HETATM   25  C15 UNL     1      19.317  31.293  16.739  1.00  0.00     0.186 C 
BRANCH  25  26
HETATM   26  C16 UNL     1      20.441  32.298  16.727  1.00  0.00     0.001 A 
HETATM   27  C17 UNL     1      21.768  32.094  16.471  1.00  0.00     0.017 A 
HETATM   28  C18 UNL     1      22.580  33.156  16.522  1.00  0.00     0.008 A 
HETATM   29  C19 UNL     1      22.010  34.366  16.830  1.00  0.00     0.050 A 
HETATM   30  S1  UNL     1      20.364  33.972  17.034  1.00  0.00    -0.105 SA
ENDBRANCH  25  26
ENDBRANCH  24  25
BRANCH  24  31
HETATM   31  S2  UNL     1      18.081  32.105  14.565  1.00  0.00     0.267 S 
HETATM   32  O3  UNL     1      17.348  31.421  13.414  1.00  0.00    -0.200 OA
HETATM   33  O4  UNL     1      19.031  33.065  13.842  1.00  0.00    -0.200 OA
BRANCH  31  34
HETATM   34  C20 UNL     1      16.962  33.099  15.436  1.00  0.00     0.121 A 
HETATM   35  C21 UNL     1      16.992  34.479  15.174  1.00  0.00     0.074 A 
HETATM   36  C22 UNL     1      16.155  35.387  15.751  1.00  0.00     0.156 A 
HETATM   37  F1  UNL     1      16.201  36.721  15.485  1.00  0.00    -0.203 F 
HETATM   38  C23 UNL     1      15.224  34.903  16.646  1.00  0.00     0.157 A 
HETATM   39  F2  UNL     1      14.373  35.789  17.238  1.00  0.00    -0.203 F 
HETATM   40  C24 UNL     1      15.173  33.561  16.919  1.00  0.00     0.089 A 
HETATM   41  C25 UNL     1      16.043  32.633  16.318  1.00  0.00     0.142 A 
HETATM   42  F3  UNL     1      15.936  31.330  16.681  1.00  0.00    -0.204 F 
ENDBRANCH  31  34
ENDBRANCH  24  31
ENDBRANCH  23  24
ENDBRANCH   1  23
TORSDOF 13
ENDMDL
