MODEL 6
REMARK VINA RESULT: -9.255764414      2.230      7.881
REMARK  13 active torsions:
REMARK  status: ('A' for Active; 'I' for Inactive)
REMARK    1  A    between atoms: C2_2  and  C26_39 
REMARK    2  A    between atoms: C3_3  and  C4_4 
REMARK       I    between atoms: C4_4  and  N1_6 
REMARK    3  A    between atoms: N1_6  and  C5_8 
REMARK    4  A    between atoms: C5_8  and  C6_9 
REMARK    5  A    between atoms: C5_8  and  C13_16 
REMARK    6  A    between atoms: C6_9  and  C7_10 
REMARK    7  A    between atoms: C13_16  and  O2_17 
REMARK    8  A    between atoms: C13_16  and  C14_19 
REMARK    9  A    between atoms: C14_19  and  N2_20 
REMARK   10  A    between atoms: N2_20  and  C15_21 
REMARK   11  A    between atoms: N2_20  and  S2_27 
REMARK   12  A    between atoms: C15_21  and  C16_22 
REMARK   13  A    between atoms: S2_27  and  C20_30 
ROOT
HETATM    1  C13 UNL     1      18.876  30.179  15.128  1.00  0.00     0.180 C 
ENDROOT
BRANCH   1   2
HETATM    2  C5  UNL     1      19.081  29.488  13.832  1.00  0.00     0.122 C 
BRANCH   2   3
HETATM    3  N1  UNL     1      20.440  28.987  13.659  1.00  0.00    -0.350 N 
HETATM    4  C4  UNL     1      21.348  29.498  12.696  1.00  0.00     0.242 C 
HETATM    5  O1  UNL     1      20.961  30.421  11.963  1.00  0.00    -0.269 OA
ATOM      6  H1  UNL     1      20.754  28.228  14.264  1.00  0.00     0.163 HD
BRANCH   4   7
HETATM    7  C3  UNL     1      22.700  28.980  12.544  1.00  0.00     0.085 C 
HETATM    8  C2  UNL     1      23.013  27.945  11.793  1.00  0.00     0.027 C 
HETATM    9  C1  UNL     1      21.961  27.249  11.050  1.00  0.00     0.053 C 
BRANCH   8  10
HETATM   10  C26 UNL     1      24.440  27.508  11.717  1.00  0.00     0.413 C 
HETATM   11  F4  UNL     1      24.837  27.421  10.393  1.00  0.00    -0.166 F 
HETATM   12  F5  UNL     1      25.229  28.461  12.373  1.00  0.00    -0.166 F 
HETATM   13  F6  UNL     1      24.653  26.296  12.305  1.00  0.00    -0.166 F 
ENDBRANCH   8  10
ENDBRANCH   4   7
ENDBRANCH   2   3
BRANCH   2  14
HETATM   14  C6  UNL     1      18.156  28.338  13.618  1.00  0.00     0.066 C 
BRANCH  14  15
HETATM   15  C7  UNL     1      18.210  27.734  12.271  1.00  0.00    -0.056 A 
HETATM   16  C8  UNL     1      18.022  28.558  11.156  1.00  0.00     0.007 A 
HETATM   17  C9  UNL     1      18.044  28.079   9.869  1.00  0.00     0.001 A 
HETATM   18  C10 UNL     1      18.257  26.737   9.632  1.00  0.00     0.000 A 
HETATM   19  C11 UNL     1      18.444  25.909  10.703  1.00  0.00     0.001 A 
HETATM   20  C12 UNL     1      18.418  26.412  11.994  1.00  0.00     0.007 A 
ENDBRANCH  14  15
ENDBRANCH   2  14
ENDBRANCH   1   2
BRANCH   1  21
HETATM   21  O2  UNL     1      17.623  29.980  15.623  1.00  0.00    -0.388 OA
ATOM     22  H2  UNL     1      17.620  29.905  16.570  1.00  0.00     0.210 HD
ENDBRANCH   1  21
BRANCH   1  23
HETATM   23  C14 UNL     1      19.155  31.670  14.964  1.00  0.00     0.110 C 
BRANCH  23  24
HETATM   24  N2  UNL     1      19.457  32.255  16.190  1.00  0.00    -0.279 N 
BRANCH  24  25
HETATM   25  C15 UNL     1      20.543  31.580  16.870  1.00  0.00     0.186 C 
BRANCH  25  26
HETATM   26  C16 UNL     1      21.848  32.056  16.285  1.00  0.00     0.001 A 
HETATM   27  C17 UNL     1      22.404  31.751  15.074  1.00  0.00     0.017 A 
HETATM   28  C18 UNL     1      23.586  32.304  14.778  1.00  0.00     0.008 A 
HETATM   29  C19 UNL     1      24.143  33.133  15.719  1.00  0.00     0.050 A 
HETATM   30  S1  UNL     1      22.994  33.109  16.978  1.00  0.00    -0.105 SA
ENDBRANCH  25  26
ENDBRANCH  24  25
BRANCH  24  31
HETATM   31  S2  UNL     1      19.215  33.833  16.597  1.00  0.00     0.267 S 
HETATM   32  O3  UNL     1      20.025  34.711  15.647  1.00  0.00    -0.200 OA
HETATM   33  O4  UNL     1      19.869  34.105  17.956  1.00  0.00    -0.200 OA
BRANCH  31  34
HETATM   34  C20 UNL     1      17.603  34.456  16.704  1.00  0.00     0.121 A 
HETATM   35  C21 UNL     1      17.120  34.767  17.987  1.00  0.00     0.074 A 
HETATM   36  C22 UNL     1      15.888  35.296  18.235  1.00  0.00     0.156 A 
HETATM   37  F1  UNL     1      15.439  35.589  19.486  1.00  0.00    -0.203 F 
HETATM   38  C23 UNL     1      15.077  35.535  17.146  1.00  0.00     0.157 A 
HETATM   39  F2  UNL     1      13.840  36.064  17.364  1.00  0.00    -0.203 F 
HETATM   40  C24 UNL     1      15.524  35.241  15.884  1.00  0.00     0.089 A 
HETATM   41  C25 UNL     1      16.797  34.694  15.640  1.00  0.00     0.142 A 
HETATM   42  F3  UNL     1      17.133  34.406  14.357  1.00  0.00    -0.204 F 
ENDBRANCH  31  34
ENDBRANCH  24  31
ENDBRANCH  23  24
ENDBRANCH   1  23
TORSDOF 13
ENDMDL
