MODEL 2
REMARK VINA RESULT: -9.468768702      1.880      7.859
REMARK  13 active torsions:
REMARK  status: ('A' for Active; 'I' for Inactive)
REMARK    1  A    between atoms: C2_2  and  C26_39 
REMARK    2  A    between atoms: C3_3  and  C4_4 
REMARK       I    between atoms: C4_4  and  N1_6 
REMARK    3  A    between atoms: N1_6  and  C5_8 
REMARK    4  A    between atoms: C5_8  and  C6_9 
REMARK    5  A    between atoms: C5_8  and  C13_16 
REMARK    6  A    between atoms: C6_9  and  C7_10 
REMARK    7  A    between atoms: C13_16  and  O2_17 
REMARK    8  A    between atoms: C13_16  and  C14_19 
REMARK    9  A    between atoms: C14_19  and  N2_20 
REMARK   10  A    between atoms: N2_20  and  C15_21 
REMARK   11  A    between atoms: N2_20  and  S2_27 
REMARK   12  A    between atoms: C15_21  and  C16_22 
REMARK   13  A    between atoms: S2_27  and  C20_30 
ROOT
HETATM    1  C13 UNL     1      19.876  30.553  16.346  1.00  0.00     0.180 C 
ENDROOT
BRANCH   1   2
HETATM    2  C5  UNL     1      19.704  30.141  14.932  1.00  0.00     0.122 C 
BRANCH   2   3
HETATM    3  N1  UNL     1      20.811  29.333  14.433  1.00  0.00    -0.350 N 
HETATM    4  C4  UNL     1      21.912  29.869  13.716  1.00  0.00     0.242 C 
HETATM    5  O1  UNL     1      21.930  31.091  13.504  1.00  0.00    -0.269 OA
ATOM      6  H1  UNL     1      20.793  28.329  14.609  1.00  0.00     0.163 HD
BRANCH   4   7
HETATM    7  C3  UNL     1      23.006  29.040  13.228  1.00  0.00     0.085 C 
HETATM    8  C2  UNL     1      23.001  28.423  12.066  1.00  0.00     0.027 C 
HETATM    9  C1  UNL     1      21.841  28.557  11.183  1.00  0.00     0.053 C 
BRANCH   8  10
HETATM   10  C26 UNL     1      24.185  27.601  11.676  1.00  0.00     0.413 C 
HETATM   11  F4  UNL     1      25.270  27.924  12.475  1.00  0.00    -0.166 F 
HETATM   12  F5  UNL     1      23.865  26.251  11.860  1.00  0.00    -0.166 F 
HETATM   13  F6  UNL     1      24.548  27.782  10.374  1.00  0.00    -0.166 F 
ENDBRANCH   8  10
ENDBRANCH   4   7
ENDBRANCH   2   3
BRANCH   2  14
HETATM   14  C6  UNL     1      18.450  29.372  14.686  1.00  0.00     0.066 C 
BRANCH  14  15
HETATM   15  C7  UNL     1      18.330  28.787  13.334  1.00  0.00    -0.056 A 
HETATM   16  C8  UNL     1      17.884  29.601  12.286  1.00  0.00     0.007 A 
HETATM   17  C9  UNL     1      17.732  29.137  11.002  1.00  0.00     0.001 A 
HETATM   18  C10 UNL     1      18.022  27.823  10.700  1.00  0.00     0.000 A 
HETATM   19  C11 UNL     1      18.460  27.006  11.704  1.00  0.00     0.001 A 
HETATM   20  C12 UNL     1      18.606  27.493  12.994  1.00  0.00     0.007 A 
ENDBRANCH  14  15
ENDBRANCH   2  14
ENDBRANCH   1   2
BRANCH   1  21
HETATM   21  O2  UNL     1      20.166  29.498  17.157  1.00  0.00    -0.388 OA
ATOM     22  H2  UNL     1      19.411  29.213  17.658  1.00  0.00     0.210 HD
ENDBRANCH   1  21
BRANCH   1  23
HETATM   23  C14 UNL     1      18.616  31.266  16.829  1.00  0.00     0.110 C 
BRANCH  23  24
HETATM   24  N2  UNL     1      18.639  32.610  16.470  1.00  0.00    -0.279 N 
BRANCH  24  25
HETATM   25  C15 UNL     1      19.987  33.120  16.328  1.00  0.00     0.186 C 
BRANCH  25  26
HETATM   26  C16 UNL     1      20.087  34.427  17.074  1.00  0.00     0.001 A 
HETATM   27  C17 UNL     1      20.720  35.579  16.700  1.00  0.00     0.017 A 
HETATM   28  C18 UNL     1      20.670  36.616  17.542  1.00  0.00     0.008 A 
HETATM   29  C19 UNL     1      19.983  36.436  18.717  1.00  0.00     0.050 A 
HETATM   30  S1  UNL     1      19.436  34.827  18.597  1.00  0.00    -0.105 SA
ENDBRANCH  25  26
ENDBRANCH  24  25
BRANCH  24  31
HETATM   31  S2  UNL     1      17.469  33.408  15.628  1.00  0.00     0.267 S 
HETATM   32  O3  UNL     1      16.633  32.385  14.864  1.00  0.00    -0.200 OA
HETATM   33  O4  UNL     1      18.125  34.220  14.506  1.00  0.00    -0.200 OA
BRANCH  31  34
HETATM   34  C20 UNL     1      16.408  34.499  16.454  1.00  0.00     0.121 A 
HETATM   35  C21 UNL     1      16.677  35.873  16.330  1.00  0.00     0.074 A 
HETATM   36  C22 UNL     1      15.916  36.856  16.890  1.00  0.00     0.156 A 
HETATM   37  F1  UNL     1      16.195  38.182  16.759  1.00  0.00    -0.203 F 
HETATM   38  C23 UNL     1      14.817  36.460  17.622  1.00  0.00     0.157 A 
HETATM   39  F2  UNL     1      14.038  37.422  18.193  1.00  0.00    -0.203 F 
HETATM   40  C24 UNL     1      14.532  35.126  17.758  1.00  0.00     0.089 A 
HETATM   41  C25 UNL     1      15.324  34.119  17.176  1.00  0.00     0.142 A 
HETATM   42  F3  UNL     1      14.978  32.826  17.399  1.00  0.00    -0.204 F 
ENDBRANCH  31  34
ENDBRANCH  24  31
ENDBRANCH  23  24
ENDBRANCH   1  23
TORSDOF 13
ENDMDL
