MODEL 7
REMARK VINA RESULT: -9.216759831      2.754      7.391
REMARK  13 active torsions:
REMARK  status: ('A' for Active; 'I' for Inactive)
REMARK    1  A    between atoms: C2_2  and  C26_39 
REMARK    2  A    between atoms: C3_3  and  C4_4 
REMARK       I    between atoms: C4_4  and  N1_6 
REMARK    3  A    between atoms: N1_6  and  C5_8 
REMARK    4  A    between atoms: C5_8  and  C6_9 
REMARK    5  A    between atoms: C5_8  and  C13_16 
REMARK    6  A    between atoms: C6_9  and  C7_10 
REMARK    7  A    between atoms: C13_16  and  O2_17 
REMARK    8  A    between atoms: C13_16  and  C14_19 
REMARK    9  A    between atoms: C14_19  and  N2_20 
REMARK   10  A    between atoms: N2_20  and  C15_21 
REMARK   11  A    between atoms: N2_20  and  S2_27 
REMARK   12  A    between atoms: C15_21  and  C16_22 
REMARK   13  A    between atoms: S2_27  and  C20_30 
ROOT
HETATM    1  C13 UNL     1      19.426  29.576  14.818  1.00  0.00     0.180 C 
ENDROOT
BRANCH   1   2
HETATM    2  C5  UNL     1      19.548  28.882  13.514  1.00  0.00     0.122 C 
BRANCH   2   3
HETATM    3  N1  UNL     1      20.846  28.243  13.326  1.00  0.00    -0.350 N 
HETATM    4  C4  UNL     1      21.860  28.759  12.478  1.00  0.00     0.242 C 
HETATM    5  O1  UNL     1      21.625  29.812  11.865  1.00  0.00    -0.269 OA
ATOM      6  H1  UNL     1      21.035  27.377  13.831  1.00  0.00     0.163 HD
BRANCH   4   7
HETATM    7  C3  UNL     1      23.147  28.102  12.307  1.00  0.00     0.085 C 
HETATM    8  C2  UNL     1      23.360  27.101  11.479  1.00  0.00     0.027 C 
HETATM    9  C1  UNL     1      22.256  26.593  10.662  1.00  0.00     0.053 C 
BRANCH   8  10
HETATM   10  C26 UNL     1      24.729  26.509  11.392  1.00  0.00     0.413 C 
HETATM   11  F4  UNL     1      25.373  26.626  12.613  1.00  0.00    -0.166 F 
HETATM   12  F5  UNL     1      24.603  25.153  11.067  1.00  0.00    -0.166 F 
HETATM   13  F6  UNL     1      25.504  27.108  10.443  1.00  0.00    -0.166 F 
ENDBRANCH   8  10
ENDBRANCH   4   7
ENDBRANCH   2   3
BRANCH   2  14
HETATM   14  C6  UNL     1      18.507  27.838  13.297  1.00  0.00     0.066 C 
BRANCH  14  15
HETATM   15  C7  UNL     1      18.417  27.322  11.915  1.00  0.00    -0.056 A 
HETATM   16  C8  UNL     1      18.293  28.236  10.862  1.00  0.00     0.007 A 
HETATM   17  C9  UNL     1      18.192  27.843   9.550  1.00  0.00     0.001 A 
HETATM   18  C10 UNL     1      18.209  26.504   9.223  1.00  0.00     0.000 A 
HETATM   19  C11 UNL     1      18.329  25.589  10.231  1.00  0.00     0.001 A 
HETATM   20  C12 UNL     1      18.429  26.005  11.549  1.00  0.00     0.007 A 
ENDBRANCH  14  15
ENDBRANCH   2  14
ENDBRANCH   1   2
BRANCH   1  21
HETATM   21  O2  UNL     1      19.571  28.723  15.870  1.00  0.00    -0.388 OA
ATOM     22  H2  UNL     1      19.670  29.185  16.695  1.00  0.00     0.210 HD
ENDBRANCH   1  21
BRANCH   1  23
HETATM   23  C14 UNL     1      18.080  30.291  14.894  1.00  0.00     0.110 C 
BRANCH  23  24
HETATM   24  N2  UNL     1      18.248  31.626  15.247  1.00  0.00    -0.279 N 
BRANCH  24  25
HETATM   25  C15 UNL     1      17.959  31.869  16.645  1.00  0.00     0.186 C 
BRANCH  25  26
HETATM   26  C16 UNL     1      16.943  32.979  16.741  1.00  0.00     0.001 A 
HETATM   27  C17 UNL     1      15.782  33.139  16.040  1.00  0.00     0.017 A 
HETATM   28  C18 UNL     1      15.040  34.220  16.306  1.00  0.00     0.008 A 
HETATM   29  C19 UNL     1      15.511  35.082  17.264  1.00  0.00     0.050 A 
HETATM   30  S1  UNL     1      16.968  34.348  17.756  1.00  0.00    -0.105 SA
ENDBRANCH  25  26
ENDBRANCH  24  25
BRANCH  24  31
HETATM   31  S2  UNL     1      19.265  32.700  14.520  1.00  0.00     0.267 S 
HETATM   32  O3  UNL     1      18.558  34.050  14.420  1.00  0.00    -0.200 OA
HETATM   33  O4  UNL     1      19.450  32.302  13.053  1.00  0.00    -0.200 OA
BRANCH  31  34
HETATM   34  C20 UNL     1      20.856  32.944  15.158  1.00  0.00     0.121 A 
HETATM   35  C21 UNL     1      21.920  32.323  14.481  1.00  0.00     0.074 A 
HETATM   36  C22 UNL     1      23.231  32.445  14.837  1.00  0.00     0.156 A 
HETATM   37  F1  UNL     1      24.246  31.834  14.168  1.00  0.00    -0.203 F 
HETATM   38  C23 UNL     1      23.513  33.232  15.933  1.00  0.00     0.157 A 
HETATM   39  F2  UNL     1      24.815  33.373  16.311  1.00  0.00    -0.203 F 
HETATM   40  C24 UNL     1      22.494  33.849  16.611  1.00  0.00     0.089 A 
HETATM   41  C25 UNL     1      21.145  33.716  16.235  1.00  0.00     0.142 A 
HETATM   42  F3  UNL     1      20.206  34.338  16.993  1.00  0.00    -0.204 F 
ENDBRANCH  31  34
ENDBRANCH  24  31
ENDBRANCH  23  24
ENDBRANCH   1  23
TORSDOF 13
ENDMDL
