MODEL 5
REMARK VINA RESULT: -9.835617741      3.480      7.044
REMARK  13 active torsions:
REMARK  status: ('A' for Active; 'I' for Inactive)
REMARK    1  A    between atoms: O1_2  and  C2_3 
REMARK    2  A    between atoms: C6_7  and  S1_8 
REMARK    3  A    between atoms: S1_8  and  N1_11 
REMARK    4  A    between atoms: N1_11  and  C7_12 
REMARK    5  A    between atoms: N1_11  and  C12_18 
REMARK    6  A    between atoms: C7_12  and  C8_13 
REMARK    7  A    between atoms: C12_18  and  C13_19 
REMARK    8  A    between atoms: C13_19  and  O4_20 
REMARK    9  A    between atoms: C13_19  and  C14_22 
REMARK   10  A    between atoms: C14_22  and  C15_23 
REMARK   11  A    between atoms: C14_22  and  N2_30 
REMARK   12  A    between atoms: C15_23  and  C16_24 
REMARK       I    between atoms: N2_30  and  C22_32 
REMARK   13  A    between atoms: C22_32  and  C23_34 
ROOT
HETATM    1  C13 UNL     1      20.327  32.064  13.727  1.00  0.00     0.160 C 
ENDROOT
BRANCH   1   2
HETATM    2  C12 UNL     1      21.288  31.368  14.665  1.00  0.00     0.174 C 
BRANCH   2   3
HETATM    3  N1  UNL     1      22.599  31.415  14.129  1.00  0.00    -0.279 N 
BRANCH   3   4
HETATM    4  S1  UNL     1      23.458  32.846  14.474  1.00  0.00     0.264 S 
HETATM    5  O2  UNL     1      24.907  32.454  14.735  1.00  0.00    -0.200 OA
HETATM    6  O3  UNL     1      23.496  33.691  13.235  1.00  0.00    -0.200 OA
BRANCH   4   7
HETATM    7  C6  UNL     1      22.835  33.742  15.837  1.00  0.00     0.082 A 
HETATM    8  C5  UNL     1      22.772  33.205  17.106  1.00  0.00     0.025 A 
HETATM    9  C4  UNL     1      22.278  33.935  18.178  1.00  0.00     0.004 A 
HETATM   10  C3  UNL     1      21.830  35.224  18.016  1.00  0.00     0.037 A 
HETATM   11  C2  UNL     1      21.886  35.773  16.761  1.00  0.00     0.069 A 
HETATM   12  C30 UNL     1      22.377  35.049  15.697  1.00  0.00     0.061 A 
BRANCH  11  13
HETATM   13  O1  UNL     1      21.450  37.062  16.544  1.00  0.00    -0.356 OA
HETATM   14  C1  UNL     1      20.707  37.877  17.377  1.00  0.00     0.210 C 
ENDBRANCH  11  13
ENDBRANCH   4   7
ENDBRANCH   3   4
BRANCH   3  15
HETATM   15  C7  UNL     1      23.347  30.234  14.136  1.00  0.00     0.122 C 
BRANCH  15  16
HETATM   16  C8  UNL     1      22.928  29.133  13.244  1.00  0.00     0.021 A 
HETATM   17  C9  UNL     1      21.730  28.561  12.948  1.00  0.00     0.021 A 
HETATM   18  C10 UNL     1      21.729  27.547  12.054  1.00  0.00     0.008 A 
HETATM   19  C11 UNL     1      22.932  27.178  11.523  1.00  0.00     0.050 A 
HETATM   20  S2  UNL     1      24.023  28.248  12.280  1.00  0.00    -0.101 SA
ENDBRANCH  15  16
ENDBRANCH   3  15
ENDBRANCH   2   3
ENDBRANCH   1   2
BRANCH   1  21
HETATM   21  O4  UNL     1      20.716  32.078  12.408  1.00  0.00    -0.392 OA
ATOM     22  H4  UNL     1      20.694  32.933  11.995  1.00  0.00     0.210 HD
ENDBRANCH   1  21
BRANCH   1  23
HETATM   23  C14 UNL     1      18.906  31.688  13.947  1.00  0.00     0.119 C 
BRANCH  23  24
HETATM   24  C15 UNL     1      18.168  31.220  12.748  1.00  0.00     0.066 C 
BRANCH  24  25
HETATM   25  C16 UNL     1      18.065  29.746  12.626  1.00  0.00    -0.056 A 
HETATM   26  C17 UNL     1      18.001  29.056  11.440  1.00  0.00     0.007 A 
HETATM   27  C18 UNL     1      17.914  27.678  11.389  1.00  0.00     0.001 A 
HETATM   28  C19 UNL     1      17.888  26.941  12.542  1.00  0.00     0.000 A 
HETATM   29  C20 UNL     1      17.950  27.596  13.737  1.00  0.00     0.001 A 
HETATM   30  C21 UNL     1      18.036  28.966  13.781  1.00  0.00     0.007 A 
ENDBRANCH  24  25
ENDBRANCH  23  24
BRANCH  23  31
HETATM   31  N2  UNL     1      18.264  32.759  14.673  1.00  0.00    -0.349 N 
HETATM   32  C22 UNL     1      18.118  32.741  16.064  1.00  0.00     0.252 C 
HETATM   33  O5  UNL     1      18.568  31.772  16.766  1.00  0.00    -0.268 OA
ATOM     34  H2  UNL     1      17.902  33.557  14.152  1.00  0.00     0.163 HD
BRANCH  32  35
HETATM   35  C23 UNL     1      17.465  33.794  16.828  1.00  0.00     0.041 A 
HETATM   36  C24 UNL     1      18.311  34.562  17.632  1.00  0.00     0.018 A 
HETATM   37  C25 UNL     1      17.846  35.627  18.354  1.00  0.00     0.004 A 
HETATM   38  C26 UNL     1      16.503  35.928  18.266  1.00  0.00     0.043 A 
HETATM   39  C27 UNL     1      15.659  35.182  17.481  1.00  0.00     0.123 A 
HETATM   40  F1  UNL     1      14.350  35.528  17.442  1.00  0.00    -0.206 F 
HETATM   41  C28 UNL     1      16.149  34.096  16.751  1.00  0.00    -0.008 A 
HETATM   42  C29 UNL     1      15.170  33.286  15.963  1.00  0.00     0.052 C 
ENDBRANCH  32  35
ENDBRANCH  23  31
ENDBRANCH   1  23
TORSDOF 13
ENDMDL
