MODEL 3
REMARK VINA RESULT: -9.987157057      0.633      1.227
REMARK  13 active torsions:
REMARK  status: ('A' for Active; 'I' for Inactive)
REMARK    1  A    between atoms: O1_2  and  C2_3 
REMARK    2  A    between atoms: C6_7  and  S1_8 
REMARK    3  A    between atoms: S1_8  and  N1_11 
REMARK    4  A    between atoms: N1_11  and  C7_12 
REMARK    5  A    between atoms: N1_11  and  C12_18 
REMARK    6  A    between atoms: C7_12  and  C8_13 
REMARK    7  A    between atoms: C12_18  and  C13_19 
REMARK    8  A    between atoms: C13_19  and  O4_20 
REMARK    9  A    between atoms: C13_19  and  C14_22 
REMARK   10  A    between atoms: C14_22  and  C15_23 
REMARK   11  A    between atoms: C14_22  and  N2_30 
REMARK   12  A    between atoms: C15_23  and  C16_24 
REMARK       I    between atoms: N2_30  and  C22_32 
REMARK   13  A    between atoms: C22_32  and  C23_34 
ROOT
HETATM    1  C13 UNL     1      20.020  29.554  15.334  1.00  0.00     0.160 C 
ENDROOT
BRANCH   1   2
HETATM    2  C12 UNL     1      19.081  30.600  15.892  1.00  0.00     0.174 C 
BRANCH   2   3
HETATM    3  N1  UNL     1      19.449  31.881  15.408  1.00  0.00    -0.279 N 
BRANCH   3   4
HETATM    4  S1  UNL     1      18.153  32.817  14.818  1.00  0.00     0.264 S 
HETATM    5  O2  UNL     1      18.736  33.842  13.853  1.00  0.00    -0.200 OA
HETATM    6  O3  UNL     1      17.274  31.940  13.976  1.00  0.00    -0.200 OA
BRANCH   4   7
HETATM    7  C6  UNL     1      17.237  33.633  16.060  1.00  0.00     0.082 A 
HETATM    8  C5  UNL     1      15.889  33.412  16.249  1.00  0.00     0.025 A 
HETATM    9  C4  UNL     1      15.179  34.067  17.245  1.00  0.00     0.004 A 
HETATM   10  C3  UNL     1      15.793  34.966  18.084  1.00  0.00     0.037 A 
HETATM   11  C2  UNL     1      17.133  35.197  17.910  1.00  0.00     0.069 A 
HETATM   12  C30 UNL     1      17.838  34.547  16.922  1.00  0.00     0.061 A 
BRANCH  11  13
HETATM   13  O1  UNL     1      17.798  36.089  18.725  1.00  0.00    -0.356 OA
HETATM   14  C1  UNL     1      19.112  36.510  18.657  1.00  0.00     0.210 C 
ENDBRANCH  11  13
ENDBRANCH   4   7
ENDBRANCH   3   4
BRANCH   3  15
HETATM   15  C7  UNL     1      20.442  32.578  16.102  1.00  0.00     0.122 C 
BRANCH  15  16
HETATM   16  C8  UNL     1      21.791  32.659  15.503  1.00  0.00     0.021 A 
HETATM   17  C9  UNL     1      22.734  31.737  15.171  1.00  0.00     0.021 A 
HETATM   18  C10 UNL     1      23.882  32.192  14.620  1.00  0.00     0.008 A 
HETATM   19  C11 UNL     1      24.001  33.542  14.444  1.00  0.00     0.050 A 
HETATM   20  S2  UNL     1      22.519  34.133  15.047  1.00  0.00    -0.101 SA
ENDBRANCH  15  16
ENDBRANCH   3  15
ENDBRANCH   2   3
ENDBRANCH   1   2
BRANCH   1  21
HETATM   21  O4  UNL     1      20.316  28.525  16.195  1.00  0.00    -0.392 OA
ATOM     22  H4  UNL     1      20.995  28.718  16.830  1.00  0.00     0.210 HD
ENDBRANCH   1  21
BRANCH   1  23
HETATM   23  C14 UNL     1      19.675  29.125  13.954  1.00  0.00     0.119 C 
BRANCH  23  24
HETATM   24  C15 UNL     1      18.284  28.647  13.754  1.00  0.00     0.066 C 
BRANCH  24  25
HETATM   25  C16 UNL     1      18.039  28.000  12.442  1.00  0.00    -0.056 A 
HETATM   26  C17 UNL     1      18.087  26.648  12.209  1.00  0.00     0.007 A 
HETATM   27  C18 UNL     1      17.841  26.101  10.964  1.00  0.00     0.001 A 
HETATM   28  C19 UNL     1      17.535  26.908   9.901  1.00  0.00     0.000 A 
HETATM   29  C20 UNL     1      17.478  28.256  10.099  1.00  0.00     0.001 A 
HETATM   30  C21 UNL     1      17.724  28.793  11.339  1.00  0.00     0.007 A 
ENDBRANCH  24  25
ENDBRANCH  23  24
BRANCH  23  31
HETATM   31  N2  UNL     1      20.699  28.214  13.495  1.00  0.00    -0.349 N 
HETATM   32  C22 UNL     1      21.450  28.449  12.339  1.00  0.00     0.252 C 
HETATM   33  O5  UNL     1      21.273  29.502  11.636  1.00  0.00    -0.268 OA
ATOM     34  H2  UNL     1      20.881  27.368  14.035  1.00  0.00     0.163 HD
BRANCH  32  35
HETATM   35  C23 UNL     1      22.479  27.549  11.840  1.00  0.00     0.041 A 
HETATM   36  C24 UNL     1      22.015  26.465  11.092  1.00  0.00     0.018 A 
HETATM   37  C25 UNL     1      22.873  25.575  10.506  1.00  0.00     0.004 A 
HETATM   38  C26 UNL     1      24.226  25.778  10.675  1.00  0.00     0.043 A 
HETATM   39  C27 UNL     1      24.698  26.838  11.410  1.00  0.00     0.123 A 
HETATM   40  F1  UNL     1      26.039  26.978  11.542  1.00  0.00    -0.206 F 
HETATM   41  C28 UNL     1      23.809  27.737  12.004  1.00  0.00    -0.008 A 
HETATM   42  C29 UNL     1      24.382  28.835  12.841  1.00  0.00     0.052 C 
ENDBRANCH  32  35
ENDBRANCH  23  31
ENDBRANCH   1  23
TORSDOF 13
ENDMDL
