MODEL 9
REMARK VINA RESULT: -9.612377334      3.329      9.548
REMARK  13 active torsions:
REMARK  status: ('A' for Active; 'I' for Inactive)
REMARK    1  A    between atoms: O1_2  and  C2_3 
REMARK    2  A    between atoms: C6_7  and  S1_8 
REMARK    3  A    between atoms: S1_8  and  N1_11 
REMARK    4  A    between atoms: N1_11  and  C7_12 
REMARK    5  A    between atoms: N1_11  and  C12_18 
REMARK    6  A    between atoms: C7_12  and  C8_13 
REMARK    7  A    between atoms: C12_18  and  C13_19 
REMARK    8  A    between atoms: C13_19  and  O4_20 
REMARK    9  A    between atoms: C13_19  and  C14_22 
REMARK   10  A    between atoms: C14_22  and  C15_23 
REMARK   11  A    between atoms: C14_22  and  N2_30 
REMARK   12  A    between atoms: C15_23  and  C16_24 
REMARK       I    between atoms: N2_30  and  C22_32 
REMARK   13  A    between atoms: C22_32  and  C23_34 
ROOT
HETATM    1  C13 UNL     1      19.889  30.778  16.224  1.00  0.00     0.160 C 
ENDROOT
BRANCH   1   2
HETATM    2  C12 UNL     1      20.265  30.075  14.939  1.00  0.00     0.174 C 
BRANCH   2   3
HETATM    3  N1  UNL     1      19.963  30.908  13.832  1.00  0.00    -0.279 N 
BRANCH   3   4
HETATM    4  S1  UNL     1      21.259  31.156  12.754  1.00  0.00     0.264 S 
HETATM    5  O2  UNL     1      20.671  31.684  11.451  1.00  0.00    -0.200 OA
HETATM    6  O3  UNL     1      22.112  32.271  13.281  1.00  0.00    -0.200 OA
BRANCH   4   7
HETATM    7  C6  UNL     1      22.206  29.724  12.434  1.00  0.00     0.082 A 
HETATM    8  C5  UNL     1      23.489  29.566  12.911  1.00  0.00     0.025 A 
HETATM    9  C4  UNL     1      24.224  28.419  12.650  1.00  0.00     0.004 A 
HETATM   10  C3  UNL     1      23.700  27.392  11.901  1.00  0.00     0.037 A 
HETATM   11  C2  UNL     1      22.425  27.533  11.418  1.00  0.00     0.069 A 
HETATM   12  C30 UNL     1      21.696  28.672  11.678  1.00  0.00     0.061 A 
BRANCH  11  13
HETATM   13  O1  UNL     1      21.852  26.534  10.661  1.00  0.00    -0.356 OA
HETATM   14  C1  UNL     1      20.889  25.614  11.028  1.00  0.00     0.210 C 
ENDBRANCH  11  13
ENDBRANCH   4   7
ENDBRANCH   3   4
BRANCH   3  15
HETATM   15  C7  UNL     1      18.697  30.784  13.251  1.00  0.00     0.122 C 
BRANCH  15  16
HETATM   16  C8  UNL     1      18.316  29.480  12.671  1.00  0.00     0.021 A 
HETATM   17  C9  UNL     1      18.109  29.034  11.403  1.00  0.00     0.021 A 
HETATM   18  C10 UNL     1      17.766  27.736  11.248  1.00  0.00     0.008 A 
HETATM   19  C11 UNL     1      17.654  26.977  12.379  1.00  0.00     0.050 A 
HETATM   20  S2  UNL     1      18.027  28.089  13.618  1.00  0.00    -0.101 SA
ENDBRANCH  15  16
ENDBRANCH   3  15
ENDBRANCH   2   3
ENDBRANCH   1   2
BRANCH   1  21
HETATM   21  O4  UNL     1      20.189  30.084  17.372  1.00  0.00    -0.392 OA
ATOM     22  H4  UNL     1      20.662  30.582  18.028  1.00  0.00     0.210 HD
ENDBRANCH   1  21
BRANCH   1  23
HETATM   23  C14 UNL     1      20.280  32.212  16.251  1.00  0.00     0.119 C 
BRANCH  23  24
HETATM   24  C15 UNL     1      21.597  32.512  16.866  1.00  0.00     0.066 C 
BRANCH  24  25
HETATM   25  C16 UNL     1      21.864  33.956  17.072  1.00  0.00    -0.056 A 
HETATM   26  C17 UNL     1      22.013  34.563  18.294  1.00  0.00     0.007 A 
HETATM   27  C18 UNL     1      22.270  35.915  18.424  1.00  0.00     0.001 A 
HETATM   28  C19 UNL     1      22.386  36.708  17.314  1.00  0.00     0.000 A 
HETATM   29  C20 UNL     1      22.244  36.135  16.085  1.00  0.00     0.001 A 
HETATM   30  C21 UNL     1      21.989  34.791  15.963  1.00  0.00     0.007 A 
ENDBRANCH  24  25
ENDBRANCH  23  24
BRANCH  23  31
HETATM   31  N2  UNL     1      19.174  32.971  16.789  1.00  0.00    -0.349 N 
HETATM   32  C22 UNL     1      18.407  33.838  16.006  1.00  0.00     0.252 C 
HETATM   33  O5  UNL     1      18.642  33.989  14.758  1.00  0.00    -0.268 OA
ATOM     34  H2  UNL     1      18.944  32.869  17.777  1.00  0.00     0.163 HD
BRANCH  32  35
HETATM   35  C23 UNL     1      17.295  34.628  16.516  1.00  0.00     0.041 A 
HETATM   36  C24 UNL     1      16.027  34.086  16.296  1.00  0.00     0.018 A 
HETATM   37  C25 UNL     1      14.895  34.686  16.777  1.00  0.00     0.004 A 
HETATM   38  C26 UNL     1      15.041  35.855  17.495  1.00  0.00     0.043 A 
HETATM   39  C27 UNL     1      16.281  36.401  17.717  1.00  0.00     0.123 A 
HETATM   40  F1  UNL     1      16.355  37.553  18.425  1.00  0.00    -0.206 F 
HETATM   41  C28 UNL     1      17.427  35.777  17.217  1.00  0.00    -0.008 A 
HETATM   42  C29 UNL     1      18.743  36.452  17.441  1.00  0.00     0.052 C 
ENDBRANCH  32  35
ENDBRANCH  23  31
ENDBRANCH   1  23
TORSDOF 13
ENDMDL
