MODEL 2
REMARK VINA RESULT: -10.476473841      0.925      1.005
REMARK  13 active torsions:
REMARK  status: ('A' for Active; 'I' for Inactive)
REMARK    1  A    between atoms: O1_2  and  C2_3 
REMARK    2  A    between atoms: C6_7  and  S1_8 
REMARK    3  A    between atoms: S1_8  and  N1_11 
REMARK    4  A    between atoms: N1_11  and  C7_12 
REMARK    5  A    between atoms: N1_11  and  C12_18 
REMARK    6  A    between atoms: C7_12  and  C8_13 
REMARK    7  A    between atoms: C12_18  and  C13_19 
REMARK    8  A    between atoms: C13_19  and  O4_20 
REMARK    9  A    between atoms: C13_19  and  C14_22 
REMARK   10  A    between atoms: C14_22  and  C15_23 
REMARK   11  A    between atoms: C14_22  and  N2_30 
REMARK   12  A    between atoms: C15_23  and  C16_24 
REMARK       I    between atoms: N2_30  and  C22_32 
REMARK   13  A    between atoms: C22_32  and  C23_34 
ROOT
HETATM    1  C13 UNL     1      19.952  29.627  15.300  1.00  0.00     0.160 C 
ENDROOT
BRANCH   1   2
HETATM    2  C12 UNL     1      18.908  30.613  15.776  1.00  0.00     0.174 C 
BRANCH   2   3
HETATM    3  N1  UNL     1      19.255  31.920  15.349  1.00  0.00    -0.279 N 
BRANCH   3   4
HETATM    4  S1  UNL     1      18.009  32.759  14.545  1.00  0.00     0.264 S 
HETATM    5  O2  UNL     1      18.666  33.675  13.520  1.00  0.00    -0.200 OA
HETATM    6  O3  UNL     1      17.212  31.776  13.740  1.00  0.00    -0.200 OA
BRANCH   4   7
HETATM    7  C6  UNL     1      16.983  33.699  15.601  1.00  0.00     0.082 A 
HETATM    8  C5  UNL     1      15.943  33.138  16.310  1.00  0.00     0.025 A 
HETATM    9  C4  UNL     1      15.141  33.900  17.148  1.00  0.00     0.004 A 
HETATM   10  C3  UNL     1      15.354  35.249  17.303  1.00  0.00     0.037 A 
HETATM   11  C2  UNL     1      16.385  35.823  16.605  1.00  0.00     0.069 A 
HETATM   12  C30 UNL     1      17.180  35.066  15.774  1.00  0.00     0.061 A 
BRANCH  11  13
HETATM   13  O1  UNL     1      16.641  37.172  16.725  1.00  0.00    -0.356 OA
HETATM   14  C1  UNL     1      17.062  37.878  17.835  1.00  0.00     0.210 C 
ENDBRANCH  11  13
ENDBRANCH   4   7
ENDBRANCH   3   4
BRANCH   3  15
HETATM   15  C7  UNL     1      20.066  32.686  16.191  1.00  0.00     0.122 C 
BRANCH  15  16
HETATM   16  C8  UNL     1      21.365  33.162  15.672  1.00  0.00     0.021 A 
HETATM   17  C9  UNL     1      22.267  34.090  16.092  1.00  0.00     0.021 A 
HETATM   18  C10 UNL     1      23.381  34.257  15.344  1.00  0.00     0.008 A 
HETATM   19  C11 UNL     1      23.508  33.481  14.226  1.00  0.00     0.050 A 
HETATM   20  S2  UNL     1      22.081  32.547  14.251  1.00  0.00    -0.101 SA
ENDBRANCH  15  16
ENDBRANCH   3  15
ENDBRANCH   2   3
ENDBRANCH   1   2
BRANCH   1  21
HETATM   21  O4  UNL     1      20.344  28.703  16.238  1.00  0.00    -0.392 OA
ATOM     22  H4  UNL     1      21.235  28.388  16.140  1.00  0.00     0.210 HD
ENDBRANCH   1  21
BRANCH   1  23
HETATM   23  C14 UNL     1      19.660  29.059  13.958  1.00  0.00     0.119 C 
BRANCH  23  24
HETATM   24  C15 UNL     1      18.354  28.368  13.818  1.00  0.00     0.066 C 
BRANCH  24  25
HETATM   25  C16 UNL     1      18.103  27.795  12.474  1.00  0.00    -0.056 A 
HETATM   26  C17 UNL     1      18.046  26.453  12.187  1.00  0.00     0.007 A 
HETATM   27  C18 UNL     1      17.800  25.978  10.913  1.00  0.00     0.001 A 
HETATM   28  C19 UNL     1      17.600  26.848   9.875  1.00  0.00     0.000 A 
HETATM   29  C20 UNL     1      17.649  28.188  10.127  1.00  0.00     0.001 A 
HETATM   30  C21 UNL     1      17.895  28.653  11.395  1.00  0.00     0.007 A 
ENDBRANCH  24  25
ENDBRANCH  23  24
BRANCH  23  31
HETATM   31  N2  UNL     1      20.804  28.281  13.540  1.00  0.00    -0.349 N 
HETATM   32  C22 UNL     1      21.665  28.700  12.522  1.00  0.00     0.252 C 
HETATM   33  O5  UNL     1      21.487  29.814  11.919  1.00  0.00    -0.268 OA
ATOM     34  H2  UNL     1      20.989  27.392  14.005  1.00  0.00     0.163 HD
BRANCH  32  35
HETATM   35  C23 UNL     1      22.818  27.938  12.065  1.00  0.00     0.041 A 
HETATM   36  C24 UNL     1      24.062  28.455  12.435  1.00  0.00     0.018 A 
HETATM   37  C25 UNL     1      25.229  27.808  12.132  1.00  0.00     0.004 A 
HETATM   38  C26 UNL     1      25.145  26.617  11.443  1.00  0.00     0.043 A 
HETATM   39  C27 UNL     1      23.930  26.096  11.070  1.00  0.00     0.123 A 
HETATM   40  F1  UNL     1      23.917  24.925  10.391  1.00  0.00    -0.206 F 
HETATM   41  C28 UNL     1      22.747  26.770  11.386  1.00  0.00    -0.008 A 
HETATM   42  C29 UNL     1      21.460  26.184  10.901  1.00  0.00     0.052 C 
ENDBRANCH  32  35
ENDBRANCH  23  31
ENDBRANCH   1  23
TORSDOF 13
ENDMDL
