MODEL 6
REMARK VINA RESULT: -9.817953611      1.937      5.111
REMARK  13 active torsions:
REMARK  status: ('A' for Active; 'I' for Inactive)
REMARK    1  A    between atoms: O1_2  and  C2_3 
REMARK    2  A    between atoms: C6_7  and  S1_8 
REMARK    3  A    between atoms: S1_8  and  N1_11 
REMARK    4  A    between atoms: N1_11  and  C7_12 
REMARK    5  A    between atoms: N1_11  and  C12_18 
REMARK    6  A    between atoms: C7_12  and  C8_13 
REMARK    7  A    between atoms: C12_18  and  C13_19 
REMARK    8  A    between atoms: C13_19  and  O4_20 
REMARK    9  A    between atoms: C13_19  and  C14_22 
REMARK   10  A    between atoms: C14_22  and  C15_23 
REMARK   11  A    between atoms: C14_22  and  N2_30 
REMARK   12  A    between atoms: C15_23  and  C16_24 
REMARK       I    between atoms: N2_30  and  C22_32 
REMARK   13  A    between atoms: C22_32  and  C23_34 
ROOT
HETATM    1  C13 UNL     1      20.333  31.847  12.739  1.00  0.00     0.160 C 
ENDROOT
BRANCH   1   2
HETATM    2  C12 UNL     1      19.359  32.502  13.693  1.00  0.00     0.174 C 
BRANCH   2   3
HETATM    3  N1  UNL     1      18.473  31.526  14.216  1.00  0.00    -0.279 N 
BRANCH   3   4
HETATM    4  S1  UNL     1      17.969  31.809  15.820  1.00  0.00     0.264 S 
HETATM    5  O2  UNL     1      16.709  30.985  16.052  1.00  0.00    -0.200 OA
HETATM    6  O3  UNL     1      18.994  31.232  16.751  1.00  0.00    -0.200 OA
BRANCH   4   7
HETATM    7  C6  UNL     1      17.650  33.487  16.183  1.00  0.00     0.082 A 
HETATM    8  C5  UNL     1      16.697  34.220  15.508  1.00  0.00     0.025 A 
HETATM    9  C4  UNL     1      16.455  35.552  15.814  1.00  0.00     0.004 A 
HETATM   10  C3  UNL     1      17.160  36.194  16.804  1.00  0.00     0.037 A 
HETATM   11  C2  UNL     1      18.112  35.480  17.485  1.00  0.00     0.069 A 
HETATM   12  C30 UNL     1      18.351  34.159  17.181  1.00  0.00     0.061 A 
BRANCH  11  13
HETATM   13  O1  UNL     1      18.847  36.077  18.487  1.00  0.00    -0.356 OA
HETATM   14  C1  UNL     1      19.533  37.276  18.461  1.00  0.00     0.210 C 
ENDBRANCH  11  13
ENDBRANCH   4   7
ENDBRANCH   3   4
BRANCH   3  15
HETATM   15  C7  UNL     1      17.507  30.997  13.355  1.00  0.00     0.122 C 
BRANCH  15  16
HETATM   16  C8  UNL     1      17.616  29.574  12.969  1.00  0.00     0.021 A 
HETATM   17  C9  UNL     1      17.889  28.429  13.649  1.00  0.00     0.021 A 
HETATM   18  C10 UNL     1      17.898  27.274  12.945  1.00  0.00     0.008 A 
HETATM   19  C11 UNL     1      17.634  27.354  11.607  1.00  0.00     0.050 A 
HETATM   20  S2  UNL     1      17.382  29.024  11.370  1.00  0.00    -0.101 SA
ENDBRANCH  15  16
ENDBRANCH   3  15
ENDBRANCH   2   3
ENDBRANCH   1   2
BRANCH   1  21
HETATM   21  O4  UNL     1      20.371  32.400  11.482  1.00  0.00    -0.392 OA
ATOM     22  H4  UNL     1      21.241  32.488  11.111  1.00  0.00     0.210 HD
ENDBRANCH   1  21
BRANCH   1  23
HETATM   23  C14 UNL     1      21.668  31.589  13.341  1.00  0.00     0.119 C 
BRANCH  23  24
HETATM   24  C15 UNL     1      22.499  32.789  13.609  1.00  0.00     0.066 C 
BRANCH  24  25
HETATM   25  C16 UNL     1      22.376  33.325  14.986  1.00  0.00    -0.056 A 
HETATM   26  C17 UNL     1      22.105  34.634  15.301  1.00  0.00     0.007 A 
HETATM   27  C18 UNL     1      21.995  35.075  16.606  1.00  0.00     0.001 A 
HETATM   28  C19 UNL     1      22.155  34.202  17.649  1.00  0.00     0.000 A 
HETATM   29  C20 UNL     1      22.425  32.895  17.370  1.00  0.00     0.001 A 
HETATM   30  C21 UNL     1      22.534  32.463  16.070  1.00  0.00     0.007 A 
ENDBRANCH  24  25
ENDBRANCH  23  24
BRANCH  23  31
HETATM   31  N2  UNL     1      22.322  30.562  12.563  1.00  0.00    -0.349 N 
HETATM   32  C22 UNL     1      22.609  29.296  13.082  1.00  0.00     0.252 C 
HETATM   33  O5  UNL     1      22.287  28.980  14.278  1.00  0.00    -0.268 OA
ATOM     34  H2  UNL     1      22.584  30.769  11.599  1.00  0.00     0.163 HD
BRANCH  32  35
HETATM   35  C23 UNL     1      23.278  28.242  12.332  1.00  0.00     0.041 A 
HETATM   36  C24 UNL     1      24.671  28.223  12.440  1.00  0.00     0.018 A 
HETATM   37  C25 UNL     1      25.425  27.250  11.843  1.00  0.00     0.004 A 
HETATM   38  C26 UNL     1      24.767  26.275  11.124  1.00  0.00     0.043 A 
HETATM   39  C27 UNL     1      23.398  26.281  11.007  1.00  0.00     0.123 A 
HETATM   40  F1  UNL     1      22.814  25.297  10.283  1.00  0.00    -0.206 F 
HETATM   41  C28 UNL     1      22.642  27.283  11.622  1.00  0.00    -0.008 A 
HETATM   42  C29 UNL     1      21.162  27.270  11.409  1.00  0.00     0.052 C 
ENDBRANCH  32  35
ENDBRANCH  23  31
ENDBRANCH   1  23
TORSDOF 13
ENDMDL
