MODEL 1
REMARK VINA RESULT: -10.558284572      0.000      0.000
REMARK  13 active torsions:
REMARK  status: ('A' for Active; 'I' for Inactive)
REMARK    1  A    between atoms: O1_2  and  C2_3 
REMARK    2  A    between atoms: C6_7  and  S1_8 
REMARK    3  A    between atoms: S1_8  and  N1_11 
REMARK    4  A    between atoms: N1_11  and  C7_12 
REMARK    5  A    between atoms: N1_11  and  C12_18 
REMARK    6  A    between atoms: C7_12  and  C8_13 
REMARK    7  A    between atoms: C12_18  and  C13_19 
REMARK    8  A    between atoms: C13_19  and  O4_20 
REMARK    9  A    between atoms: C13_19  and  C14_22 
REMARK   10  A    between atoms: C14_22  and  C15_23 
REMARK   11  A    between atoms: C14_22  and  N2_30 
REMARK   12  A    between atoms: C15_23  and  C16_24 
REMARK       I    between atoms: N2_30  and  C22_32 
REMARK   13  A    between atoms: C22_32  and  C23_34 
ROOT
HETATM    1  C13 UNL     1      20.008  29.524  15.309  1.00  0.00     0.160 C 
ENDROOT
BRANCH   1   2
HETATM    2  C12 UNL     1      19.030  30.566  15.804  1.00  0.00     0.174 C 
BRANCH   2   3
HETATM    3  N1  UNL     1      19.410  31.845  15.324  1.00  0.00    -0.279 N 
BRANCH   3   4
HETATM    4  S1  UNL     1      18.123  32.797  14.742  1.00  0.00     0.264 S 
HETATM    5  O2  UNL     1      18.715  33.831  13.792  1.00  0.00    -0.200 OA
HETATM    6  O3  UNL     1      17.240  31.937  13.887  1.00  0.00    -0.200 OA
BRANCH   4   7
HETATM    7  C6  UNL     1      17.209  33.604  15.993  1.00  0.00     0.082 A 
HETATM    8  C5  UNL     1      15.836  33.516  16.077  1.00  0.00     0.025 A 
HETATM    9  C4  UNL     1      15.128  34.160  17.081  1.00  0.00     0.004 A 
HETATM   10  C3  UNL     1      15.770  34.917  18.033  1.00  0.00     0.037 A 
HETATM   11  C2  UNL     1      17.136  35.016  17.963  1.00  0.00     0.069 A 
HETATM   12  C30 UNL     1      17.838  34.375  16.967  1.00  0.00     0.061 A 
BRANCH  11  13
HETATM   13  O1  UNL     1      17.829  35.761  18.892  1.00  0.00    -0.356 OA
HETATM   14  C1  UNL     1      19.146  36.178  18.860  1.00  0.00     0.210 C 
ENDBRANCH  11  13
ENDBRANCH   4   7
ENDBRANCH   3   4
BRANCH   3  15
HETATM   15  C7  UNL     1      20.414  32.528  16.017  1.00  0.00     0.122 C 
BRANCH  15  16
HETATM   16  C8  UNL     1      21.769  32.570  15.429  1.00  0.00     0.021 A 
HETATM   17  C9  UNL     1      22.691  31.621  15.112  1.00  0.00     0.021 A 
HETATM   18  C10 UNL     1      23.855  32.042  14.567  1.00  0.00     0.008 A 
HETATM   19  C11 UNL     1      24.009  33.387  14.380  1.00  0.00     0.050 A 
HETATM   20  S2  UNL     1      22.538  34.021  14.965  1.00  0.00    -0.101 SA
ENDBRANCH  15  16
ENDBRANCH   3  15
ENDBRANCH   2   3
ENDBRANCH   1   2
BRANCH   1  21
HETATM   21  O4  UNL     1      20.328  28.550  16.224  1.00  0.00    -0.392 OA
ATOM     22  H4  UNL     1      21.021  27.960  15.954  1.00  0.00     0.210 HD
ENDBRANCH   1  21
BRANCH   1  23
HETATM   23  C14 UNL     1      19.692  29.012  13.950  1.00  0.00     0.119 C 
BRANCH  23  24
HETATM   24  C15 UNL     1      18.371  28.351  13.799  1.00  0.00     0.066 C 
BRANCH  24  25
HETATM   25  C16 UNL     1      18.120  27.779  12.454  1.00  0.00    -0.056 A 
HETATM   26  C17 UNL     1      18.061  26.438  12.166  1.00  0.00     0.007 A 
HETATM   27  C18 UNL     1      17.815  25.963  10.892  1.00  0.00     0.001 A 
HETATM   28  C19 UNL     1      17.618  26.834   9.854  1.00  0.00     0.000 A 
HETATM   29  C20 UNL     1      17.670  28.173  10.107  1.00  0.00     0.001 A 
HETATM   30  C21 UNL     1      17.915  28.638  11.375  1.00  0.00     0.007 A 
ENDBRANCH  24  25
ENDBRANCH  23  24
BRANCH  23  31
HETATM   31  N2  UNL     1      20.815  28.231  13.488  1.00  0.00    -0.349 N 
HETATM   32  C22 UNL     1      21.745  28.723  12.567  1.00  0.00     0.252 C 
HETATM   33  O5  UNL     1      21.650  29.909  12.098  1.00  0.00    -0.268 OA
ATOM     34  H2  UNL     1      20.936  27.284  13.848  1.00  0.00     0.163 HD
BRANCH  32  35
HETATM   35  C23 UNL     1      22.881  27.961  12.070  1.00  0.00     0.041 A 
HETATM   36  C24 UNL     1      24.137  28.461  12.422  1.00  0.00     0.018 A 
HETATM   37  C25 UNL     1      25.292  27.812  12.080  1.00  0.00     0.004 A 
HETATM   38  C26 UNL     1      25.183  26.634  11.370  1.00  0.00     0.043 A 
HETATM   39  C27 UNL     1      23.955  26.130  11.015  1.00  0.00     0.123 A 
HETATM   40  F1  UNL     1      23.918  24.972  10.315  1.00  0.00    -0.206 F 
HETATM   41  C28 UNL     1      22.785  26.807  11.371  1.00  0.00    -0.008 A 
HETATM   42  C29 UNL     1      21.483  26.240  10.904  1.00  0.00     0.052 C 
ENDBRANCH  32  35
ENDBRANCH  23  31
ENDBRANCH   1  23
TORSDOF 13
ENDMDL
