MODEL 7
REMARK VINA RESULT: -9.710078214      1.122      1.448
REMARK  13 active torsions:
REMARK  status: ('A' for Active; 'I' for Inactive)
REMARK    1  A    between atoms: O1_2  and  C2_3 
REMARK    2  A    between atoms: C6_7  and  S1_8 
REMARK    3  A    between atoms: S1_8  and  N1_11 
REMARK    4  A    between atoms: N1_11  and  C7_12 
REMARK    5  A    between atoms: N1_11  and  C12_18 
REMARK    6  A    between atoms: C7_12  and  C8_13 
REMARK    7  A    between atoms: C12_18  and  C13_19 
REMARK    8  A    between atoms: C13_19  and  O4_20 
REMARK    9  A    between atoms: C13_19  and  C14_22 
REMARK   10  A    between atoms: C14_22  and  C15_23 
REMARK   11  A    between atoms: C14_22  and  N2_30 
REMARK   12  A    between atoms: C15_23  and  C16_24 
REMARK       I    between atoms: N2_30  and  C22_32 
REMARK   13  A    between atoms: C22_32  and  C23_34 
ROOT
HETATM    1  C13 UNL     1      19.794  29.830  15.212  1.00  0.00     0.160 C 
ENDROOT
BRANCH   1   2
HETATM    2  C12 UNL     1      18.657  30.744  15.612  1.00  0.00     0.174 C 
BRANCH   2   3
HETATM    3  N1  UNL     1      19.075  32.096  15.518  1.00  0.00    -0.279 N 
BRANCH   3   4
HETATM    4  S1  UNL     1      17.806  33.223  15.368  1.00  0.00     0.264 S 
HETATM    5  O2  UNL     1      17.889  33.817  13.967  1.00  0.00    -0.200 OA
HETATM    6  O3  UNL     1      16.502  32.483  15.405  1.00  0.00    -0.200 OA
BRANCH   4   7
HETATM    7  C6  UNL     1      17.846  34.506  16.553  1.00  0.00     0.082 A 
HETATM    8  C5  UNL     1      18.427  34.347  17.793  1.00  0.00     0.025 A 
HETATM    9  C4  UNL     1      18.453  35.379  18.720  1.00  0.00     0.004 A 
HETATM   10  C3  UNL     1      17.896  36.603  18.438  1.00  0.00     0.037 A 
HETATM   11  C2  UNL     1      17.314  36.779  17.209  1.00  0.00     0.069 A 
HETATM   12  C30 UNL     1      17.289  35.754  16.289  1.00  0.00     0.061 A 
BRANCH  11  13
HETATM   13  O1  UNL     1      16.741  37.987  16.874  1.00  0.00    -0.356 OA
HETATM   14  C1  UNL     1      17.220  39.263  17.099  1.00  0.00     0.210 C 
ENDBRANCH  11  13
ENDBRANCH   4   7
ENDBRANCH   3   4
BRANCH   3  15
HETATM   15  C7  UNL     1      20.162  32.497  16.301  1.00  0.00     0.122 C 
BRANCH  15  16
HETATM   16  C8  UNL     1      21.449  32.770  15.627  1.00  0.00     0.021 A 
HETATM   17  C9  UNL     1      21.809  32.997  14.335  1.00  0.00     0.021 A 
HETATM   18  C10 UNL     1      23.119  33.221  14.085  1.00  0.00     0.008 A 
HETATM   19  C11 UNL     1      23.974  33.199  15.151  1.00  0.00     0.050 A 
HETATM   20  S2  UNL     1      22.934  32.869  16.462  1.00  0.00    -0.101 SA
ENDBRANCH  15  16
ENDBRANCH   3  15
ENDBRANCH   2   3
ENDBRANCH   1   2
BRANCH   1  21
HETATM   21  O4  UNL     1      20.260  29.014  16.215  1.00  0.00    -0.392 OA
ATOM     22  H4  UNL     1      20.829  29.441  16.845  1.00  0.00     0.210 HD
ENDBRANCH   1  21
BRANCH   1  23
HETATM   23  C14 UNL     1      19.573  29.145  13.912  1.00  0.00     0.119 C 
BRANCH  23  24
HETATM   24  C15 UNL     1      18.312  28.371  13.795  1.00  0.00     0.066 C 
BRANCH  24  25
HETATM   25  C16 UNL     1      18.077  27.777  12.457  1.00  0.00    -0.056 A 
HETATM   26  C17 UNL     1      18.074  26.432  12.181  1.00  0.00     0.007 A 
HETATM   27  C18 UNL     1      17.841  25.936  10.913  1.00  0.00     0.001 A 
HETATM   28  C19 UNL     1      17.601  26.788   9.868  1.00  0.00     0.000 A 
HETATM   29  C20 UNL     1      17.596  28.130  10.109  1.00  0.00     0.001 A 
HETATM   30  C21 UNL     1      17.829  28.617  11.372  1.00  0.00     0.007 A 
ENDBRANCH  24  25
ENDBRANCH  23  24
BRANCH  23  31
HETATM   31  N2  UNL     1      20.769  28.404  13.583  1.00  0.00    -0.349 N 
HETATM   32  C22 UNL     1      21.562  28.713  12.474  1.00  0.00     0.252 C 
HETATM   33  O5  UNL     1      21.270  29.688  11.700  1.00  0.00    -0.268 OA
ATOM     34  H2  UNL     1      21.045  27.627  14.183  1.00  0.00     0.163 HD
BRANCH  32  35
HETATM   35  C23 UNL     1      22.766  27.982  12.105  1.00  0.00     0.041 A 
HETATM   36  C24 UNL     1      23.968  28.558  12.523  1.00  0.00     0.018 A 
HETATM   37  C25 UNL     1      25.173  27.948  12.304  1.00  0.00     0.004 A 
HETATM   38  C26 UNL     1      25.170  26.733  11.651  1.00  0.00     0.043 A 
HETATM   39  C27 UNL     1      23.997  26.155  11.231  1.00  0.00     0.123 A 
HETATM   40  F1  UNL     1      24.065  24.964  10.592  1.00  0.00    -0.206 F 
HETATM   41  C28 UNL     1      22.775  26.792  11.462  1.00  0.00    -0.008 A 
HETATM   42  C29 UNL     1      21.538  26.142  10.929  1.00  0.00     0.052 C 
ENDBRANCH  32  35
ENDBRANCH  23  31
ENDBRANCH   1  23
TORSDOF 13
ENDMDL
