MODEL 1
REMARK VINA RESULT: -9.433497703      0.000      0.000
REMARK  15 active torsions:
REMARK  status: ('A' for Active; 'I' for Inactive)
REMARK    1  A    between atoms: O1_2  and  C2_3 
REMARK    2  A    between atoms: C6_7  and  S1_8 
REMARK    3  A    between atoms: S1_8  and  N1_11 
REMARK    4  A    between atoms: N1_11  and  C7_12 
REMARK    5  A    between atoms: N1_11  and  C12_18 
REMARK    6  A    between atoms: C7_12  and  C8_13 
REMARK    7  A    between atoms: C12_18  and  C13_19 
REMARK    8  A    between atoms: C13_19  and  O4_20 
REMARK    9  A    between atoms: C13_19  and  C14_22 
REMARK   10  A    between atoms: C14_22  and  C15_23 
REMARK   11  A    between atoms: C14_22  and  N2_30 
REMARK   12  A    between atoms: C15_23  and  C16_24 
REMARK       I    between atoms: N2_30  and  C22_32 
REMARK   13  A    between atoms: C22_32  and  C23_34 
REMARK   14  A    between atoms: C26_37  and  O6_38 
REMARK   15  A    between atoms: C27_40  and  O7_41 
ROOT
HETATM    1  C13 UNL     1      19.480  30.913  16.133  1.00  0.00     0.160 C 
ENDROOT
BRANCH   1   2
HETATM    2  C12 UNL     1      20.122  32.209  16.555  1.00  0.00     0.174 C 
BRANCH   2   3
HETATM    3  N1  UNL     1      20.787  32.823  15.472  1.00  0.00    -0.279 N 
BRANCH   3   4
HETATM    4  S1  UNL     1      22.256  32.131  15.008  1.00  0.00     0.264 S 
HETATM    5  O2  UNL     1      22.798  31.338  16.171  1.00  0.00    -0.200 OA
HETATM    6  O3  UNL     1      23.263  33.116  14.509  1.00  0.00    -0.200 OA
BRANCH   4   7
HETATM    7  C6  UNL     1      21.962  30.955  13.715  1.00  0.00     0.082 A 
HETATM    8  C5  UNL     1      21.276  31.324  12.577  1.00  0.00     0.025 A 
HETATM    9  C4  UNL     1      21.016  30.444  11.539  1.00  0.00     0.004 A 
HETATM   10  C3  UNL     1      21.465  29.147  11.651  1.00  0.00     0.037 A 
HETATM   11  C2  UNL     1      22.159  28.764  12.797  1.00  0.00     0.069 A 
HETATM   12  C29 UNL     1      22.403  29.664  13.816  1.00  0.00     0.061 A 
BRANCH  11  13
HETATM   13  O1  UNL     1      22.588  27.449  12.860  1.00  0.00    -0.356 OA
HETATM   14  C1  UNL     1      22.258  26.548  11.842  1.00  0.00     0.210 C 
ENDBRANCH  11  13
ENDBRANCH   4   7
ENDBRANCH   3   4
BRANCH   3  15
HETATM   15  C7  UNL     1      20.607  34.201  15.245  1.00  0.00     0.122 C 
BRANCH  15  16
HETATM   16  C8  UNL     1      20.605  34.963  16.556  1.00  0.00     0.021 A 
HETATM   17  C9  UNL     1      21.697  35.331  17.293  1.00  0.00     0.021 A 
HETATM   18  C10 UNL     1      21.467  36.006  18.442  1.00  0.00     0.008 A 
HETATM   19  C11 UNL     1      20.162  36.260  18.761  1.00  0.00     0.050 A 
HETATM   20  S2  UNL     1      19.303  35.559  17.469  1.00  0.00    -0.101 SA
ENDBRANCH  15  16
ENDBRANCH   3  15
ENDBRANCH   2   3
ENDBRANCH   1   2
BRANCH   1  21
HETATM   21  O4  UNL     1      19.026  30.116  17.139  1.00  0.00    -0.392 OA
ATOM     22  H4  UNL     1      19.684  29.602  17.593  1.00  0.00     0.210 HD
ENDBRANCH   1  21
BRANCH   1  23
HETATM   23  C14 UNL     1      18.416  31.074  15.080  1.00  0.00     0.119 C 
BRANCH  23  24
HETATM   24  C15 UNL     1      17.042  31.205  15.663  1.00  0.00     0.066 C 
BRANCH  24  25
HETATM   25  C16 UNL     1      16.592  32.617  15.719  1.00  0.00    -0.056 A 
HETATM   26  C17 UNL     1      17.062  33.517  14.803  1.00  0.00     0.007 A 
HETATM   27  C18 UNL     1      16.653  34.837  14.842  1.00  0.00     0.001 A 
HETATM   28  C19 UNL     1      15.774  35.252  15.795  1.00  0.00     0.000 A 
HETATM   29  C20 UNL     1      15.275  34.353  16.746  1.00  0.00     0.001 A 
HETATM   30  C21 UNL     1      15.708  33.038  16.675  1.00  0.00     0.007 A 
ENDBRANCH  24  25
ENDBRANCH  23  24
BRANCH  23  31
HETATM   31  N2  UNL     1      18.523  29.878  14.228  1.00  0.00    -0.349 N 
HETATM   32  C22 UNL     1      17.911  29.823  12.959  1.00  0.00     0.252 C 
HETATM   33  O5  UNL     1      17.267  30.845  12.590  1.00  0.00    -0.268 OA
ATOM     34  H2  UNL     1      19.053  29.073  14.563  1.00  0.00     0.163 HD
BRANCH  32  35
HETATM   35  C23 UNL     1      18.000  28.644  12.082  1.00  0.00     0.034 A 
HETATM   36  C24 UNL     1      17.747  28.711  10.745  1.00  0.00     0.020 A 
HETATM   37  C25 UNL     1      17.846  27.583   9.955  1.00  0.00     0.040 A 
HETATM   38  C26 UNL     1      18.199  26.367  10.479  1.00  0.00     0.098 A 
HETATM   39  C27 UNL     1      18.457  26.301  11.843  1.00  0.00     0.099 A 
HETATM   40  C28 UNL     1      18.355  27.444  12.636  1.00  0.00     0.056 A 
BRANCH  38  41
HETATM   41  O6  UNL     1      18.292  25.252   9.673  1.00  0.00    -0.358 OA
ATOM     42  H6  UNL     1      17.561  24.653   9.587  1.00  0.00     0.217 HD
ENDBRANCH  38  41
BRANCH  39  43
HETATM   43  O7  UNL     1      18.811  25.067  12.346  1.00  0.00    -0.358 OA
ATOM     44  H7  UNL     1      18.639  24.918  13.268  1.00  0.00     0.217 HD
ENDBRANCH  39  43
ENDBRANCH  32  35
ENDBRANCH  23  31
ENDBRANCH   1  23
TORSDOF 15
ENDMDL
