MODEL 5
REMARK VINA RESULT: -8.727587428      1.217      1.690
REMARK  15 active torsions:
REMARK  status: ('A' for Active; 'I' for Inactive)
REMARK    1  A    between atoms: O1_2  and  C2_3 
REMARK    2  A    between atoms: C6_7  and  S1_8 
REMARK    3  A    between atoms: S1_8  and  N1_11 
REMARK    4  A    between atoms: N1_11  and  C7_12 
REMARK    5  A    between atoms: N1_11  and  C12_18 
REMARK    6  A    between atoms: C7_12  and  C8_13 
REMARK    7  A    between atoms: C12_18  and  C13_19 
REMARK    8  A    between atoms: C13_19  and  O4_20 
REMARK    9  A    between atoms: C13_19  and  C14_22 
REMARK   10  A    between atoms: C14_22  and  C15_23 
REMARK   11  A    between atoms: C14_22  and  N2_30 
REMARK   12  A    between atoms: C15_23  and  C16_24 
REMARK       I    between atoms: N2_30  and  C22_32 
REMARK   13  A    between atoms: C22_32  and  C23_34 
REMARK   14  A    between atoms: C26_37  and  O6_38 
REMARK   15  A    between atoms: C27_40  and  O7_41 
ROOT
HETATM    1  C13 UNL     1      19.055  30.838  16.265  1.00  0.00     0.160 C 
ENDROOT
BRANCH   1   2
HETATM    2  C12 UNL     1      20.448  30.516  15.792  1.00  0.00     0.174 C 
BRANCH   2   3
HETATM    3  N1  UNL     1      21.166  31.693  15.491  1.00  0.00    -0.279 N 
BRANCH   3   4
HETATM    4  S1  UNL     1      21.403  32.024  13.852  1.00  0.00     0.264 S 
HETATM    5  O2  UNL     1      22.624  32.900  13.713  1.00  0.00    -0.200 OA
HETATM    6  O3  UNL     1      20.219  32.637  13.177  1.00  0.00    -0.200 OA
BRANCH   4   7
HETATM    7  C6  UNL     1      21.790  30.517  13.004  1.00  0.00     0.082 A 
HETATM    8  C5  UNL     1      21.112  30.167  11.855  1.00  0.00     0.025 A 
HETATM    9  C4  UNL     1      21.373  29.000  11.156  1.00  0.00     0.004 A 
HETATM   10  C3  UNL     1      22.351  28.156  11.630  1.00  0.00     0.037 A 
HETATM   11  C2  UNL     1      23.043  28.500  12.790  1.00  0.00     0.069 A 
HETATM   12  C29 UNL     1      22.761  29.671  13.467  1.00  0.00     0.061 A 
BRANCH  11  13
HETATM   13  O1  UNL     1      24.017  27.617  13.225  1.00  0.00    -0.356 OA
HETATM   14  C1  UNL     1      24.993  27.148  12.338  1.00  0.00     0.210 C 
ENDBRANCH  11  13
ENDBRANCH   4   7
ENDBRANCH   3   4
BRANCH   3  15
HETATM   15  C7  UNL     1      22.129  32.166  16.404  1.00  0.00     0.122 C 
BRANCH  15  16
HETATM   16  C8  UNL     1      21.723  33.521  16.952  1.00  0.00     0.021 A 
HETATM   17  C9  UNL     1      22.033  34.035  18.181  1.00  0.00     0.021 A 
HETATM   18  C10 UNL     1      21.562  35.270  18.470  1.00  0.00     0.008 A 
HETATM   19  C11 UNL     1      20.819  35.891  17.505  1.00  0.00     0.050 A 
HETATM   20  S2  UNL     1      20.796  34.753  16.239  1.00  0.00    -0.101 SA
ENDBRANCH  15  16
ENDBRANCH   3  15
ENDBRANCH   2   3
ENDBRANCH   1   2
BRANCH   1  21
HETATM   21  O4  UNL     1      18.947  31.862  17.157  1.00  0.00    -0.392 OA
ATOM     22  H4  UNL     1      18.066  32.169  17.334  1.00  0.00     0.210 HD
ENDBRANCH   1  21
BRANCH   1  23
HETATM   23  C14 UNL     1      18.058  31.015  15.152  1.00  0.00     0.119 C 
BRANCH  23  24
HETATM   24  C15 UNL     1      16.663  31.232  15.655  1.00  0.00     0.066 C 
BRANCH  24  25
HETATM   25  C16 UNL     1      16.323  32.673  15.750  1.00  0.00    -0.056 A 
HETATM   26  C17 UNL     1      16.852  33.557  14.851  1.00  0.00     0.007 A 
HETATM   27  C18 UNL     1      16.545  34.903  14.927  1.00  0.00     0.001 A 
HETATM   28  C19 UNL     1      15.711  35.360  15.901  1.00  0.00     0.000 A 
HETATM   29  C20 UNL     1      15.154  34.478  16.835  1.00  0.00     0.001 A 
HETATM   30  C21 UNL     1      15.485  33.136  16.727  1.00  0.00     0.007 A 
ENDBRANCH  24  25
ENDBRANCH  23  24
BRANCH  23  31
HETATM   31  N2  UNL     1      18.149  29.787  14.344  1.00  0.00    -0.349 N 
HETATM   32  C22 UNL     1      17.894  29.799  12.958  1.00  0.00     0.252 C 
HETATM   33  O5  UNL     1      17.583  30.911  12.443  1.00  0.00    -0.268 OA
ATOM     34  H2  UNL     1      18.403  28.909  14.798  1.00  0.00     0.163 HD
BRANCH  32  35
HETATM   35  C23 UNL     1      17.978  28.591  12.122  1.00  0.00     0.034 A 
HETATM   36  C24 UNL     1      18.120  27.345  12.655  1.00  0.00     0.020 A 
HETATM   37  C25 UNL     1      18.190  26.236  11.836  1.00  0.00     0.040 A 
HETATM   38  C26 UNL     1      18.122  26.343  10.472  1.00  0.00     0.098 A 
HETATM   39  C27 UNL     1      17.978  27.614   9.929  1.00  0.00     0.099 A 
HETATM   40  C28 UNL     1      17.907  28.732  10.762  1.00  0.00     0.056 A 
BRANCH  38  41
HETATM   41  O6  UNL     1      18.195  25.223   9.671  1.00  0.00    -0.358 OA
ATOM     42  H6  UNL     1      18.987  24.700   9.637  1.00  0.00     0.217 HD
ENDBRANCH  38  41
BRANCH  39  43
HETATM   43  O7  UNL     1      17.910  27.697   8.555  1.00  0.00    -0.358 OA
ATOM     44  H7  UNL     1      17.640  28.531   8.191  1.00  0.00     0.217 HD
ENDBRANCH  39  43
ENDBRANCH  32  35
ENDBRANCH  23  31
ENDBRANCH   1  23
TORSDOF 15
ENDMDL
