MODEL 3
REMARK VINA RESULT: -9.097814170      2.312      6.382
REMARK  15 active torsions:
REMARK  status: ('A' for Active; 'I' for Inactive)
REMARK    1  A    between atoms: O1_2  and  C2_3 
REMARK    2  A    between atoms: C6_7  and  S1_8 
REMARK    3  A    between atoms: S1_8  and  N1_11 
REMARK    4  A    between atoms: N1_11  and  C7_12 
REMARK    5  A    between atoms: N1_11  and  C12_18 
REMARK    6  A    between atoms: C7_12  and  C8_13 
REMARK    7  A    between atoms: C12_18  and  C13_19 
REMARK    8  A    between atoms: C13_19  and  O4_20 
REMARK    9  A    between atoms: C13_19  and  C14_22 
REMARK   10  A    between atoms: C14_22  and  C15_23 
REMARK   11  A    between atoms: C14_22  and  N2_30 
REMARK   12  A    between atoms: C15_23  and  C16_24 
REMARK       I    between atoms: N2_30  and  C22_32 
REMARK   13  A    between atoms: C22_32  and  C23_34 
REMARK   14  A    between atoms: C26_37  and  O6_38 
REMARK   15  A    between atoms: C27_40  and  O7_41 
ROOT
HETATM    1  C13 UNL     1      19.981  29.590  15.283  1.00  0.00     0.160 C 
ENDROOT
BRANCH   1   2
HETATM    2  C12 UNL     1      19.166  30.710  15.876  1.00  0.00     0.174 C 
BRANCH   2   3
HETATM    3  N1  UNL     1      19.320  31.899  15.133  1.00  0.00    -0.279 N 
BRANCH   3   4
HETATM    4  S1  UNL     1      17.897  32.672  14.655  1.00  0.00     0.264 S 
HETATM    5  O2  UNL     1      16.926  31.625  14.167  1.00  0.00    -0.200 OA
HETATM    6  O3  UNL     1      18.097  33.742  13.632  1.00  0.00    -0.200 OA
BRANCH   4   7
HETATM    7  C6  UNL     1      17.135  33.415  16.072  1.00  0.00     0.082 A 
HETATM    8  C5  UNL     1      15.762  33.416  16.208  1.00  0.00     0.025 A 
HETATM    9  C4  UNL     1      15.116  33.986  17.293  1.00  0.00     0.004 A 
HETATM   10  C3  UNL     1      15.879  34.573  18.276  1.00  0.00     0.037 A 
HETATM   11  C2  UNL     1      17.267  34.577  18.150  1.00  0.00     0.069 A 
HETATM   12  C29 UNL     1      17.884  34.002  17.055  1.00  0.00     0.061 A 
BRANCH  11  13
HETATM   13  O1  UNL     1      17.988  35.180  19.166  1.00  0.00    -0.356 OA
HETATM   14  C1  UNL     1      19.305  35.598  18.946  1.00  0.00     0.210 C 
ENDBRANCH  11  13
ENDBRANCH   4   7
ENDBRANCH   3   4
BRANCH   3  15
HETATM   15  C7  UNL     1      20.462  32.065  14.325  1.00  0.00     0.122 C 
BRANCH  15  16
HETATM   16  C8  UNL     1      21.619  32.611  15.141  1.00  0.00     0.021 A 
HETATM   17  C9  UNL     1      22.946  32.334  14.969  1.00  0.00     0.021 A 
HETATM   18  C10 UNL     1      23.816  32.931  15.816  1.00  0.00     0.008 A 
HETATM   19  C11 UNL     1      23.285  33.757  16.767  1.00  0.00     0.050 A 
HETATM   20  S2  UNL     1      21.613  33.681  16.460  1.00  0.00    -0.101 SA
ENDBRANCH  15  16
ENDBRANCH   3  15
ENDBRANCH   2   3
ENDBRANCH   1   2
BRANCH   1  21
HETATM   21  O4  UNL     1      20.057  28.449  16.023  1.00  0.00    -0.392 OA
ATOM     22  H4  UNL     1      20.931  28.174  16.276  1.00  0.00     0.210 HD
ENDBRANCH   1  21
BRANCH   1  23
HETATM   23  C14 UNL     1      19.620  29.260  13.859  1.00  0.00     0.119 C 
BRANCH  23  24
HETATM   24  C15 UNL     1      18.382  28.422  13.757  1.00  0.00     0.066 C 
BRANCH  24  25
HETATM   25  C16 UNL     1      18.158  27.925  12.378  1.00  0.00    -0.056 A 
HETATM   26  C17 UNL     1      17.770  28.794  11.396  1.00  0.00     0.007 A 
HETATM   27  C18 UNL     1      17.556  28.346  10.106  1.00  0.00     0.001 A 
HETATM   28  C19 UNL     1      17.732  27.031   9.801  1.00  0.00     0.000 A 
HETATM   29  C20 UNL     1      18.131  26.118  10.786  1.00  0.00     0.001 A 
HETATM   30  C21 UNL     1      18.335  26.604  12.068  1.00  0.00     0.007 A 
ENDBRANCH  24  25
ENDBRANCH  23  24
BRANCH  23  31
HETATM   31  N2  UNL     1      20.790  28.554  13.312  1.00  0.00    -0.349 N 
HETATM   32  C22 UNL     1      21.481  29.042  12.183  1.00  0.00     0.252 C 
HETATM   33  O5  UNL     1      21.049  30.111  11.666  1.00  0.00    -0.268 OA
ATOM     34  H2  UNL     1      21.108  27.694  13.758  1.00  0.00     0.163 HD
BRANCH  32  35
HETATM   35  C23 UNL     1      22.654  28.362  11.612  1.00  0.00     0.034 A 
HETATM   36  C24 UNL     1      23.054  28.559  10.325  1.00  0.00     0.020 A 
HETATM   37  C25 UNL     1      24.165  27.905   9.827  1.00  0.00     0.040 A 
HETATM   38  C26 UNL     1      24.898  27.044  10.600  1.00  0.00     0.098 A 
HETATM   39  C27 UNL     1      24.489  26.845  11.913  1.00  0.00     0.099 A 
HETATM   40  C28 UNL     1      23.366  27.508  12.410  1.00  0.00     0.056 A 
BRANCH  38  41
HETATM   41  O6  UNL     1      26.003  26.401  10.085  1.00  0.00    -0.358 OA
ATOM     42  H6  UNL     1      26.139  25.472  10.235  1.00  0.00     0.217 HD
ENDBRANCH  38  41
BRANCH  39  43
HETATM   43  O7  UNL     1      25.243  25.974  12.671  1.00  0.00    -0.358 OA
ATOM     44  H7  UNL     1      25.790  26.360  13.344  1.00  0.00     0.217 HD
ENDBRANCH  39  43
ENDBRANCH  32  35
ENDBRANCH  23  31
ENDBRANCH   1  23
TORSDOF 15
ENDMDL
