MODEL 2
REMARK VINA RESULT: -9.255000364      2.276      6.436
REMARK  15 active torsions:
REMARK  status: ('A' for Active; 'I' for Inactive)
REMARK    1  A    between atoms: O1_2  and  C2_3 
REMARK    2  A    between atoms: C6_7  and  S1_8 
REMARK    3  A    between atoms: S1_8  and  N1_11 
REMARK    4  A    between atoms: N1_11  and  C7_12 
REMARK    5  A    between atoms: N1_11  and  C12_18 
REMARK    6  A    between atoms: C7_12  and  C8_13 
REMARK    7  A    between atoms: C12_18  and  C13_19 
REMARK    8  A    between atoms: C13_19  and  O4_20 
REMARK    9  A    between atoms: C13_19  and  C14_22 
REMARK   10  A    between atoms: C14_22  and  C15_23 
REMARK   11  A    between atoms: C14_22  and  N2_30 
REMARK   12  A    between atoms: C15_23  and  C16_24 
REMARK       I    between atoms: N2_30  and  C22_32 
REMARK   13  A    between atoms: C22_32  and  C23_34 
REMARK   14  A    between atoms: C26_37  and  O6_38 
REMARK   15  A    between atoms: C27_40  and  O7_41 
ROOT
HETATM    1  C13 UNL     1      19.888  29.498  15.383  1.00  0.00     0.160 C 
ENDROOT
BRANCH   1   2
HETATM    2  C12 UNL     1      18.923  30.481  15.994  1.00  0.00     0.174 C 
BRANCH   2   3
HETATM    3  N1  UNL     1      19.194  31.795  15.558  1.00  0.00    -0.279 N 
BRANCH   3   4
HETATM    4  S1  UNL     1      17.905  32.628  14.852  1.00  0.00     0.264 S 
HETATM    5  O2  UNL     1      16.982  31.623  14.209  1.00  0.00    -0.200 OA
HETATM    6  O3  UNL     1      18.320  33.681  13.877  1.00  0.00    -0.200 OA
BRANCH   4   7
HETATM    7  C6  UNL     1      16.954  33.413  16.125  1.00  0.00     0.082 A 
HETATM    8  C5  UNL     1      15.577  33.326  16.124  1.00  0.00     0.025 A 
HETATM    9  C4  UNL     1      14.787  33.924  17.092  1.00  0.00     0.004 A 
HETATM   10  C3  UNL     1      15.405  34.633  18.097  1.00  0.00     0.037 A 
HETATM   11  C2  UNL     1      16.795  34.727  18.109  1.00  0.00     0.069 A 
HETATM   12  C29 UNL     1      17.558  34.120  17.129  1.00  0.00     0.061 A 
BRANCH  11  13
HETATM   13  O1  UNL     1      17.367  35.450  19.142  1.00  0.00    -0.356 OA
HETATM   14  C1  UNL     1      18.722  35.796  19.096  1.00  0.00     0.210 C 
ENDBRANCH  11  13
ENDBRANCH   4   7
ENDBRANCH   3   4
BRANCH   3  15
HETATM   15  C7  UNL     1      20.499  32.131  15.147  1.00  0.00     0.122 C 
BRANCH  15  16
HETATM   16  C8  UNL     1      21.097  33.175  16.071  1.00  0.00     0.021 A 
HETATM   17  C9  UNL     1      21.896  32.948  17.157  1.00  0.00     0.021 A 
HETATM   18  C10 UNL     1      22.320  34.030  17.849  1.00  0.00     0.008 A 
HETATM   19  C11 UNL     1      21.908  35.253  17.398  1.00  0.00     0.050 A 
HETATM   20  S2  UNL     1      20.956  34.868  16.041  1.00  0.00    -0.101 SA
ENDBRANCH  15  16
ENDBRANCH   3  15
ENDBRANCH   2   3
ENDBRANCH   1   2
BRANCH   1  21
HETATM   21  O4  UNL     1      20.104  28.354  16.090  1.00  0.00    -0.392 OA
ATOM     22  H4  UNL     1      19.453  27.670  15.985  1.00  0.00     0.210 HD
ENDBRANCH   1  21
BRANCH   1  23
HETATM   23  C14 UNL     1      19.594  29.168  13.944  1.00  0.00     0.119 C 
BRANCH  23  24
HETATM   24  C15 UNL     1      18.352  28.344  13.783  1.00  0.00     0.066 C 
BRANCH  24  25
HETATM   25  C16 UNL     1      18.158  27.899  12.382  1.00  0.00    -0.056 A 
HETATM   26  C17 UNL     1      18.341  26.584  12.055  1.00  0.00     0.007 A 
HETATM   27  C18 UNL     1      18.163  26.152  10.753  1.00  0.00     0.001 A 
HETATM   28  C19 UNL     1      17.803  27.037   9.783  1.00  0.00     0.000 A 
HETATM   29  C20 UNL     1      17.608  28.390  10.088  1.00  0.00     0.001 A 
HETATM   30  C21 UNL     1      17.795  28.785  11.404  1.00  0.00     0.007 A 
ENDBRANCH  24  25
ENDBRANCH  23  24
BRANCH  23  31
HETATM   31  N2  UNL     1      20.781  28.446  13.457  1.00  0.00    -0.349 N 
HETATM   32  C22 UNL     1      21.609  28.988  12.452  1.00  0.00     0.252 C 
HETATM   33  O5  UNL     1      21.283  30.119  11.991  1.00  0.00    -0.268 OA
ATOM     34  H2  UNL     1      21.010  27.535  13.855  1.00  0.00     0.163 HD
BRANCH  32  35
HETATM   35  C23 UNL     1      22.803  28.295  11.944  1.00  0.00     0.034 A 
HETATM   36  C24 UNL     1      23.854  27.971  12.748  1.00  0.00     0.020 A 
HETATM   37  C25 UNL     1      24.955  27.315  12.233  1.00  0.00     0.040 A 
HETATM   38  C26 UNL     1      25.033  26.970  10.910  1.00  0.00     0.098 A 
HETATM   39  C27 UNL     1      23.960  27.301  10.091  1.00  0.00     0.099 A 
HETATM   40  C28 UNL     1      22.850  27.963  10.617  1.00  0.00     0.056 A 
BRANCH  38  41
HETATM   41  O6  UNL     1      26.141  26.316  10.415  1.00  0.00    -0.358 OA
ATOM     42  H6  UNL     1      26.707  26.733   9.777  1.00  0.00     0.217 HD
ENDBRANCH  38  41
BRANCH  39  43
HETATM   43  O7  UNL     1      24.061  26.942   8.764  1.00  0.00    -0.358 OA
ATOM     44  H7  UNL     1      24.066  27.649   8.131  1.00  0.00     0.217 HD
ENDBRANCH  39  43
ENDBRANCH  32  35
ENDBRANCH  23  31
ENDBRANCH   1  23
TORSDOF 15
ENDMDL
