MODEL 6
REMARK VINA RESULT: -8.645450319      1.395      5.101
REMARK  15 active torsions:
REMARK  status: ('A' for Active; 'I' for Inactive)
REMARK    1  A    between atoms: O1_2  and  C2_3 
REMARK    2  A    between atoms: C6_7  and  S1_8 
REMARK    3  A    between atoms: S1_8  and  N1_11 
REMARK    4  A    between atoms: N1_11  and  C7_12 
REMARK    5  A    between atoms: N1_11  and  C12_18 
REMARK    6  A    between atoms: C7_12  and  C8_13 
REMARK    7  A    between atoms: C12_18  and  C13_19 
REMARK    8  A    between atoms: C13_19  and  O4_20 
REMARK    9  A    between atoms: C13_19  and  C14_22 
REMARK   10  A    between atoms: C14_22  and  C15_23 
REMARK   11  A    between atoms: C14_22  and  N2_30 
REMARK   12  A    between atoms: C15_23  and  C16_24 
REMARK       I    between atoms: N2_30  and  C22_32 
REMARK   13  A    between atoms: C22_32  and  C23_34 
REMARK   14  A    between atoms: C26_37  and  O6_38 
REMARK   15  A    between atoms: C27_40  and  O7_41 
ROOT
HETATM    1  C13 UNL     1      18.983  31.327  15.400  1.00  0.00     0.160 C 
ENDROOT
BRANCH   1   2
HETATM    2  C12 UNL     1      19.844  32.517  15.065  1.00  0.00     0.174 C 
BRANCH   2   3
HETATM    3  N1  UNL     1      21.211  32.168  15.055  1.00  0.00    -0.279 N 
BRANCH   3   4
HETATM    4  S1  UNL     1      22.106  32.613  16.416  1.00  0.00     0.264 S 
HETATM    5  O2  UNL     1      23.537  32.837  15.995  1.00  0.00    -0.200 OA
HETATM    6  O3  UNL     1      22.022  31.639  17.546  1.00  0.00    -0.200 OA
BRANCH   4   7
HETATM    7  C6  UNL     1      21.524  34.179  17.007  1.00  0.00     0.082 A 
HETATM    8  C5  UNL     1      22.394  35.240  17.149  1.00  0.00     0.025 A 
HETATM    9  C4  UNL     1      21.993  36.483  17.610  1.00  0.00     0.004 A 
HETATM   10  C3  UNL     1      20.669  36.665  17.938  1.00  0.00     0.037 A 
HETATM   11  C2  UNL     1      19.780  35.600  17.799  1.00  0.00     0.069 A 
HETATM   12  C29 UNL     1      20.210  34.371  17.337  1.00  0.00     0.061 A 
BRANCH  11  13
HETATM   13  O1  UNL     1      18.460  35.835  18.142  1.00  0.00    -0.356 OA
HETATM   14  C1  UNL     1      18.061  37.097  18.596  1.00  0.00     0.210 C 
ENDBRANCH  11  13
ENDBRANCH   4   7
ENDBRANCH   3   4
BRANCH   3  15
HETATM   15  C7  UNL     1      21.889  32.072  13.824  1.00  0.00     0.122 C 
BRANCH  15  16
HETATM   16  C8  UNL     1      21.904  30.637  13.333  1.00  0.00     0.021 A 
HETATM   17  C9  UNL     1      21.741  30.208  12.046  1.00  0.00     0.021 A 
HETATM   18  C10 UNL     1      21.786  28.873  11.828  1.00  0.00     0.008 A 
HETATM   19  C11 UNL     1      21.991  28.076  12.919  1.00  0.00     0.050 A 
HETATM   20  S2  UNL     1      22.114  29.190  14.200  1.00  0.00    -0.101 SA
ENDBRANCH  15  16
ENDBRANCH   3  15
ENDBRANCH   2   3
ENDBRANCH   1   2
BRANCH   1  21
HETATM   21  O4  UNL     1      18.826  31.057  16.726  1.00  0.00    -0.392 OA
ATOM     22  H4  UNL     1      18.791  31.811  17.303  1.00  0.00     0.210 HD
ENDBRANCH   1  21
BRANCH   1  23
HETATM   23  C14 UNL     1      17.645  31.329  14.711  1.00  0.00     0.119 C 
BRANCH  23  24
HETATM   24  C15 UNL     1      16.500  31.412  15.674  1.00  0.00     0.066 C 
BRANCH  24  25
HETATM   25  C16 UNL     1      16.128  32.814  15.979  1.00  0.00    -0.056 A 
HETATM   26  C17 UNL     1      15.343  33.090  17.063  1.00  0.00     0.007 A 
HETATM   27  C18 UNL     1      14.987  34.392  17.361  1.00  0.00     0.001 A 
HETATM   28  C19 UNL     1      15.419  35.415  16.574  1.00  0.00     0.000 A 
HETATM   29  C20 UNL     1      16.225  35.164  15.456  1.00  0.00     0.001 A 
HETATM   30  C21 UNL     1      16.561  33.846  15.190  1.00  0.00     0.007 A 
ENDBRANCH  24  25
ENDBRANCH  23  24
BRANCH  23  31
HETATM   31  N2  UNL     1      17.601  30.078  13.935  1.00  0.00    -0.349 N 
HETATM   32  C22 UNL     1      18.102  30.013  12.619  1.00  0.00     0.252 C 
HETATM   33  O5  UNL     1      18.588  31.076  12.138  1.00  0.00    -0.268 OA
ATOM     34  H2  UNL     1      17.201  29.241  14.360  1.00  0.00     0.163 HD
BRANCH  32  35
HETATM   35  C23 UNL     1      18.076  28.779  11.817  1.00  0.00     0.034 A 
HETATM   36  C24 UNL     1      17.698  28.769  10.508  1.00  0.00     0.020 A 
HETATM   37  C25 UNL     1      17.691  27.591   9.788  1.00  0.00     0.040 A 
HETATM   38  C26 UNL     1      18.061  26.400  10.355  1.00  0.00     0.098 A 
HETATM   39  C27 UNL     1      18.447  26.411  11.691  1.00  0.00     0.099 A 
HETATM   40  C28 UNL     1      18.451  27.605  12.413  1.00  0.00     0.056 A 
BRANCH  38  41
HETATM   41  O6  UNL     1      18.047  25.234   9.620  1.00  0.00    -0.358 OA
ATOM     42  H6  UNL     1      17.395  24.563   9.784  1.00  0.00     0.217 HD
ENDBRANCH  38  41
BRANCH  39  43
HETATM   43  O7  UNL     1      18.815  25.201  12.238  1.00  0.00    -0.358 OA
ATOM     44  H7  UNL     1      18.243  24.845  12.907  1.00  0.00     0.217 HD
ENDBRANCH  39  43
ENDBRANCH  32  35
ENDBRANCH  23  31
ENDBRANCH   1  23
TORSDOF 15
ENDMDL
