MODEL 9
REMARK VINA RESULT: -8.591904419      2.414      6.495
REMARK  15 active torsions:
REMARK  status: ('A' for Active; 'I' for Inactive)
REMARK    1  A    between atoms: O1_2  and  C2_3 
REMARK    2  A    between atoms: C6_7  and  S1_8 
REMARK    3  A    between atoms: S1_8  and  N1_11 
REMARK    4  A    between atoms: N1_11  and  C7_12 
REMARK    5  A    between atoms: N1_11  and  C12_18 
REMARK    6  A    between atoms: C7_12  and  C8_13 
REMARK    7  A    between atoms: C12_18  and  C13_19 
REMARK    8  A    between atoms: C13_19  and  O4_20 
REMARK    9  A    between atoms: C13_19  and  C14_22 
REMARK   10  A    between atoms: C14_22  and  C15_23 
REMARK   11  A    between atoms: C14_22  and  N2_30 
REMARK   12  A    between atoms: C15_23  and  C16_24 
REMARK       I    between atoms: N2_30  and  C22_32 
REMARK   13  A    between atoms: C22_32  and  C23_34 
REMARK   14  A    between atoms: C26_37  and  O6_38 
REMARK   15  A    between atoms: C27_40  and  O7_41 
ROOT
HETATM    1  C13 UNL     1      19.801  29.627  15.357  1.00  0.00     0.160 C 
ENDROOT
BRANCH   1   2
HETATM    2  C12 UNL     1      18.818  30.622  15.916  1.00  0.00     0.174 C 
BRANCH   2   3
HETATM    3  N1  UNL     1      19.071  31.920  15.423  1.00  0.00    -0.279 N 
BRANCH   3   4
HETATM    4  S1  UNL     1      17.816  33.038  15.584  1.00  0.00     0.264 S 
HETATM    5  O2  UNL     1      16.615  32.328  16.158  1.00  0.00    -0.200 OA
HETATM    6  O3  UNL     1      17.469  33.750  14.317  1.00  0.00    -0.200 OA
BRANCH   4   7
HETATM    7  C6  UNL     1      18.276  34.259  16.782  1.00  0.00     0.082 A 
HETATM    8  C5  UNL     1      17.498  34.467  17.903  1.00  0.00     0.025 A 
HETATM    9  C4  UNL     1      17.810  35.411  18.868  1.00  0.00     0.004 A 
HETATM   10  C3  UNL     1      18.946  36.171  18.699  1.00  0.00     0.037 A 
HETATM   11  C2  UNL     1      19.739  35.969  17.571  1.00  0.00     0.069 A 
HETATM   12  C29 UNL     1      19.402  35.021  16.625  1.00  0.00     0.061 A 
BRANCH  11  13
HETATM   13  O1  UNL     1      20.869  36.759  17.450  1.00  0.00    -0.356 OA
HETATM   14  C1  UNL     1      22.141  36.206  17.636  1.00  0.00     0.210 C 
ENDBRANCH  11  13
ENDBRANCH   4   7
ENDBRANCH   3   4
BRANCH   3  15
HETATM   15  C7  UNL     1      19.970  32.087  14.351  1.00  0.00     0.122 C 
BRANCH  15  16
HETATM   16  C8  UNL     1      21.376  32.331  14.866  1.00  0.00     0.021 A 
HETATM   17  C9  UNL     1      22.520  32.406  14.121  1.00  0.00     0.021 A 
HETATM   18  C10 UNL     1      23.677  32.629  14.787  1.00  0.00     0.008 A 
HETATM   19  C11 UNL     1      23.593  32.759  16.146  1.00  0.00     0.050 A 
HETATM   20  S2  UNL     1      21.930  32.570  16.454  1.00  0.00    -0.101 SA
ENDBRANCH  15  16
ENDBRANCH   3  15
ENDBRANCH   2   3
ENDBRANCH   1   2
BRANCH   1  21
HETATM   21  O4  UNL     1      20.013  28.510  16.106  1.00  0.00    -0.392 OA
ATOM     22  H4  UNL     1      20.437  27.784  15.661  1.00  0.00     0.210 HD
ENDBRANCH   1  21
BRANCH   1  23
HETATM   23  C14 UNL     1      19.537  29.248  13.924  1.00  0.00     0.119 C 
BRANCH  23  24
HETATM   24  C15 UNL     1      18.313  28.397  13.769  1.00  0.00     0.066 C 
BRANCH  24  25
HETATM   25  C16 UNL     1      18.148  27.907  12.379  1.00  0.00    -0.056 A 
HETATM   26  C17 UNL     1      18.339  26.583  12.097  1.00  0.00     0.007 A 
HETATM   27  C18 UNL     1      18.189  26.110  10.806  1.00  0.00     0.001 A 
HETATM   28  C19 UNL     1      17.849  26.964   9.802  1.00  0.00     0.000 A 
HETATM   29  C20 UNL     1      17.646  28.325  10.060  1.00  0.00     0.001 A 
HETATM   30  C21 UNL     1      17.805  28.762  11.366  1.00  0.00     0.007 A 
ENDBRANCH  24  25
ENDBRANCH  23  24
BRANCH  23  31
HETATM   31  N2  UNL     1      20.745  28.533  13.479  1.00  0.00    -0.349 N 
HETATM   32  C22 UNL     1      21.519  29.003  12.398  1.00  0.00     0.252 C 
HETATM   33  O5  UNL     1      21.128  30.063  11.831  1.00  0.00    -0.268 OA
ATOM     34  H2  UNL     1      21.028  27.681  13.963  1.00  0.00     0.163 HD
BRANCH  32  35
HETATM   35  C23 UNL     1      22.732  28.315  11.929  1.00  0.00     0.034 A 
HETATM   36  C24 UNL     1      23.772  28.023  12.760  1.00  0.00     0.020 A 
HETATM   37  C25 UNL     1      24.891  27.372  12.282  1.00  0.00     0.040 A 
HETATM   38  C26 UNL     1      24.999  26.997  10.968  1.00  0.00     0.098 A 
HETATM   39  C27 UNL     1      23.938  27.295  10.122  1.00  0.00     0.099 A 
HETATM   40  C28 UNL     1      22.809  27.953  10.611  1.00  0.00     0.056 A 
BRANCH  38  41
HETATM   41  O6  UNL     1      26.125  26.348  10.510  1.00  0.00    -0.358 OA
ATOM     42  H6  UNL     1      26.077  25.756   9.768  1.00  0.00     0.217 HD
ENDBRANCH  38  41
BRANCH  39  43
HETATM   43  O7  UNL     1      24.069  26.907   8.805  1.00  0.00    -0.358 OA
ATOM     44  H7  UNL     1      23.292  26.969   8.263  1.00  0.00     0.217 HD
ENDBRANCH  39  43
ENDBRANCH  32  35
ENDBRANCH  23  31
ENDBRANCH   1  23
TORSDOF 15
ENDMDL
