MODEL 7
REMARK VINA RESULT: -8.627854114      2.531      6.592
REMARK  15 active torsions:
REMARK  status: ('A' for Active; 'I' for Inactive)
REMARK    1  A    between atoms: O1_2  and  C2_3 
REMARK    2  A    between atoms: C6_7  and  S1_8 
REMARK    3  A    between atoms: S1_8  and  N1_11 
REMARK    4  A    between atoms: N1_11  and  C7_12 
REMARK    5  A    between atoms: N1_11  and  C12_18 
REMARK    6  A    between atoms: C7_12  and  C8_13 
REMARK    7  A    between atoms: C12_18  and  C13_19 
REMARK    8  A    between atoms: C13_19  and  O4_20 
REMARK    9  A    between atoms: C13_19  and  C14_22 
REMARK   10  A    between atoms: C14_22  and  C15_23 
REMARK   11  A    between atoms: C14_22  and  N2_30 
REMARK   12  A    between atoms: C15_23  and  C16_24 
REMARK       I    between atoms: N2_30  and  C22_32 
REMARK   13  A    between atoms: C22_32  and  C23_34 
REMARK   14  A    between atoms: C26_37  and  O6_38 
REMARK   15  A    between atoms: C27_40  and  O7_41 
ROOT
HETATM    1  C13 UNL     1      19.923  29.686  15.466  1.00  0.00     0.160 C 
ENDROOT
BRANCH   1   2
HETATM    2  C12 UNL     1      19.008  30.703  16.098  1.00  0.00     0.174 C 
BRANCH   2   3
HETATM    3  N1  UNL     1      19.073  31.937  15.417  1.00  0.00    -0.279 N 
BRANCH   3   4
HETATM    4  S1  UNL     1      17.636  32.820  15.334  1.00  0.00     0.264 S 
HETATM    5  O2  UNL     1      16.499  31.923  15.757  1.00  0.00    -0.200 OA
HETATM    6  O3  UNL     1      17.372  33.432  13.997  1.00  0.00    -0.200 OA
BRANCH   4   7
HETATM    7  C6  UNL     1      17.688  34.129  16.527  1.00  0.00     0.082 A 
HETATM    8  C5  UNL     1      18.497  34.030  17.640  1.00  0.00     0.025 A 
HETATM    9  C4  UNL     1      18.573  35.021  18.604  1.00  0.00     0.004 A 
HETATM   10  C3  UNL     1      17.807  36.154  18.441  1.00  0.00     0.037 A 
HETATM   11  C2  UNL     1      16.986  36.266  17.321  1.00  0.00     0.069 A 
HETATM   12  C29 UNL     1      16.931  35.259  16.375  1.00  0.00     0.061 A 
BRANCH  11  13
HETATM   13  O1  UNL     1      16.237  37.424  17.204  1.00  0.00    -0.356 OA
HETATM   14  C1  UNL     1      16.862  38.676  17.230  1.00  0.00     0.210 C 
ENDBRANCH  11  13
ENDBRANCH   4   7
ENDBRANCH   3   4
BRANCH   3  15
HETATM   15  C7  UNL     1      20.009  32.104  14.378  1.00  0.00     0.122 C 
BRANCH  15  16
HETATM   16  C8  UNL     1      21.372  32.463  14.939  1.00  0.00     0.021 A 
HETATM   17  C9  UNL     1      22.589  32.103  14.431  1.00  0.00     0.021 A 
HETATM   18  C10 UNL     1      23.687  32.531  15.096  1.00  0.00     0.008 A 
HETATM   19  C11 UNL     1      23.476  33.285  16.217  1.00  0.00     0.050 A 
HETATM   20  S2  UNL     1      21.779  33.376  16.312  1.00  0.00    -0.101 SA
ENDBRANCH  15  16
ENDBRANCH   3  15
ENDBRANCH   2   3
ENDBRANCH   1   2
BRANCH   1  21
HETATM   21  O4  UNL     1      20.067  28.512  16.140  1.00  0.00    -0.392 OA
ATOM     22  H4  UNL     1      19.917  28.548  17.077  1.00  0.00     0.210 HD
ENDBRANCH   1  21
BRANCH   1  23
HETATM   23  C14 UNL     1      19.626  29.417  14.015  1.00  0.00     0.119 C 
BRANCH  23  24
HETATM   24  C15 UNL     1      18.236  28.901  13.796  1.00  0.00     0.066 C 
BRANCH  24  25
HETATM   25  C16 UNL     1      18.101  28.198  12.498  1.00  0.00    -0.056 A 
HETATM   26  C17 UNL     1      17.857  28.913  11.359  1.00  0.00     0.007 A 
HETATM   27  C18 UNL     1      17.728  28.272  10.140  1.00  0.00     0.001 A 
HETATM   28  C19 UNL     1      17.844  26.918  10.065  1.00  0.00     0.000 A 
HETATM   29  C20 UNL     1      18.095  26.158  11.215  1.00  0.00     0.001 A 
HETATM   30  C21 UNL     1      18.218  26.836  12.418  1.00  0.00     0.007 A 
ENDBRANCH  24  25
ENDBRANCH  23  24
BRANCH  23  31
HETATM   31  N2  UNL     1      20.635  28.436  13.584  1.00  0.00    -0.349 N 
HETATM   32  C22 UNL     1      21.505  28.701  12.507  1.00  0.00     0.252 C 
HETATM   33  O5  UNL     1      21.377  29.819  11.930  1.00  0.00    -0.268 OA
ATOM     34  H2  UNL     1      20.706  27.545  14.075  1.00  0.00     0.163 HD
BRANCH  32  35
HETATM   35  C23 UNL     1      22.525  27.743  12.052  1.00  0.00     0.034 A 
HETATM   36  C24 UNL     1      23.831  27.837  12.429  1.00  0.00     0.020 A 
HETATM   37  C25 UNL     1      24.758  26.915  11.983  1.00  0.00     0.040 A 
HETATM   38  C26 UNL     1      24.404  25.882  11.155  1.00  0.00     0.098 A 
HETATM   39  C27 UNL     1      23.072  25.788  10.771  1.00  0.00     0.099 A 
HETATM   40  C28 UNL     1      22.140  26.723  11.225  1.00  0.00     0.056 A 
BRANCH  38  41
HETATM   41  O6  UNL     1      25.344  24.972  10.721  1.00  0.00    -0.358 OA
ATOM     42  H6  UNL     1      25.431  24.766   9.798  1.00  0.00     0.217 HD
ENDBRANCH  38  41
BRANCH  39  43
HETATM   43  O7  UNL     1      22.740  24.741   9.939  1.00  0.00    -0.358 OA
ATOM     44  H7  UNL     1      23.313  23.984   9.958  1.00  0.00     0.217 HD
ENDBRANCH  39  43
ENDBRANCH  32  35
ENDBRANCH  23  31
ENDBRANCH   1  23
TORSDOF 15
ENDMDL
