MODEL 6
REMARK VINA RESULT: -9.141687931      2.862      9.498
REMARK  15 active torsions:
REMARK  status: ('A' for Active; 'I' for Inactive)
REMARK    1  A    between atoms: C2_2  and  C3_3 
REMARK    2  A    between atoms: C3_3  and  C5_5 
REMARK    3  A    between atoms: C5_5  and  N1_6 
REMARK    4  A    between atoms: N1_6  and  C6_7 
REMARK    5  A    between atoms: N1_6  and  S1_29 
REMARK    6  A    between atoms: C6_7  and  C7_8 
REMARK    7  A    between atoms: C7_8  and  O1_9 
REMARK    8  A    between atoms: C7_8  and  C8_11 
REMARK    9  A    between atoms: C8_11  and  C9_12 
REMARK   10  A    between atoms: C8_11  and  N2_19 
REMARK   11  A    between atoms: C9_12  and  C10_13 
REMARK       I    between atoms: N2_19  and  C16_21 
REMARK   12  A    between atoms: C16_21  and  C17_23 
REMARK   13  A    between atoms: C17_23  and  O3_24 
REMARK   14  A    between atoms: C17_23  and  C18_26 
REMARK   15  A    between atoms: S1_29  and  C21_32 
ROOT
HETATM    1  C7  UNL     1      18.520  29.403  13.664  1.00  0.00     0.155 C 
ENDROOT
BRANCH   1   2
HETATM    2  C6  UNL     1      19.809  28.622  13.704  1.00  0.00     0.141 C 
BRANCH   2   3
HETATM    3  N1  UNL     1      20.322  28.244  12.427  1.00  0.00    -0.204 NA
BRANCH   3   4
HETATM    4  C5  UNL     1      19.424  28.764  11.423  1.00  0.00     0.112 C 
BRANCH   4   5
HETATM    5  C3  UNL     1      18.984  27.727  10.422  1.00  0.00    -0.005 C 
HETATM    6  C4  UNL     1      18.277  26.601  11.147  1.00  0.00     0.011 C 
BRANCH   5   7
HETATM    7  C2  UNL     1      17.925  28.394   9.543  1.00  0.00     0.001 C 
HETATM    8  C1  UNL     1      16.869  29.067  10.384  1.00  0.00     0.005 C 
ENDBRANCH   5   7
ENDBRANCH   4   5
ENDBRANCH   3   4
BRANCH   3   9
HETATM    9  S1  UNL     1      21.895  28.882  12.120  1.00  0.00     0.243 S 
HETATM   10  O4  UNL     1      21.835  30.262  11.504  1.00  0.00    -0.206 OA
HETATM   11  O5  UNL     1      22.547  29.097  13.481  1.00  0.00    -0.206 OA
BRANCH   9  12
HETATM   12  C21 UNL     1      22.863  27.801  11.156  1.00  0.00     0.076 A 
HETATM   13  C22 UNL     1      24.023  27.244  11.651  1.00  0.00     0.027 A 
HETATM   14  C23 UNL     1      24.823  26.394  10.969  1.00  0.00     0.032 A 
HETATM   15  C24 UNL     1      24.485  26.023   9.650  1.00  0.00     0.049 A 
HETATM   16  N3  UNL     1      25.170  25.212   8.887  1.00  0.00    -0.359 N 
HETATM   17  C26 UNL     1      23.338  26.559   9.131  1.00  0.00     0.034 A 
HETATM   18  C25 UNL     1      24.749  24.940   7.665  1.00  0.00     0.139 A 
ATOM     19  H3  UNL     1      26.031  24.790   9.235  1.00  0.00     0.166 HD
HETATM   20  S2  UNL     1      23.312  25.866   7.571  1.00  0.00    -0.083 SA
HETATM   21  C27 UNL     1      22.534  27.436   9.868  1.00  0.00     0.046 A 
ENDBRANCH   9  12
ENDBRANCH   3   9
ENDBRANCH   2   3
ENDBRANCH   1   2
BRANCH   1  22
HETATM   22  O1  UNL     1      17.539  28.873  14.495  1.00  0.00    -0.392 OA
ATOM     23  H1  UNL     1      17.361  27.957  14.320  1.00  0.00     0.210 HD
ENDBRANCH   1  22
BRANCH   1  24
HETATM   24  C8  UNL     1      18.800  30.796  14.195  1.00  0.00     0.118 C 
BRANCH  24  25
HETATM   25  C9  UNL     1      18.072  31.866  13.436  1.00  0.00     0.066 C 
BRANCH  25  26
HETATM   26  C10 UNL     1      17.212  32.709  14.324  1.00  0.00    -0.056 A 
HETATM   27  C11 UNL     1      16.418  32.093  15.262  1.00  0.00     0.007 A 
HETATM   28  C12 UNL     1      15.598  32.809  16.116  1.00  0.00     0.001 A 
HETATM   29  C13 UNL     1      15.613  34.181  15.982  1.00  0.00     0.000 A 
HETATM   30  C14 UNL     1      16.398  34.825  15.050  1.00  0.00     0.001 A 
HETATM   31  C15 UNL     1      17.193  34.070  14.227  1.00  0.00     0.007 A 
ENDBRANCH  25  26
ENDBRANCH  24  25
BRANCH  24  32
HETATM   32  N2  UNL     1      20.212  31.121  14.153  1.00  0.00    -0.351 N 
HETATM   33  C16 UNL     1      20.893  31.700  15.267  1.00  0.00     0.247 C 
HETATM   34  O2  UNL     1      20.194  31.912  16.291  1.00  0.00    -0.271 OA
ATOM     35  H2  UNL     1      20.736  30.929  13.300  1.00  0.00     0.163 HD
BRANCH  33  36
HETATM   36  C17 UNL     1      22.342  32.039  15.236  1.00  0.00     0.213 C 
BRANCH  36  37
HETATM   37  O3  UNL     1      22.847  31.918  13.944  1.00  0.00    -0.386 OA
ATOM     38  H3  UNL     1      23.744  32.227  13.904  1.00  0.00     0.210 HD
ENDBRANCH  36  37
BRANCH  36  39
HETATM   39  C18 UNL     1      22.562  33.454  15.697  1.00  0.00     0.015 C 
HETATM   40  C19 UNL     1      21.712  34.399  14.886  1.00  0.00     0.012 C 
HETATM   41  C20 UNL     1      23.997  33.877  15.625  1.00  0.00     0.012 C 
ENDBRANCH  36  39
ENDBRANCH  33  36
ENDBRANCH  24  32
ENDBRANCH   1  24
TORSDOF 15
ENDMDL
