MODEL 2
REMARK VINA RESULT: -9.301545957      3.136     10.006
REMARK  15 active torsions:
REMARK  status: ('A' for Active; 'I' for Inactive)
REMARK    1  A    between atoms: C2_2  and  C3_3 
REMARK    2  A    between atoms: C3_3  and  C5_5 
REMARK    3  A    between atoms: C5_5  and  N1_6 
REMARK    4  A    between atoms: N1_6  and  C6_7 
REMARK    5  A    between atoms: N1_6  and  S1_29 
REMARK    6  A    between atoms: C6_7  and  C7_8 
REMARK    7  A    between atoms: C7_8  and  O1_9 
REMARK    8  A    between atoms: C7_8  and  C8_11 
REMARK    9  A    between atoms: C8_11  and  C9_12 
REMARK   10  A    between atoms: C8_11  and  N2_19 
REMARK   11  A    between atoms: C9_12  and  C10_13 
REMARK       I    between atoms: N2_19  and  C16_21 
REMARK   12  A    between atoms: C16_21  and  C17_23 
REMARK   13  A    between atoms: C17_23  and  O3_24 
REMARK   14  A    between atoms: C17_23  and  C18_26 
REMARK   15  A    between atoms: S1_29  and  C21_32 
ROOT
HETATM    1  C7  UNL     1      17.817  31.290  14.762  1.00  0.00     0.155 C 
ENDROOT
BRANCH   1   2
HETATM    2  C6  UNL     1      19.201  30.732  14.546  1.00  0.00     0.141 C 
BRANCH   2   3
HETATM    3  N1  UNL     1      19.415  30.137  13.266  1.00  0.00    -0.204 NA
BRANCH   3   4
HETATM    4  C5  UNL     1      18.220  30.343  12.482  1.00  0.00     0.112 C 
BRANCH   4   5
HETATM    5  C3  UNL     1      17.896  29.183  11.575  1.00  0.00    -0.005 C 
HETATM    6  C4  UNL     1      17.672  27.941  12.412  1.00  0.00     0.011 C 
BRANCH   5   7
HETATM    7  C2  UNL     1      16.549  29.504  10.926  1.00  0.00     0.001 C 
HETATM    8  C1  UNL     1      15.806  28.241  10.566  1.00  0.00     0.005 C 
ENDBRANCH   5   7
ENDBRANCH   4   5
ENDBRANCH   3   4
BRANCH   3   9
HETATM    9  S1  UNL     1      20.741  30.840  12.413  1.00  0.00     0.243 S 
HETATM   10  O4  UNL     1      20.277  31.728  11.281  1.00  0.00    -0.206 OA
HETATM   11  O5  UNL     1      21.426  31.790  13.389  1.00  0.00    -0.206 OA
BRANCH   9  12
HETATM   12  C21 UNL     1      21.869  29.637  11.854  1.00  0.00     0.076 A 
HETATM   13  C22 UNL     1      22.655  28.927  12.737  1.00  0.00     0.027 A 
HETATM   14  C23 UNL     1      23.549  27.976  12.382  1.00  0.00     0.032 A 
HETATM   15  C24 UNL     1      23.723  27.655  11.019  1.00  0.00     0.049 A 
HETATM   16  N3  UNL     1      24.549  26.759  10.547  1.00  0.00    -0.359 N 
HETATM   17  C26 UNL     1      22.956  28.343  10.119  1.00  0.00     0.034 A 
HETATM   18  C25 UNL     1      24.621  26.547   9.245  1.00  0.00     0.139 A 
ATOM     19  H3  UNL     1      25.138  26.223  11.184  1.00  0.00     0.166 HD
HETATM   20  S2  UNL     1      23.470  27.661   8.640  1.00  0.00    -0.083 SA
HETATM   21  C27 UNL     1      22.040  29.322  10.523  1.00  0.00     0.046 A 
ENDBRANCH   9  12
ENDBRANCH   3   9
ENDBRANCH   2   3
ENDBRANCH   1   2
BRANCH   1  22
HETATM   22  O1  UNL     1      17.119  30.634  15.771  1.00  0.00    -0.392 OA
ATOM     23  H1  UNL     1      16.551  29.948  15.442  1.00  0.00     0.210 HD
ENDBRANCH   1  22
BRANCH   1  24
HETATM   24  C8  UNL     1      17.959  32.726  15.227  1.00  0.00     0.118 C 
BRANCH  24  25
HETATM   25  C9  UNL     1      16.888  33.624  14.682  1.00  0.00     0.066 C 
BRANCH  25  26
HETATM   26  C10 UNL     1      16.206  34.413  15.755  1.00  0.00    -0.056 A 
HETATM   27  C11 UNL     1      15.398  33.757  16.653  1.00  0.00     0.007 A 
HETATM   28  C12 UNL     1      14.735  34.422  17.670  1.00  0.00     0.001 A 
HETATM   29  C13 UNL     1      14.925  35.786  17.742  1.00  0.00     0.000 A 
HETATM   30  C14 UNL     1      15.729  36.469  16.856  1.00  0.00     0.001 A 
HETATM   31  C15 UNL     1      16.363  35.764  15.866  1.00  0.00     0.007 A 
ENDBRANCH  25  26
ENDBRANCH  24  25
BRANCH  24  32
HETATM   32  N2  UNL     1      19.236  33.297  14.849  1.00  0.00    -0.351 N 
HETATM   33  C16 UNL     1      20.004  34.106  15.743  1.00  0.00     0.247 C 
HETATM   34  O2  UNL     1      19.505  34.293  16.883  1.00  0.00    -0.271 OA
ATOM     35  H2  UNL     1      19.599  33.117  13.914  1.00  0.00     0.163 HD
BRANCH  33  36
HETATM   36  C17 UNL     1      21.315  34.699  15.365  1.00  0.00     0.213 C 
BRANCH  36  37
HETATM   37  O3  UNL     1      21.315  36.074  15.582  1.00  0.00    -0.386 OA
ATOM     38  H3  UNL     1      21.110  36.540  14.781  1.00  0.00     0.210 HD
ENDBRANCH  36  37
BRANCH  36  39
HETATM   39  C18 UNL     1      22.423  34.093  16.184  1.00  0.00     0.015 C 
HETATM   40  C19 UNL     1      22.781  35.011  17.325  1.00  0.00     0.012 C 
HETATM   41  C20 UNL     1      23.647  33.787  15.379  1.00  0.00     0.012 C 
ENDBRANCH  36  39
ENDBRANCH  33  36
ENDBRANCH  24  32
ENDBRANCH   1  24
TORSDOF 15
ENDMDL
