MODEL 4
REMARK VINA RESULT: -9.281362383      3.181      9.971
REMARK  15 active torsions:
REMARK  status: ('A' for Active; 'I' for Inactive)
REMARK    1  A    between atoms: C2_2  and  C3_3 
REMARK    2  A    between atoms: C3_3  and  C5_5 
REMARK    3  A    between atoms: C5_5  and  N1_6 
REMARK    4  A    between atoms: N1_6  and  C6_7 
REMARK    5  A    between atoms: N1_6  and  S1_29 
REMARK    6  A    between atoms: C6_7  and  C7_8 
REMARK    7  A    between atoms: C7_8  and  O1_9 
REMARK    8  A    between atoms: C7_8  and  C8_11 
REMARK    9  A    between atoms: C8_11  and  C9_12 
REMARK   10  A    between atoms: C8_11  and  N2_19 
REMARK   11  A    between atoms: C9_12  and  C10_13 
REMARK       I    between atoms: N2_19  and  C16_21 
REMARK   12  A    between atoms: C16_21  and  C17_23 
REMARK   13  A    between atoms: C17_23  and  O3_24 
REMARK   14  A    between atoms: C17_23  and  C18_26 
REMARK   15  A    between atoms: S1_29  and  C21_32 
ROOT
HETATM    1  C7  UNL     1      17.894  31.109  14.862  1.00  0.00     0.155 C 
ENDROOT
BRANCH   1   2
HETATM    2  C6  UNL     1      19.270  30.493  14.908  1.00  0.00     0.141 C 
BRANCH   2   3
HETATM    3  N1  UNL     1      19.721  29.939  13.672  1.00  0.00    -0.204 NA
BRANCH   3   4
HETATM    4  C5  UNL     1      18.743  30.267  12.662  1.00  0.00     0.112 C 
BRANCH   4   5
HETATM    5  C3  UNL     1      18.296  29.074  11.856  1.00  0.00    -0.005 C 
HETATM    6  C4  UNL     1      17.903  27.954  12.796  1.00  0.00     0.011 C 
BRANCH   5   7
HETATM    7  C2  UNL     1      17.012  29.492  11.138  1.00  0.00     0.001 C 
HETATM    8  C1  UNL     1      16.322  28.300  10.524  1.00  0.00     0.005 C 
ENDBRANCH   5   7
ENDBRANCH   4   5
ENDBRANCH   3   4
BRANCH   3   9
HETATM    9  S1  UNL     1      21.244  30.576  13.168  1.00  0.00     0.243 S 
HETATM   10  O4  UNL     1      21.111  31.965  12.588  1.00  0.00    -0.206 OA
HETATM   11  O5  UNL     1      22.072  30.766  14.434  1.00  0.00    -0.206 OA
BRANCH   9  12
HETATM   12  C21 UNL     1      22.067  29.506  12.068  1.00  0.00     0.076 A 
HETATM   13  C22 UNL     1      21.847  29.568  10.708  1.00  0.00     0.027 A 
HETATM   14  C23 UNL     1      22.449  28.778   9.791  1.00  0.00     0.032 A 
HETATM   15  C24 UNL     1      23.379  27.804  10.211  1.00  0.00     0.049 A 
HETATM   16  N3  UNL     1      24.028  26.982   9.430  1.00  0.00    -0.359 N 
HETATM   17  C26 UNL     1      23.619  27.718  11.556  1.00  0.00     0.034 A 
HETATM   18  C25 UNL     1      24.876  26.111   9.944  1.00  0.00     0.139 A 
ATOM     19  H3  UNL     1      23.879  27.013   8.421  1.00  0.00     0.166 HD
HETATM   20  S2  UNL     1      24.767  26.455  11.618  1.00  0.00    -0.083 SA
HETATM   21  C27 UNL     1      22.976  28.554  12.476  1.00  0.00     0.046 A 
ENDBRANCH   9  12
ENDBRANCH   3   9
ENDBRANCH   2   3
ENDBRANCH   1   2
BRANCH   1  22
HETATM   22  O1  UNL     1      17.011  30.532  15.769  1.00  0.00    -0.392 OA
ATOM     23  H1  UNL     1      16.743  31.130  16.456  1.00  0.00     0.210 HD
ENDBRANCH   1  22
BRANCH   1  24
HETATM   24  C8  UNL     1      18.018  32.562  15.277  1.00  0.00     0.118 C 
BRANCH  24  25
HETATM   25  C9  UNL     1      16.928  33.424  14.711  1.00  0.00     0.066 C 
BRANCH  25  26
HETATM   26  C10 UNL     1      16.253  34.251  15.760  1.00  0.00    -0.056 A 
HETATM   27  C11 UNL     1      15.503  33.621  16.723  1.00  0.00     0.007 A 
HETATM   28  C12 UNL     1      14.851  34.321  17.723  1.00  0.00     0.001 A 
HETATM   29  C13 UNL     1      14.989  35.693  17.709  1.00  0.00     0.000 A 
HETATM   30  C14 UNL     1      15.735  36.351  16.755  1.00  0.00     0.001 A 
HETATM   31  C15 UNL     1      16.361  35.611  15.785  1.00  0.00     0.007 A 
ENDBRANCH  25  26
ENDBRANCH  24  25
BRANCH  24  32
HETATM   32  N2  UNL     1      19.283  33.140  14.868  1.00  0.00    -0.351 N 
HETATM   33  C16 UNL     1      20.063  33.960  15.739  1.00  0.00     0.247 C 
HETATM   34  O2  UNL     1      19.586  34.153  16.887  1.00  0.00    -0.271 OA
ATOM     35  H2  UNL     1      19.627  32.954  13.926  1.00  0.00     0.163 HD
BRANCH  33  36
HETATM   36  C17 UNL     1      21.362  34.559  15.329  1.00  0.00     0.213 C 
BRANCH  36  37
HETATM   37  O3  UNL     1      21.347  35.940  15.513  1.00  0.00    -0.386 OA
ATOM     38  H3  UNL     1      20.807  36.360  14.854  1.00  0.00     0.210 HD
ENDBRANCH  36  37
BRANCH  36  39
HETATM   39  C18 UNL     1      22.487  33.988  16.149  1.00  0.00     0.015 C 
HETATM   40  C19 UNL     1      22.796  34.901  17.308  1.00  0.00     0.012 C 
HETATM   41  C20 UNL     1      23.730  33.748  15.350  1.00  0.00     0.012 C 
ENDBRANCH  36  39
ENDBRANCH  33  36
ENDBRANCH  24  32
ENDBRANCH   1  24
TORSDOF 15
ENDMDL
