MODEL 12
REMARK VINA RESULT: -8.826449629      2.383      4.869
REMARK  15 active torsions:
REMARK  status: ('A' for Active; 'I' for Inactive)
REMARK    1  A    between atoms: C2_2  and  C3_3 
REMARK    2  A    between atoms: C3_3  and  C5_5 
REMARK    3  A    between atoms: C5_5  and  N1_6 
REMARK    4  A    between atoms: N1_6  and  C6_7 
REMARK    5  A    between atoms: N1_6  and  S1_29 
REMARK    6  A    between atoms: C6_7  and  C7_8 
REMARK    7  A    between atoms: C7_8  and  O1_9 
REMARK    8  A    between atoms: C7_8  and  C8_11 
REMARK    9  A    between atoms: C8_11  and  C9_12 
REMARK   10  A    between atoms: C8_11  and  N2_19 
REMARK   11  A    between atoms: C9_12  and  C10_13 
REMARK       I    between atoms: N2_19  and  C16_21 
REMARK   12  A    between atoms: C16_21  and  C17_23 
REMARK   13  A    between atoms: C17_23  and  O3_24 
REMARK   14  A    between atoms: C17_23  and  C18_26 
REMARK   15  A    between atoms: S1_29  and  C21_32 
ROOT
HETATM    1  C7  UNL     1      20.773  30.198  14.270  1.00  0.00     0.155 C 
ENDROOT
BRANCH   1   2
HETATM    2  C6  UNL     1      19.761  30.437  15.363  1.00  0.00     0.141 C 
BRANCH   2   3
HETATM    3  N1  UNL     1      19.408  31.805  15.565  1.00  0.00    -0.204 NA
BRANCH   3   4
HETATM    4  C5  UNL     1      20.272  32.608  14.732  1.00  0.00     0.112 C 
BRANCH   4   5
HETATM    5  C3  UNL     1      21.126  33.572  15.515  1.00  0.00    -0.005 C 
HETATM    6  C4  UNL     1      21.737  32.851  16.699  1.00  0.00     0.011 C 
BRANCH   5   7
HETATM    7  C2  UNL     1      22.294  33.954  14.606  1.00  0.00     0.001 C 
HETATM    8  C1  UNL     1      23.346  32.872  14.589  1.00  0.00     0.005 C 
ENDBRANCH   5   7
ENDBRANCH   4   5
ENDBRANCH   3   4
BRANCH   3   9
HETATM    9  S1  UNL     1      17.774  32.148  15.127  1.00  0.00     0.243 S 
HETATM   10  O4  UNL     1      17.643  32.493  13.661  1.00  0.00    -0.206 OA
HETATM   11  O5  UNL     1      17.003  30.842  15.284  1.00  0.00    -0.206 OA
BRANCH   9  12
HETATM   12  C21 UNL     1      17.073  33.384  16.134  1.00  0.00     0.076 A 
HETATM   13  C22 UNL     1      15.842  33.209  16.731  1.00  0.00     0.027 A 
HETATM   14  C23 UNL     1      15.235  34.117  17.528  1.00  0.00     0.032 A 
HETATM   15  C24 UNL     1      15.871  35.347  17.797  1.00  0.00     0.049 A 
HETATM   16  N3  UNL     1      15.394  36.304  18.548  1.00  0.00    -0.359 N 
HETATM   17  C26 UNL     1      17.095  35.549  17.219  1.00  0.00     0.034 A 
HETATM   18  C25 UNL     1      16.087  37.414  18.725  1.00  0.00     0.139 A 
ATOM     19  H3  UNL     1      14.486  36.193  18.998  1.00  0.00     0.166 HD
HETATM   20  S2  UNL     1      17.489  37.110  17.790  1.00  0.00    -0.083 SA
HETATM   21  C27 UNL     1      17.693  34.586  16.398  1.00  0.00     0.046 A 
ENDBRANCH   9  12
ENDBRANCH   3   9
ENDBRANCH   2   3
ENDBRANCH   1   2
BRANCH   1  22
HETATM   22  O1  UNL     1      21.941  29.601  14.734  1.00  0.00    -0.392 OA
ATOM     23  H1  UNL     1      21.787  28.991  15.445  1.00  0.00     0.210 HD
ENDBRANCH   1  22
BRANCH   1  24
HETATM   24  C8  UNL     1      20.173  29.215  13.284  1.00  0.00     0.118 C 
BRANCH  24  25
HETATM   25  C9  UNL     1      18.902  28.593  13.783  1.00  0.00     0.066 C 
BRANCH  25  26
HETATM   26  C10 UNL     1      17.890  28.415  12.694  1.00  0.00    -0.056 A 
HETATM   27  C11 UNL     1      17.582  29.486  11.890  1.00  0.00     0.007 A 
HETATM   28  C12 UNL     1      16.656  29.395  10.865  1.00  0.00     0.001 A 
HETATM   29  C13 UNL     1      16.051  28.169  10.687  1.00  0.00     0.000 A 
HETATM   30  C14 UNL     1      16.340  27.078  11.478  1.00  0.00     0.001 A 
HETATM   31  C15 UNL     1      17.265  27.221  12.481  1.00  0.00     0.007 A 
ENDBRANCH  25  26
ENDBRANCH  24  25
BRANCH  24  32
HETATM   32  N2  UNL     1      21.086  28.136  12.966  1.00  0.00    -0.351 N 
HETATM   33  C16 UNL     1      21.413  27.785  11.620  1.00  0.00     0.247 C 
HETATM   34  O2  UNL     1      20.859  28.471  10.723  1.00  0.00    -0.271 OA
ATOM     35  H2  UNL     1      21.511  27.609  13.729  1.00  0.00     0.163 HD
BRANCH  33  36
HETATM   36  C17 UNL     1      22.348  26.678  11.282  1.00  0.00     0.213 C 
BRANCH  36  37
HETATM   37  O3  UNL     1      21.963  26.052  10.100  1.00  0.00    -0.386 OA
ATOM     38  H3  UNL     1      21.105  25.656  10.194  1.00  0.00     0.210 HD
ENDBRANCH  36  37
BRANCH  36  39
HETATM   39  C18 UNL     1      23.745  27.206  11.101  1.00  0.00     0.015 C 
HETATM   40  C19 UNL     1      23.959  27.619   9.667  1.00  0.00     0.012 C 
HETATM   41  C20 UNL     1      24.800  26.224  11.508  1.00  0.00     0.012 C 
ENDBRANCH  36  39
ENDBRANCH  33  36
ENDBRANCH  24  32
ENDBRANCH   1  24
TORSDOF 15
ENDMDL
