MODEL 2
REMARK VINA RESULT: -8.603308074      2.702      6.861
REMARK  14 active torsions:
REMARK  status: ('A' for Active; 'I' for Inactive)
REMARK    1  A    between atoms: C2_2  and  C3_3 
REMARK    2  A    between atoms: C3_3  and  C5_5 
REMARK    3  A    between atoms: C5_5  and  N1_6 
REMARK    4  A    between atoms: N1_6  and  C6_7 
REMARK    5  A    between atoms: N1_6  and  S1_31 
REMARK    6  A    between atoms: C6_7  and  C7_8 
REMARK    7  A    between atoms: C7_8  and  O1_9 
REMARK    8  A    between atoms: C7_8  and  C8_11 
REMARK    9  A    between atoms: C8_11  and  C9_12 
REMARK   10  A    between atoms: C8_11  and  N2_19 
REMARK   11  A    between atoms: C9_12  and  C10_13 
REMARK       I    between atoms: N2_19  and  C16_21 
REMARK   12  A    between atoms: C16_21  and  C17_23 
REMARK   13  A    between atoms: C21_27  and  O3_28 
REMARK   14  A    between atoms: S1_31  and  C23_34 
ROOT
HETATM    1  C7  UNL     1      19.925  30.031  15.733  1.00  0.00     0.180 C 
ENDROOT
BRANCH   1   2
HETATM    2  C6  UNL     1      18.925  30.986  16.312  1.00  0.00     0.115 C 
BRANCH   2   3
HETATM    3  N1  UNL     1      19.102  32.350  16.013  1.00  0.00    -0.263 N 
BRANCH   3   4
HETATM    4  C5  UNL     1      20.361  32.852  15.686  1.00  0.00     0.085 C 
BRANCH   4   5
HETATM    5  C3  UNL     1      20.989  33.675  16.758  1.00  0.00     0.021 C 
HETATM    6  C4  UNL     1      22.224  32.959  17.330  1.00  0.00     0.015 C 
BRANCH   5   7
HETATM    7  C2  UNL     1      21.358  35.075  16.359  1.00  0.00     0.005 C 
HETATM    8  C1  UNL     1      22.055  35.798  17.506  1.00  0.00     0.006 C 
ENDBRANCH   5   7
ENDBRANCH   4   5
ENDBRANCH   3   4
BRANCH   3   9
HETATM    9  S1  UNL     1      17.709  33.136  15.504  1.00  0.00     0.267 S 
HETATM   10  O4  UNL     1      17.965  33.798  14.158  1.00  0.00    -0.200 OA
HETATM   11  O5  UNL     1      16.679  32.046  15.178  1.00  0.00    -0.200 OA
BRANCH   9  12
HETATM   12  C23 UNL     1      17.030  34.307  16.578  1.00  0.00     0.081 A 
HETATM   13  C24 UNL     1      15.794  34.128  17.166  1.00  0.00     0.027 A 
HETATM   14  C25 UNL     1      15.203  34.997  18.018  1.00  0.00     0.032 A 
HETATM   15  C26 UNL     1      15.859  36.194  18.361  1.00  0.00     0.049 A 
HETATM   16  N3  UNL     1      15.396  37.113  19.168  1.00  0.00    -0.359 N 
HETATM   17  C28 UNL     1      17.085  36.407  17.797  1.00  0.00     0.034 A 
HETATM   18  C27 UNL     1      16.111  38.197  19.411  1.00  0.00     0.139 A 
ATOM     19  H3  UNL     1      14.485  36.992  19.609  1.00  0.00     0.166 HD
HETATM   20  S2  UNL     1      17.507  37.922  18.462  1.00  0.00    -0.083 SA
HETATM   21  C29 UNL     1      17.672  35.485  16.918  1.00  0.00     0.046 A 
ENDBRANCH   9  12
ENDBRANCH   3   9
ENDBRANCH   2   3
ENDBRANCH   1   2
BRANCH   1  22
HETATM   22  O1  UNL     1      20.123  28.882  16.461  1.00  0.00    -0.388 OA
ATOM     23  H1  UNL     1      20.248  28.095  15.945  1.00  0.00     0.210 HD
ENDBRANCH   1  22
BRANCH   1  24
HETATM   24  C8  UNL     1      19.604  29.648  14.308  1.00  0.00     0.122 C 
BRANCH  24  25
HETATM   25  C9  UNL     1      18.210  29.084  14.152  1.00  0.00     0.066 C 
BRANCH  25  26
HETATM   26  C10 UNL     1      18.026  28.461  12.811  1.00  0.00    -0.056 A 
HETATM   27  C11 UNL     1      18.194  27.102  12.632  1.00  0.00     0.007 A 
HETATM   28  C12 UNL     1      18.029  26.498  11.401  1.00  0.00     0.001 A 
HETATM   29  C13 UNL     1      17.685  27.234  10.287  1.00  0.00     0.000 A 
HETATM   30  C14 UNL     1      17.513  28.592  10.452  1.00  0.00     0.001 A 
HETATM   31  C15 UNL     1      17.680  29.191  11.690  1.00  0.00     0.007 A 
ENDBRANCH  25  26
ENDBRANCH  24  25
BRANCH  24  32
HETATM   32  N2  UNL     1      20.598  28.683  13.878  1.00  0.00    -0.349 N 
HETATM   33  C16 UNL     1      21.401  28.952  12.717  1.00  0.00     0.252 C 
HETATM   34  O2  UNL     1      21.213  30.051  12.089  1.00  0.00    -0.268 OA
ATOM     35  H2  UNL     1      20.727  27.815  14.398  1.00  0.00     0.163 HD
BRANCH  33  36
HETATM   36  C17 UNL     1      22.414  28.052  12.214  1.00  0.00     0.034 A 
HETATM   37  C18 UNL     1      23.752  28.258  12.447  1.00  0.00     0.017 A 
HETATM   38  C19 UNL     1      24.704  27.366  11.943  1.00  0.00     0.004 A 
HETATM   39  C20 UNL     1      24.320  26.267  11.206  1.00  0.00     0.036 A 
HETATM   40  C21 UNL     1      22.977  26.057  10.970  1.00  0.00     0.066 A 
HETATM   41  C22 UNL     1      22.040  26.955  11.479  1.00  0.00     0.053 A 
BRANCH  40  42
HETATM   42  O3  UNL     1      22.574  24.957  10.232  1.00  0.00    -0.361 OA
ATOM     43  H3  UNL     1      21.905  25.058   9.564  1.00  0.00     0.217 HD
ENDBRANCH  40  42
ENDBRANCH  33  36
ENDBRANCH  24  32
ENDBRANCH   1  24
TORSDOF 14
ENDMDL
