MODEL 3
REMARK VINA RESULT: -8.539478981      2.146      5.635
REMARK  14 active torsions:
REMARK  status: ('A' for Active; 'I' for Inactive)
REMARK    1  A    between atoms: C2_2  and  C3_3 
REMARK    2  A    between atoms: C3_3  and  C5_5 
REMARK    3  A    between atoms: C5_5  and  N1_6 
REMARK    4  A    between atoms: N1_6  and  C6_7 
REMARK    5  A    between atoms: N1_6  and  S1_31 
REMARK    6  A    between atoms: C6_7  and  C7_8 
REMARK    7  A    between atoms: C7_8  and  O1_9 
REMARK    8  A    between atoms: C7_8  and  C8_11 
REMARK    9  A    between atoms: C8_11  and  C9_12 
REMARK   10  A    between atoms: C8_11  and  N2_19 
REMARK   11  A    between atoms: C9_12  and  C10_13 
REMARK       I    between atoms: N2_19  and  C16_21 
REMARK   12  A    between atoms: C16_21  and  C17_23 
REMARK   13  A    between atoms: C21_27  and  O3_28 
REMARK   14  A    between atoms: S1_31  and  C23_34 
ROOT
HETATM    1  C7  UNL     1      19.946  30.646  16.036  1.00  0.00     0.180 C 
ENDROOT
BRANCH   1   2
HETATM    2  C6  UNL     1      20.294  31.881  16.811  1.00  0.00     0.115 C 
BRANCH   2   3
HETATM    3  N1  UNL     1      20.978  32.895  16.115  1.00  0.00    -0.263 N 
BRANCH   3   4
HETATM    4  C5  UNL     1      20.866  33.013  14.731  1.00  0.00     0.085 C 
BRANCH   4   5
HETATM    5  C3  UNL     1      22.013  32.442  13.972  1.00  0.00     0.021 C 
HETATM    6  C4  UNL     1      23.133  32.011  14.935  1.00  0.00     0.015 C 
BRANCH   5   7
HETATM    7  C2  UNL     1      21.673  31.302  13.054  1.00  0.00     0.005 C 
HETATM    8  C1  UNL     1      22.243  29.992  13.585  1.00  0.00     0.006 C 
ENDBRANCH   5   7
ENDBRANCH   4   5
ENDBRANCH   3   4
BRANCH   3   9
HETATM    9  S1  UNL     1      21.397  34.221  17.056  1.00  0.00     0.267 S 
HETATM   10  O4  UNL     1      22.225  33.756  18.244  1.00  0.00    -0.200 OA
HETATM   11  O5  UNL     1      22.387  35.055  16.232  1.00  0.00    -0.200 OA
BRANCH   9  12
HETATM   12  C23 UNL     1      20.106  35.213  17.634  1.00  0.00     0.081 A 
HETATM   13  C24 UNL     1      18.945  34.673  18.151  1.00  0.00     0.027 A 
HETATM   14  C25 UNL     1      17.898  35.386  18.625  1.00  0.00     0.032 A 
HETATM   15  C26 UNL     1      17.946  36.792  18.611  1.00  0.00     0.049 A 
HETATM   16  N3  UNL     1      17.003  37.592  19.038  1.00  0.00    -0.359 N 
HETATM   17  C28 UNL     1      19.080  37.364  18.106  1.00  0.00     0.034 A 
HETATM   18  C27 UNL     1      17.170  38.901  18.970  1.00  0.00     0.139 A 
ATOM     19  H3  UNL     1      16.141  37.206  19.421  1.00  0.00     0.166 HD
HETATM   20  S2  UNL     1      18.726  39.026  18.273  1.00  0.00    -0.083 SA
HETATM   21  C29 UNL     1      20.149  36.596  17.622  1.00  0.00     0.046 A 
ENDBRANCH   9  12
ENDBRANCH   3   9
ENDBRANCH   2   3
ENDBRANCH   1   2
BRANCH   1  22
HETATM   22  O1  UNL     1      19.852  29.496  16.784  1.00  0.00    -0.388 OA
ATOM     23  H1  UNL     1      20.580  28.894  16.690  1.00  0.00     0.210 HD
ENDBRANCH   1  22
BRANCH   1  24
HETATM   24  C8  UNL     1      18.677  30.802  15.233  1.00  0.00     0.122 C 
BRANCH  24  25
HETATM   25  C9  UNL     1      17.456  31.015  16.101  1.00  0.00     0.066 C 
BRANCH  25  26
HETATM   26  C10 UNL     1      16.903  32.388  15.929  1.00  0.00    -0.056 A 
HETATM   27  C11 UNL     1      17.430  33.251  14.989  1.00  0.00     0.007 A 
HETATM   28  C12 UNL     1      16.937  34.527  14.807  1.00  0.00     0.001 A 
HETATM   29  C13 UNL     1      15.885  34.999  15.563  1.00  0.00     0.000 A 
HETATM   30  C14 UNL     1      15.349  34.148  16.505  1.00  0.00     0.001 A 
HETATM   31  C15 UNL     1      15.849  32.867  16.682  1.00  0.00     0.007 A 
ENDBRANCH  25  26
ENDBRANCH  24  25
BRANCH  24  32
HETATM   32  N2  UNL     1      18.524  29.614  14.416  1.00  0.00    -0.349 N 
HETATM   33  C16 UNL     1      18.331  29.740  12.998  1.00  0.00     0.252 C 
HETATM   34  O2  UNL     1      18.299  30.915  12.491  1.00  0.00    -0.268 OA
ATOM     35  H2  UNL     1      18.553  28.690  14.847  1.00  0.00     0.163 HD
BRANCH  33  36
HETATM   36  C17 UNL     1      18.169  28.615  12.104  1.00  0.00     0.034 A 
HETATM   37  C18 UNL     1      17.721  28.767  10.815  1.00  0.00     0.017 A 
HETATM   38  C19 UNL     1      17.577  27.655   9.980  1.00  0.00     0.004 A 
HETATM   39  C20 UNL     1      17.881  26.390  10.431  1.00  0.00     0.036 A 
HETATM   40  C21 UNL     1      18.332  26.234  11.725  1.00  0.00     0.066 A 
HETATM   41  C22 UNL     1      18.470  27.351  12.547  1.00  0.00     0.053 A 
BRANCH  40  42
HETATM   42  O3  UNL     1      18.642  24.968  12.195  1.00  0.00    -0.361 OA
ATOM     43  H3  UNL     1      18.191  24.625  12.958  1.00  0.00     0.217 HD
ENDBRANCH  40  42
ENDBRANCH  33  36
ENDBRANCH  24  32
ENDBRANCH   1  24
TORSDOF 14
ENDMDL
