MODEL 1
REMARK VINA RESULT: -8.948979705      0.000      0.000
REMARK  14 active torsions:
REMARK  status: ('A' for Active; 'I' for Inactive)
REMARK    1  A    between atoms: C2_2  and  C3_3 
REMARK    2  A    between atoms: C3_3  and  C5_5 
REMARK    3  A    between atoms: C5_5  and  N1_6 
REMARK    4  A    between atoms: N1_6  and  C6_7 
REMARK    5  A    between atoms: N1_6  and  S1_31 
REMARK    6  A    between atoms: C6_7  and  C7_8 
REMARK    7  A    between atoms: C7_8  and  O1_9 
REMARK    8  A    between atoms: C7_8  and  C8_11 
REMARK    9  A    between atoms: C8_11  and  C9_12 
REMARK   10  A    between atoms: C8_11  and  N2_19 
REMARK   11  A    between atoms: C9_12  and  C10_13 
REMARK       I    between atoms: N2_19  and  C16_21 
REMARK   12  A    between atoms: C16_21  and  C17_23 
REMARK   13  A    between atoms: C21_27  and  O3_28 
REMARK   14  A    between atoms: S1_31  and  C23_34 
ROOT
HETATM    1  C7  UNL     1      19.900  30.716  16.264  1.00  0.00     0.180 C 
ENDROOT
BRANCH   1   2
HETATM    2  C6  UNL     1      20.453  32.043  16.688  1.00  0.00     0.115 C 
BRANCH   2   3
HETATM    3  N1  UNL     1      20.827  32.932  15.664  1.00  0.00    -0.263 N 
BRANCH   3   4
HETATM    4  C5  UNL     1      20.466  34.277  15.717  1.00  0.00     0.085 C 
BRANCH   4   5
HETATM    5  C3  UNL     1      20.484  34.862  17.087  1.00  0.00     0.021 C 
HETATM    6  C4  UNL     1      21.733  35.739  17.281  1.00  0.00     0.015 C 
BRANCH   5   7
HETATM    7  C2  UNL     1      19.258  35.641  17.469  1.00  0.00     0.005 C 
HETATM    8  C1  UNL     1      18.583  35.021  18.688  1.00  0.00     0.006 C 
ENDBRANCH   5   7
ENDBRANCH   4   5
ENDBRANCH   3   4
BRANCH   3   9
HETATM    9  S1  UNL     1      22.160  32.439  14.770  1.00  0.00     0.267 S 
HETATM   10  O4  UNL     1      22.764  33.641  14.059  1.00  0.00    -0.200 OA
HETATM   11  O5  UNL     1      23.245  32.035  15.777  1.00  0.00    -0.200 OA
BRANCH   9  12
HETATM   12  C23 UNL     1      21.909  31.179  13.614  1.00  0.00     0.081 A 
HETATM   13  C24 UNL     1      21.176  31.381  12.462  1.00  0.00     0.027 A 
HETATM   14  C25 UNL     1      20.943  30.446  11.513  1.00  0.00     0.032 A 
HETATM   15  C26 UNL     1      21.467  29.149  11.666  1.00  0.00     0.049 A 
HETATM   16  N3  UNL     1      21.313  28.160  10.825  1.00  0.00    -0.359 N 
HETATM   17  C28 UNL     1      22.199  28.911  12.795  1.00  0.00     0.034 A 
HETATM   18  C27 UNL     1      21.858  26.984  11.084  1.00  0.00     0.139 A 
ATOM     19  H3  UNL     1      20.773  28.296   9.971  1.00  0.00     0.166 HD
HETATM   20  S2  UNL     1      22.628  27.272  12.584  1.00  0.00    -0.083 SA
HETATM   21  C29 UNL     1      22.424  29.903  13.761  1.00  0.00     0.046 A 
ENDBRANCH   9  12
ENDBRANCH   3   9
ENDBRANCH   2   3
ENDBRANCH   1   2
BRANCH   1  22
HETATM   22  O1  UNL     1      19.588  29.859  17.294  1.00  0.00    -0.388 OA
ATOM     23  H1  UNL     1      19.446  28.956  17.036  1.00  0.00     0.210 HD
ENDBRANCH   1  22
BRANCH   1  24
HETATM   24  C8  UNL     1      18.693  30.849  15.368  1.00  0.00     0.122 C 
BRANCH  24  25
HETATM   25  C9  UNL     1      17.402  31.002  16.141  1.00  0.00     0.066 C 
BRANCH  25  26
HETATM   26  C10 UNL     1      16.874  32.392  16.042  1.00  0.00    -0.056 A 
HETATM   27  C11 UNL     1      17.286  33.236  15.029  1.00  0.00     0.007 A 
HETATM   28  C12 UNL     1      16.813  34.527  14.912  1.00  0.00     0.001 A 
HETATM   29  C13 UNL     1      15.898  35.035  15.810  1.00  0.00     0.000 A 
HETATM   30  C14 UNL     1      15.478  34.204  16.826  1.00  0.00     0.001 A 
HETATM   31  C15 UNL     1      15.957  32.908  16.937  1.00  0.00     0.007 A 
ENDBRANCH  25  26
ENDBRANCH  24  25
BRANCH  24  32
HETATM   32  N2  UNL     1      18.644  29.675  14.518  1.00  0.00    -0.349 N 
HETATM   33  C16 UNL     1      18.070  29.765  13.204  1.00  0.00     0.252 C 
HETATM   34  O2  UNL     1      17.611  30.896  12.818  1.00  0.00    -0.268 OA
ATOM     35  H2  UNL     1      19.017  28.786  14.852  1.00  0.00     0.163 HD
BRANCH  33  36
HETATM   36  C17 UNL     1      17.978  28.651  12.287  1.00  0.00     0.034 A 
HETATM   37  C18 UNL     1      17.566  28.810  10.987  1.00  0.00     0.017 A 
HETATM   38  C19 UNL     1      17.489  27.708  10.129  1.00  0.00     0.004 A 
HETATM   39  C20 UNL     1      17.824  26.447  10.570  1.00  0.00     0.036 A 
HETATM   40  C21 UNL     1      18.238  26.284  11.875  1.00  0.00     0.066 A 
HETATM   41  C22 UNL     1      18.310  27.391  12.719  1.00  0.00     0.053 A 
BRANCH  40  42
HETATM   42  O3  UNL     1      18.579  25.022  12.334  1.00  0.00    -0.361 OA
ATOM     43  H3  UNL     1      19.382  24.902  12.828  1.00  0.00     0.217 HD
ENDBRANCH  40  42
ENDBRANCH  33  36
ENDBRANCH  24  32
ENDBRANCH   1  24
TORSDOF 14
ENDMDL
