MODEL 4
REMARK VINA RESULT: -8.529781403      2.471      7.716
REMARK  14 active torsions:
REMARK  status: ('A' for Active; 'I' for Inactive)
REMARK    1  A    between atoms: C2_2  and  C3_3 
REMARK    2  A    between atoms: C3_3  and  C5_5 
REMARK    3  A    between atoms: C5_5  and  N1_6 
REMARK    4  A    between atoms: N1_6  and  C6_7 
REMARK    5  A    between atoms: N1_6  and  S1_31 
REMARK    6  A    between atoms: C6_7  and  C7_8 
REMARK    7  A    between atoms: C7_8  and  O1_9 
REMARK    8  A    between atoms: C7_8  and  C8_11 
REMARK    9  A    between atoms: C8_11  and  C9_12 
REMARK   10  A    between atoms: C8_11  and  N2_19 
REMARK   11  A    between atoms: C9_12  and  C10_13 
REMARK       I    between atoms: N2_19  and  C16_21 
REMARK   12  A    between atoms: C16_21  and  C17_23 
REMARK   13  A    between atoms: C21_27  and  O3_28 
REMARK   14  A    between atoms: S1_31  and  C23_34 
ROOT
HETATM    1  C7  UNL     1      19.377  31.270  15.618  1.00  0.00     0.180 C 
ENDROOT
BRANCH   1   2
HETATM    2  C6  UNL     1      20.286  32.423  15.318  1.00  0.00     0.115 C 
BRANCH   2   3
HETATM    3  N1  UNL     1      21.668  32.193  15.450  1.00  0.00    -0.263 N 
BRANCH   3   4
HETATM    4  C5  UNL     1      22.388  31.565  14.435  1.00  0.00     0.085 C 
BRANCH   4   5
HETATM    5  C3  UNL     1      21.637  30.491  13.727  1.00  0.00     0.021 C 
HETATM    6  C4  UNL     1      21.294  30.930  12.293  1.00  0.00     0.015 C 
BRANCH   5   7
HETATM    7  C2  UNL     1      22.313  29.149  13.695  1.00  0.00     0.005 C 
HETATM    8  C1  UNL     1      21.528  28.170  12.829  1.00  0.00     0.006 C 
ENDBRANCH   5   7
ENDBRANCH   4   5
ENDBRANCH   3   4
BRANCH   3   9
HETATM    9  S1  UNL     1      22.439  33.206  16.544  1.00  0.00     0.267 S 
HETATM   10  O4  UNL     1      22.808  32.415  17.791  1.00  0.00    -0.200 OA
HETATM   11  O5  UNL     1      23.799  33.569  15.933  1.00  0.00    -0.200 OA
BRANCH   9  12
HETATM   12  C23 UNL     1      21.593  34.634  17.025  1.00  0.00     0.081 A 
HETATM   13  C24 UNL     1      20.470  34.582  17.826  1.00  0.00     0.027 A 
HETATM   14  C25 UNL     1      19.761  35.655  18.244  1.00  0.00     0.032 A 
HETATM   15  C26 UNL     1      20.159  36.949  17.859  1.00  0.00     0.049 A 
HETATM   16  N3  UNL     1      19.561  38.062  18.194  1.00  0.00    -0.359 N 
HETATM   17  C28 UNL     1      21.267  37.040  17.065  1.00  0.00     0.034 A 
HETATM   18  C27 UNL     1      20.035  39.220  17.766  1.00  0.00     0.139 A 
ATOM     19  H3  UNL     1      18.730  38.038  18.785  1.00  0.00     0.166 HD
HETATM   20  S2  UNL     1      21.389  38.729  16.844  1.00  0.00    -0.083 SA
HETATM   21  C29 UNL     1      21.981  35.908  16.648  1.00  0.00     0.046 A 
ENDBRANCH   9  12
ENDBRANCH   3   9
ENDBRANCH   2   3
ENDBRANCH   1   2
BRANCH   1  22
HETATM   22  O1  UNL     1      19.407  30.826  16.920  1.00  0.00    -0.388 OA
ATOM     23  H1  UNL     1      18.779  30.145  17.127  1.00  0.00     0.210 HD
ENDBRANCH   1  22
BRANCH   1  24
HETATM   24  C8  UNL     1      17.943  31.546  15.238  1.00  0.00     0.122 C 
BRANCH  24  25
HETATM   25  C9  UNL     1      17.695  31.417  13.751  1.00  0.00     0.066 C 
BRANCH  25  26
HETATM   26  C10 UNL     1      17.787  29.997  13.309  1.00  0.00    -0.056 A 
HETATM   27  C11 UNL     1      17.822  29.673  11.967  1.00  0.00     0.007 A 
HETATM   28  C12 UNL     1      17.909  28.367  11.529  1.00  0.00     0.001 A 
HETATM   29  C13 UNL     1      17.966  27.319  12.422  1.00  0.00     0.000 A 
HETATM   30  C14 UNL     1      17.933  27.627  13.765  1.00  0.00     0.001 A 
HETATM   31  C15 UNL     1      17.846  28.941  14.197  1.00  0.00     0.007 A 
ENDBRANCH  25  26
ENDBRANCH  24  25
BRANCH  24  32
HETATM   32  N2  UNL     1      17.615  32.882  15.697  1.00  0.00    -0.349 N 
HETATM   33  C16 UNL     1      16.378  33.118  16.388  1.00  0.00     0.252 C 
HETATM   34  O2  UNL     1      15.591  32.128  16.581  1.00  0.00    -0.268 OA
ATOM     35  H2  UNL     1      18.262  33.653  15.530  1.00  0.00     0.163 HD
BRANCH  33  36
HETATM   36  C17 UNL     1      15.966  34.413  16.883  1.00  0.00     0.034 A 
HETATM   37  C18 UNL     1      14.897  34.563  17.732  1.00  0.00     0.017 A 
HETATM   38  C19 UNL     1      14.528  35.832  18.189  1.00  0.00     0.004 A 
HETATM   39  C20 UNL     1      15.228  36.952  17.799  1.00  0.00     0.036 A 
HETATM   40  C21 UNL     1      16.302  36.806  16.947  1.00  0.00     0.066 A 
HETATM   41  C22 UNL     1      16.658  35.535  16.499  1.00  0.00     0.053 A 
BRANCH  40  42
HETATM   42  O3  UNL     1      17.017  37.923  16.546  1.00  0.00    -0.361 OA
ATOM     43  H3  UNL     1      17.954  37.855  16.401  1.00  0.00     0.217 HD
ENDBRANCH  40  42
ENDBRANCH  33  36
ENDBRANCH  24  32
ENDBRANCH   1  24
TORSDOF 14
ENDMDL
