MODEL 3
REMARK VINA RESULT: -9.174696587      1.812      2.854
REMARK  16 active torsions:
REMARK  status: ('A' for Active; 'I' for Inactive)
REMARK    1  A    between atoms: C2_2  and  C3_3 
REMARK    2  A    between atoms: C3_3  and  C4_4 
REMARK    3  A    between atoms: C4_4  and  C5_5 
REMARK    4  A    between atoms: C5_5  and  N1_6 
REMARK    5  A    between atoms: N1_6  and  C6_7 
REMARK    6  A    between atoms: N1_6  and  S1_32 
REMARK    7  A    between atoms: C6_7  and  C7_8 
REMARK    8  A    between atoms: C7_8  and  O1_9 
REMARK    9  A    between atoms: C7_8  and  C8_11 
REMARK   10  A    between atoms: C8_11  and  C9_12 
REMARK   11  A    between atoms: C8_11  and  N2_19 
REMARK   12  A    between atoms: C9_12  and  C10_13 
REMARK       I    between atoms: N2_19  and  C16_21 
REMARK   13  A    between atoms: C16_21  and  C17_23 
REMARK   14  A    between atoms: C17_23  and  N3_24 
REMARK   15  A    between atoms: C17_23  and  C20_29 
REMARK       I    between atoms: N3_24  and  C18_26 
REMARK   16  A    between atoms: S1_32  and  C23_35 
ROOT
HETATM    1  C7  UNL     1      20.409  29.162  15.141  1.00  0.00     0.180 C 
ENDROOT
BRANCH   1   2
HETATM    2  C6  UNL     1      19.464  30.298  15.500  1.00  0.00     0.115 C 
BRANCH   2   3
HETATM    3  N1  UNL     1      19.772  31.515  14.885  1.00  0.00    -0.263 N 
BRANCH   3   4
HETATM    4  C5  UNL     1      21.114  31.901  14.824  1.00  0.00     0.081 C 
BRANCH   4   5
HETATM    5  C4  UNL     1      21.697  32.352  16.153  1.00  0.00     0.046 C 
BRANCH   5   6
HETATM    6  C3  UNL     1      22.506  33.612  15.995  1.00  0.00     0.005 C 
BRANCH   6   7
HETATM    7  C2  UNL     1      22.386  34.235  14.625  1.00  0.00    -0.004 C 
HETATM    8  C1  UNL     1      22.018  35.706  14.867  1.00  0.00     0.005 C 
ENDBRANCH   6   7
ENDBRANCH   5   6
ENDBRANCH   4   5
ENDBRANCH   3   4
BRANCH   3   9
HETATM    9  S1  UNL     1      18.618  32.313  13.987  1.00  0.00     0.267 S 
HETATM   10  O4  UNL     1      17.545  31.326  13.535  1.00  0.00    -0.200 OA
HETATM   11  O5  UNL     1      19.274  32.929  12.755  1.00  0.00    -0.200 OA
BRANCH   9  12
HETATM   12  C23 UNL     1      17.786  33.584  14.807  1.00  0.00     0.081 A 
HETATM   13  C24 UNL     1      16.681  34.254  14.358  1.00  0.00     0.027 A 
HETATM   14  C25 UNL     1      16.031  35.261  15.024  1.00  0.00     0.032 A 
HETATM   15  C26 UNL     1      16.517  35.671  16.289  1.00  0.00     0.049 A 
HETATM   16  N4  UNL     1      16.008  36.609  17.035  1.00  0.00    -0.359 N 
HETATM   17  C28 UNL     1      17.622  35.013  16.759  1.00  0.00     0.034 A 
HETATM   18  C27 UNL     1      16.557  36.897  18.199  1.00  0.00     0.139 A 
ATOM     19  H4  UNL     1      15.184  37.121  16.719  1.00  0.00     0.166 HD
HETATM   20  S2  UNL     1      17.862  35.799  18.265  1.00  0.00    -0.083 SA
HETATM   21  C29 UNL     1      18.265  33.985  16.051  1.00  0.00     0.046 A 
ENDBRANCH   9  12
ENDBRANCH   3   9
ENDBRANCH   2   3
ENDBRANCH   1   2
BRANCH   1  22
HETATM   22  O1  UNL     1      20.248  28.090  16.017  1.00  0.00    -0.388 OA
ATOM     23  H1  UNL     1      19.851  27.349  15.574  1.00  0.00     0.210 HD
ENDBRANCH   1  22
BRANCH   1  24
HETATM   24  C8  UNL     1      20.102  28.630  13.761  1.00  0.00     0.122 C 
BRANCH  24  25
HETATM   25  C9  UNL     1      18.740  28.018  13.751  1.00  0.00     0.066 C 
BRANCH  25  26
HETATM   26  C10 UNL     1      18.284  27.607  12.420  1.00  0.00    -0.056 A 
HETATM   27  C11 UNL     1      18.420  26.298  12.022  1.00  0.00     0.007 A 
HETATM   28  C12 UNL     1      17.995  25.884  10.751  1.00  0.00     0.001 A 
HETATM   29  C13 UNL     1      17.433  26.795   9.884  1.00  0.00     0.000 A 
HETATM   30  C14 UNL     1      17.312  28.103  10.314  1.00  0.00     0.001 A 
HETATM   31  C15 UNL     1      17.726  28.515  11.561  1.00  0.00     0.007 A 
ENDBRANCH  25  26
ENDBRANCH  24  25
BRANCH  24  32
HETATM   32  N2  UNL     1      21.142  27.712  13.284  1.00  0.00    -0.352 N 
HETATM   33  C16 UNL     1      22.025  28.084  12.264  1.00  0.00     0.241 C 
HETATM   34  O2  UNL     1      21.869  29.258  11.776  1.00  0.00    -0.271 OA
ATOM     35  H2  UNL     1      21.223  26.786  13.703  1.00  0.00     0.163 HD
BRANCH  33  36
HETATM   36  C17 UNL     1      23.096  27.269  11.705  1.00  0.00     0.179 C 
BRANCH  36  37
HETATM   37  N3  UNL     1      22.678  26.618  10.458  1.00  0.00    -0.348 N 
HETATM   38  C18 UNL     1      21.947  25.403  10.448  1.00  0.00     0.214 C 
HETATM   39  C19 UNL     1      21.537  24.768   9.149  1.00  0.00     0.117 C 
HETATM   40  O3  UNL     1      21.635  24.845  11.525  1.00  0.00    -0.274 OA
ATOM     41  H3  UNL     1      22.921  27.055   9.568  1.00  0.00     0.163 HD
ENDBRANCH  36  37
BRANCH  36  42
HETATM   42  C20 UNL     1      24.413  27.953  11.478  1.00  0.00     0.009 C 
HETATM   43  C21 UNL     1      25.374  26.817  11.048  1.00  0.00     0.012 C 
HETATM   44  C22 UNL     1      25.007  28.462  12.773  1.00  0.00     0.012 C 
ENDBRANCH  36  42
ENDBRANCH  33  36
ENDBRANCH  24  32
ENDBRANCH   1  24
TORSDOF 16
ENDMDL
