MODEL 4
REMARK VINA RESULT: -9.084318074      2.438      9.371
REMARK  16 active torsions:
REMARK  status: ('A' for Active; 'I' for Inactive)
REMARK    1  A    between atoms: C2_2  and  C3_3 
REMARK    2  A    between atoms: C3_3  and  C4_4 
REMARK    3  A    between atoms: C4_4  and  C5_5 
REMARK    4  A    between atoms: C5_5  and  N1_6 
REMARK    5  A    between atoms: N1_6  and  C6_7 
REMARK    6  A    between atoms: N1_6  and  S1_32 
REMARK    7  A    between atoms: C6_7  and  C7_8 
REMARK    8  A    between atoms: C7_8  and  O1_9 
REMARK    9  A    between atoms: C7_8  and  C8_11 
REMARK   10  A    between atoms: C8_11  and  C9_12 
REMARK   11  A    between atoms: C8_11  and  N2_19 
REMARK   12  A    between atoms: C9_12  and  C10_13 
REMARK       I    between atoms: N2_19  and  C16_21 
REMARK   13  A    between atoms: C16_21  and  C17_23 
REMARK   14  A    between atoms: C17_23  and  N3_24 
REMARK   15  A    between atoms: C17_23  and  C20_29 
REMARK       I    between atoms: N3_24  and  C18_26 
REMARK   16  A    between atoms: S1_32  and  C23_35 
ROOT
HETATM    1  C7  UNL     1      19.569  30.518  16.053  1.00  0.00     0.180 C 
ENDROOT
BRANCH   1   2
HETATM    2  C6  UNL     1      20.212  29.821  14.864  1.00  0.00     0.115 C 
BRANCH   2   3
HETATM    3  N1  UNL     1      19.947  30.429  13.634  1.00  0.00    -0.263 N 
BRANCH   3   4
HETATM    4  C5  UNL     1      18.660  30.923  13.406  1.00  0.00     0.081 C 
BRANCH   4   5
HETATM    5  C4  UNL     1      17.612  29.850  13.159  1.00  0.00     0.046 C 
BRANCH   5   6
HETATM    6  C3  UNL     1      17.865  29.128  11.862  1.00  0.00     0.005 C 
BRANCH   6   7
HETATM    7  C2  UNL     1      18.056  27.640  12.030  1.00  0.00    -0.004 C 
HETATM    8  C1  UNL     1      17.625  27.325  13.469  1.00  0.00     0.005 C 
ENDBRANCH   6   7
ENDBRANCH   5   6
ENDBRANCH   4   5
ENDBRANCH   3   4
BRANCH   3   9
HETATM    9  S1  UNL     1      21.201  30.826  12.611  1.00  0.00     0.267 S 
HETATM   10  O4  UNL     1      21.973  32.013  13.181  1.00  0.00    -0.200 OA
HETATM   11  O5  UNL     1      20.638  31.212  11.247  1.00  0.00    -0.200 OA
BRANCH   9  12
HETATM   12  C23 UNL     1      22.366  29.581  12.344  1.00  0.00     0.081 A 
HETATM   13  C24 UNL     1      23.641  29.541  12.837  1.00  0.00     0.027 A 
HETATM   14  C25 UNL     1      24.554  28.542  12.616  1.00  0.00     0.032 A 
HETATM   15  C26 UNL     1      24.180  27.439  11.811  1.00  0.00     0.049 A 
HETATM   16  N4  UNL     1      24.934  26.420  11.514  1.00  0.00    -0.359 N 
HETATM   17  C28 UNL     1      22.907  27.456  11.307  1.00  0.00     0.034 A 
HETATM   18  C27 UNL     1      24.466  25.452  10.751  1.00  0.00     0.139 A 
ATOM     19  H4  UNL     1      25.889  26.371  11.871  1.00  0.00     0.166 HD
HETATM   20  S2  UNL     1      22.878  25.986  10.424  1.00  0.00    -0.083 SA
HETATM   21  C29 UNL     1      21.997  28.496  11.553  1.00  0.00     0.046 A 
ENDBRANCH   9  12
ENDBRANCH   3   9
ENDBRANCH   2   3
ENDBRANCH   1   2
BRANCH   1  22
HETATM   22  O1  UNL     1      20.078  30.020  17.252  1.00  0.00    -0.388 OA
ATOM     23  H1  UNL     1      20.052  30.684  17.931  1.00  0.00     0.210 HD
ENDBRANCH   1  22
BRANCH   1  24
HETATM   24  C8  UNL     1      19.887  31.995  16.041  1.00  0.00     0.122 C 
BRANCH  24  25
HETATM   25  C9  UNL     1      21.293  32.209  16.499  1.00  0.00     0.066 C 
BRANCH  25  26
HETATM   26  C10 UNL     1      21.670  33.621  16.613  1.00  0.00    -0.056 A 
HETATM   27  C11 UNL     1      22.004  34.144  17.840  1.00  0.00     0.007 A 
HETATM   28  C12 UNL     1      22.363  35.494  17.972  1.00  0.00     0.001 A 
HETATM   29  C13 UNL     1      22.385  36.311  16.863  1.00  0.00     0.000 A 
HETATM   30  C14 UNL     1      22.044  35.754  15.646  1.00  0.00     0.001 A 
HETATM   31  C15 UNL     1      21.691  34.430  15.510  1.00  0.00     0.007 A 
ENDBRANCH  25  26
ENDBRANCH  24  25
BRANCH  24  32
HETATM   32  N2  UNL     1      18.912  32.772  16.812  1.00  0.00    -0.352 N 
HETATM   33  C16 UNL     1      18.082  33.714  16.194  1.00  0.00     0.241 C 
HETATM   34  O2  UNL     1      18.228  33.856  14.929  1.00  0.00    -0.271 OA
ATOM     35  H2  UNL     1      18.838  32.623  17.819  1.00  0.00     0.163 HD
BRANCH  33  36
HETATM   36  C17 UNL     1      17.077  34.544  16.846  1.00  0.00     0.179 C 
BRANCH  36  37
HETATM   37  N3  UNL     1      17.507  35.945  16.920  1.00  0.00    -0.348 N 
HETATM   38  C18 UNL     1      18.459  36.393  17.873  1.00  0.00     0.214 C 
HETATM   39  C19 UNL     1      18.874  37.837  17.917  1.00  0.00     0.117 C 
HETATM   40  O3  UNL     1      18.963  35.588  18.688  1.00  0.00    -0.274 OA
ATOM     41  H3  UNL     1      17.110  36.619  16.266  1.00  0.00     0.163 HD
ENDBRANCH  36  37
BRANCH  36  42
HETATM   42  C20 UNL     1      15.689  34.492  16.274  1.00  0.00     0.009 C 
HETATM   43  C21 UNL     1      14.800  35.160  17.352  1.00  0.00     0.012 C 
HETATM   44  C22 UNL     1      15.170  33.073  16.201  1.00  0.00     0.012 C 
ENDBRANCH  36  42
ENDBRANCH  33  36
ENDBRANCH  24  32
ENDBRANCH   1  24
TORSDOF 16
ENDMDL
