MODEL 7
REMARK VINA RESULT: -8.989793923      2.825      9.946
REMARK  16 active torsions:
REMARK  status: ('A' for Active; 'I' for Inactive)
REMARK    1  A    between atoms: C2_2  and  C3_3 
REMARK    2  A    between atoms: C3_3  and  C4_4 
REMARK    3  A    between atoms: C4_4  and  C5_5 
REMARK    4  A    between atoms: C5_5  and  N1_6 
REMARK    5  A    between atoms: N1_6  and  C6_7 
REMARK    6  A    between atoms: N1_6  and  S1_32 
REMARK    7  A    between atoms: C6_7  and  C7_8 
REMARK    8  A    between atoms: C7_8  and  O1_9 
REMARK    9  A    between atoms: C7_8  and  C8_11 
REMARK   10  A    between atoms: C8_11  and  C9_12 
REMARK   11  A    between atoms: C8_11  and  N2_19 
REMARK   12  A    between atoms: C9_12  and  C10_13 
REMARK       I    between atoms: N2_19  and  C16_21 
REMARK   13  A    between atoms: C16_21  and  C17_23 
REMARK   14  A    between atoms: C17_23  and  N3_24 
REMARK   15  A    between atoms: C17_23  and  C20_29 
REMARK       I    between atoms: N3_24  and  C18_26 
REMARK   16  A    between atoms: S1_32  and  C23_35 
ROOT
HETATM    1  C7  UNL     1      19.757  30.065  15.771  1.00  0.00     0.180 C 
ENDROOT
BRANCH   1   2
HETATM    2  C6  UNL     1      20.575  29.405  14.672  1.00  0.00     0.115 C 
BRANCH   2   3
HETATM    3  N1  UNL     1      20.153  29.720  13.377  1.00  0.00    -0.263 N 
BRANCH   3   4
HETATM    4  C5  UNL     1      20.993  30.507  12.584  1.00  0.00     0.081 C 
BRANCH   4   5
HETATM    5  C4  UNL     1      22.471  30.366  12.907  1.00  0.00     0.046 C 
BRANCH   5   6
HETATM    6  C3  UNL     1      23.094  29.235  12.131  1.00  0.00     0.005 C 
BRANCH   6   7
HETATM    7  C2  UNL     1      24.348  28.688  12.769  1.00  0.00    -0.004 C 
HETATM    8  C1  UNL     1      24.907  27.661  11.774  1.00  0.00     0.005 C 
ENDBRANCH   6   7
ENDBRANCH   5   6
ENDBRANCH   4   5
ENDBRANCH   3   4
BRANCH   3   9
HETATM    9  S1  UNL     1      18.851  28.927  12.706  1.00  0.00     0.267 S 
HETATM   10  O4  UNL     1      17.927  29.936  12.030  1.00  0.00    -0.200 OA
HETATM   11  O5  UNL     1      18.076  28.207  13.805  1.00  0.00    -0.200 OA
BRANCH   9  12
HETATM   12  C23 UNL     1      19.237  27.750  11.503  1.00  0.00     0.081 A 
HETATM   13  C24 UNL     1      20.333  26.932  11.489  1.00  0.00     0.027 A 
HETATM   14  C25 UNL     1      20.623  26.001  10.526  1.00  0.00     0.032 A 
HETATM   15  C26 UNL     1      19.735  25.844   9.435  1.00  0.00     0.049 A 
HETATM   16  N4  UNL     1      19.877  25.005   8.449  1.00  0.00    -0.359 N 
HETATM   17  C28 UNL     1      18.629  26.652   9.428  1.00  0.00     0.034 A 
HETATM   18  C27 UNL     1      18.975  24.956   7.489  1.00  0.00     0.139 A 
ATOM     19  H4  UNL     1      20.687  24.386   8.419  1.00  0.00     0.166 HD
HETATM   20  S2  UNL     1      17.856  26.147   7.983  1.00  0.00    -0.083 SA
HETATM   21  C29 UNL     1      18.362  27.597  10.431  1.00  0.00     0.046 A 
ENDBRANCH   9  12
ENDBRANCH   3   9
ENDBRANCH   2   3
ENDBRANCH   1   2
BRANCH   1  22
HETATM   22  O1  UNL     1      20.149  29.600  17.026  1.00  0.00    -0.388 OA
ATOM     23  H1  UNL     1      19.611  29.981  17.710  1.00  0.00     0.210 HD
ENDBRANCH   1  22
BRANCH   1  24
HETATM   24  C8  UNL     1      19.988  31.558  15.783  1.00  0.00     0.122 C 
BRANCH  24  25
HETATM   25  C9  UNL     1      21.391  31.844  16.210  1.00  0.00     0.066 C 
BRANCH  25  26
HETATM   26  C10 UNL     1      21.779  33.250  16.064  1.00  0.00    -0.056 A 
HETATM   27  C11 UNL     1      22.120  33.744  14.828  1.00  0.00     0.007 A 
HETATM   28  C12 UNL     1      22.500  35.085  14.668  1.00  0.00     0.001 A 
HETATM   29  C13 UNL     1      22.533  35.924  15.759  1.00  0.00     0.000 A 
HETATM   30  C14 UNL     1      22.185  35.397  16.988  1.00  0.00     0.001 A 
HETATM   31  C15 UNL     1      21.811  34.082  17.151  1.00  0.00     0.007 A 
ENDBRANCH  25  26
ENDBRANCH  24  25
BRANCH  24  32
HETATM   32  N2  UNL     1      18.991  32.261  16.596  1.00  0.00    -0.352 N 
HETATM   33  C16 UNL     1      18.200  33.281  16.054  1.00  0.00     0.241 C 
HETATM   34  O2  UNL     1      18.403  33.561  14.820  1.00  0.00    -0.271 OA
ATOM     35  H2  UNL     1      18.870  32.001  17.576  1.00  0.00     0.163 HD
BRANCH  33  36
HETATM   36  C17 UNL     1      17.179  34.050  16.753  1.00  0.00     0.179 C 
BRANCH  36  37
HETATM   37  N3  UNL     1      17.556  35.464  16.863  1.00  0.00    -0.348 N 
HETATM   38  C18 UNL     1      18.302  35.963  17.962  1.00  0.00     0.214 C 
HETATM   39  C19 UNL     1      18.669  37.419  18.037  1.00  0.00     0.117 C 
HETATM   40  O3  UNL     1      18.663  35.194  18.881  1.00  0.00    -0.274 OA
ATOM     41  H3  UNL     1      17.273  36.108  16.125  1.00  0.00     0.163 HD
ENDBRANCH  36  37
BRANCH  36  42
HETATM   42  C20 UNL     1      15.782  33.961  16.210  1.00  0.00     0.009 C 
HETATM   43  C21 UNL     1      14.893  34.572  17.322  1.00  0.00     0.012 C 
HETATM   44  C22 UNL     1      15.312  32.526  16.114  1.00  0.00     0.012 C 
ENDBRANCH  36  42
ENDBRANCH  33  36
ENDBRANCH  24  32
ENDBRANCH   1  24
TORSDOF 16
ENDMDL
