MODEL 5
REMARK VINA RESULT: -9.063621065      2.787      9.864
REMARK  16 active torsions:
REMARK  status: ('A' for Active; 'I' for Inactive)
REMARK    1  A    between atoms: C2_2  and  C3_3 
REMARK    2  A    between atoms: C3_3  and  C4_4 
REMARK    3  A    between atoms: C4_4  and  C5_5 
REMARK    4  A    between atoms: C5_5  and  N1_6 
REMARK    5  A    between atoms: N1_6  and  C6_7 
REMARK    6  A    between atoms: N1_6  and  S1_32 
REMARK    7  A    between atoms: C6_7  and  C7_8 
REMARK    8  A    between atoms: C7_8  and  O1_9 
REMARK    9  A    between atoms: C7_8  and  C8_11 
REMARK   10  A    between atoms: C8_11  and  C9_12 
REMARK   11  A    between atoms: C8_11  and  N2_19 
REMARK   12  A    between atoms: C9_12  and  C10_13 
REMARK       I    between atoms: N2_19  and  C16_21 
REMARK   13  A    between atoms: C16_21  and  C17_23 
REMARK   14  A    between atoms: C17_23  and  N3_24 
REMARK   15  A    between atoms: C17_23  and  C20_29 
REMARK       I    between atoms: N3_24  and  C18_26 
REMARK   16  A    between atoms: S1_32  and  C23_35 
ROOT
HETATM    1  C7  UNL     1      19.685  30.180  15.831  1.00  0.00     0.180 C 
ENDROOT
BRANCH   1   2
HETATM    2  C6  UNL     1      20.454  29.530  14.692  1.00  0.00     0.115 C 
BRANCH   2   3
HETATM    3  N1  UNL     1      19.990  29.874  13.419  1.00  0.00    -0.263 N 
BRANCH   3   4
HETATM    4  C5  UNL     1      20.772  30.734  12.643  1.00  0.00     0.081 C 
BRANCH   4   5
HETATM    5  C4  UNL     1      22.254  30.708  12.980  1.00  0.00     0.046 C 
BRANCH   5   6
HETATM    6  C3  UNL     1      22.980  29.664  12.173  1.00  0.00     0.005 C 
BRANCH   6   7
HETATM    7  C2  UNL     1      23.899  28.797  13.000  1.00  0.00    -0.004 C 
HETATM    8  C1  UNL     1      24.755  28.017  11.991  1.00  0.00     0.005 C 
ENDBRANCH   6   7
ENDBRANCH   5   6
ENDBRANCH   4   5
ENDBRANCH   3   4
BRANCH   3   9
HETATM    9  S1  UNL     1      18.717  29.041  12.741  1.00  0.00     0.267 S 
HETATM   10  O4  UNL     1      17.756  30.023  12.077  1.00  0.00    -0.200 OA
HETATM   11  O5  UNL     1      17.970  28.282  13.833  1.00  0.00    -0.200 OA
BRANCH   9  12
HETATM   12  C23 UNL     1      19.143  27.891  11.525  1.00  0.00     0.081 A 
HETATM   13  C24 UNL     1      18.363  27.491  10.476  1.00  0.00     0.027 A 
HETATM   14  C25 UNL     1      18.718  26.577   9.518  1.00  0.00     0.032 A 
HETATM   15  C26 UNL     1      19.996  25.973   9.589  1.00  0.00     0.049 A 
HETATM   16  N4  UNL     1      20.472  25.092   8.756  1.00  0.00    -0.359 N 
HETATM   17  C28 UNL     1      20.796  26.359  10.631  1.00  0.00     0.034 A 
HETATM   18  C27 UNL     1      21.683  24.603   8.933  1.00  0.00     0.139 A 
ATOM     19  H4  UNL     1      19.906  24.780   7.966  1.00  0.00     0.166 HD
HETATM   20  S2  UNL     1      22.199  25.415  10.343  1.00  0.00    -0.083 SA
HETATM   21  C29 UNL     1      20.401  27.299  11.597  1.00  0.00     0.046 A 
ENDBRANCH   9  12
ENDBRANCH   3   9
ENDBRANCH   2   3
ENDBRANCH   1   2
BRANCH   1  22
HETATM   22  O1  UNL     1      20.128  29.700  17.064  1.00  0.00    -0.388 OA
ATOM     23  H1  UNL     1      19.594  30.044  17.770  1.00  0.00     0.210 HD
ENDBRANCH   1  22
BRANCH   1  24
HETATM   24  C8  UNL     1      19.923  31.673  15.850  1.00  0.00     0.122 C 
BRANCH  24  25
HETATM   25  C9  UNL     1      21.324  31.952  16.285  1.00  0.00     0.066 C 
BRANCH  25  26
HETATM   26  C10 UNL     1      21.722  33.356  16.138  1.00  0.00    -0.056 A 
HETATM   27  C11 UNL     1      21.805  34.165  17.246  1.00  0.00     0.007 A 
HETATM   28  C12 UNL     1      22.179  35.511  17.127  1.00  0.00     0.001 A 
HETATM   29  C13 UNL     1      22.468  36.037  15.887  1.00  0.00     0.000 A 
HETATM   30  C14 UNL     1      22.375  35.198  14.794  1.00  0.00     0.001 A 
HETATM   31  C15 UNL     1      22.009  33.875  14.905  1.00  0.00     0.007 A 
ENDBRANCH  25  26
ENDBRANCH  24  25
BRANCH  24  32
HETATM   32  N2  UNL     1      18.923  32.377  16.660  1.00  0.00    -0.352 N 
HETATM   33  C16 UNL     1      18.143  33.404  16.119  1.00  0.00     0.241 C 
HETATM   34  O2  UNL     1      18.355  33.691  14.888  1.00  0.00    -0.271 OA
ATOM     35  H2  UNL     1      18.795  32.112  17.637  1.00  0.00     0.163 HD
BRANCH  33  36
HETATM   36  C17 UNL     1      17.121  34.175  16.815  1.00  0.00     0.179 C 
BRANCH  36  37
HETATM   37  N3  UNL     1      17.495  35.591  16.914  1.00  0.00    -0.348 N 
HETATM   38  C18 UNL     1      18.283  36.091  17.983  1.00  0.00     0.214 C 
HETATM   39  C19 UNL     1      18.644  37.549  18.049  1.00  0.00     0.117 C 
HETATM   40  O3  UNL     1      18.685  35.321  18.885  1.00  0.00    -0.274 OA
ATOM     41  H3  UNL     1      17.178  36.237  16.191  1.00  0.00     0.163 HD
ENDBRANCH  36  37
BRANCH  36  42
HETATM   42  C20 UNL     1      15.723  34.079  16.277  1.00  0.00     0.009 C 
HETATM   43  C21 UNL     1      14.838  34.718  17.375  1.00  0.00     0.012 C 
HETATM   44  C22 UNL     1      15.247  32.643  16.215  1.00  0.00     0.012 C 
ENDBRANCH  36  42
ENDBRANCH  33  36
ENDBRANCH  24  32
ENDBRANCH   1  24
TORSDOF 16
ENDMDL
