MODEL 15
REMARK VINA RESULT: -8.605387193      2.571      6.978
REMARK  13 active torsions:
REMARK  status: ('A' for Active; 'I' for Inactive)
REMARK    1  A    between atoms: C2_2  and  C4_4 
REMARK    2  A    between atoms: C4_4  and  N1_5 
REMARK    3  A    between atoms: N1_5  and  C5_6 
REMARK    4  A    between atoms: N1_5  and  S1_30 
REMARK    5  A    between atoms: C5_6  and  C6_7 
REMARK    6  A    between atoms: C6_7  and  O1_8 
REMARK    7  A    between atoms: C6_7  and  C7_10 
REMARK    8  A    between atoms: C7_10  and  C8_11 
REMARK    9  A    between atoms: C7_10  and  N2_18 
REMARK   10  A    between atoms: C8_11  and  C9_12 
REMARK       I    between atoms: N2_18  and  C15_20 
REMARK   11  A    between atoms: C15_20  and  C16_22 
REMARK   12  A    between atoms: C20_26  and  O3_27 
REMARK   13  A    between atoms: S1_30  and  C22_33 
ROOT
HETATM    1  C6  UNL     1      20.162  29.192  15.391  1.00  0.00     0.083 C 
ENDROOT
BRANCH   1   2
HETATM    2  C5  UNL     1      19.816  30.506  15.946  1.00  0.00     0.143 C 
BRANCH   2   3
HETATM    3  N1  UNL     1      19.946  31.706  15.213  1.00  0.00    -0.255 N 
BRANCH   3   4
HETATM    4  C4  UNL     1      21.151  32.403  15.340  1.00  0.00     0.111 C 
BRANCH   4   5
HETATM    5  C2  UNL     1      21.405  33.352  16.439  1.00  0.00    -0.071 C 
HETATM    6  C1  UNL     1      21.374  34.815  16.124  1.00  0.00     0.044 C 
HETATM    7  C3  UNL     1      22.571  33.005  17.338  1.00  0.00     0.044 C 
ENDBRANCH   4   5
ENDBRANCH   3   4
BRANCH   3   8
HETATM    8  S1  UNL     1      18.596  32.420  14.578  1.00  0.00     0.268 S 
HETATM    9  O4  UNL     1      19.087  33.473  13.564  1.00  0.00    -0.200 OA
HETATM   10  O5  UNL     1      17.748  31.503  13.705  1.00  0.00    -0.200 OA
BRANCH   8  11
HETATM   11  C22 UNL     1      17.499  33.287  15.589  1.00  0.00     0.081 A 
HETATM   12  C23 UNL     1      16.364  32.681  16.118  1.00  0.00     0.027 A 
HETATM   13  C24 UNL     1      15.438  33.292  16.893  1.00  0.00     0.032 A 
HETATM   14  C25 UNL     1      15.589  34.653  17.218  1.00  0.00     0.049 A 
HETATM   15  N3  UNL     1      14.775  35.359  17.951  1.00  0.00    -0.359 N 
HETATM   16  C27 UNL     1      16.695  35.281  16.713  1.00  0.00     0.034 A 
HETATM   17  C26 UNL     1      15.028  36.634  18.185  1.00  0.00     0.139 A 
ATOM     18  H3  UNL     1      13.940  34.925  18.345  1.00  0.00     0.166 HD
HETATM   19  S2  UNL     1      16.490  36.863  17.330  1.00  0.00    -0.083 SA
HETATM   20  C28 UNL     1      17.634  34.622  15.914  1.00  0.00     0.046 A 
ENDBRANCH   8  11
ENDBRANCH   3   8
ENDBRANCH   2   3
ENDBRANCH   1   2
BRANCH   1  21
HETATM   21  O1  UNL     1      20.072  28.090  16.213  1.00  0.00    -0.361 OA
ATOM     22  H1  UNL     1      20.872  27.638  16.449  1.00  0.00     0.217 HD
ENDBRANCH   1  21
BRANCH   1  23
HETATM   23  C7  UNL     1      19.832  28.932  13.942  1.00  0.00     0.147 C 
BRANCH  23  24
HETATM   24  C8  UNL     1      18.574  28.156  13.708  1.00  0.00     0.070 C 
BRANCH  24  25
HETATM   25  C9  UNL     1      18.221  27.899  12.326  1.00  0.00    -0.056 A 
HETATM   26  C10 UNL     1      18.288  26.609  11.848  1.00  0.00     0.007 A 
HETATM   27  C11 UNL     1      17.971  26.265  10.541  1.00  0.00     0.001 A 
HETATM   28  C12 UNL     1      17.577  27.244   9.687  1.00  0.00     0.000 A 
HETATM   29  C13 UNL     1      17.494  28.544  10.112  1.00  0.00     0.001 A 
HETATM   30  C14 UNL     1      17.814  28.850  11.413  1.00  0.00     0.007 A 
ENDBRANCH  24  25
ENDBRANCH  23  24
BRANCH  23  31
HETATM   31  N2  UNL     1      20.977  28.258  13.322  1.00  0.00    -0.346 N 
HETATM   32  C15 UNL     1      21.867  28.894  12.456  1.00  0.00     0.252 C 
HETATM   33  O2  UNL     1      21.641  30.107  12.219  1.00  0.00    -0.268 OA
ATOM     34  H2  UNL     1      21.131  27.273  13.536  1.00  0.00     0.163 HD
BRANCH  32  35
HETATM   35  C16 UNL     1      23.012  28.272  11.819  1.00  0.00     0.034 A 
HETATM   36  C17 UNL     1      24.143  28.020  12.560  1.00  0.00     0.017 A 
HETATM   37  C18 UNL     1      25.233  27.427  11.955  1.00  0.00     0.004 A 
HETATM   38  C19 UNL     1      25.231  27.076  10.628  1.00  0.00     0.036 A 
HETATM   39  C20 UNL     1      24.083  27.344   9.920  1.00  0.00     0.066 A 
HETATM   40  C21 UNL     1      22.965  27.938  10.489  1.00  0.00     0.053 A 
BRANCH  39  41
HETATM   41  O3  UNL     1      24.030  27.007   8.570  1.00  0.00    -0.361 OA
ATOM     42  H3  UNL     1      23.183  26.869   8.163  1.00  0.00     0.217 HD
ENDBRANCH  39  41
ENDBRANCH  32  35
ENDBRANCH  23  31
ENDBRANCH   1  23
TORSDOF 13
ENDMDL
