MODEL 2
REMARK VINA RESULT: -9.255817015      2.412      5.715
REMARK  13 active torsions:
REMARK  status: ('A' for Active; 'I' for Inactive)
REMARK    1  A    between atoms: C2_2  and  C4_4 
REMARK    2  A    between atoms: C4_4  and  N1_5 
REMARK    3  A    between atoms: N1_5  and  C5_6 
REMARK    4  A    between atoms: N1_5  and  S1_30 
REMARK    5  A    between atoms: C5_6  and  C6_7 
REMARK    6  A    between atoms: C6_7  and  O1_8 
REMARK    7  A    between atoms: C6_7  and  C7_10 
REMARK    8  A    between atoms: C7_10  and  C8_11 
REMARK    9  A    between atoms: C7_10  and  N2_18 
REMARK   10  A    between atoms: C8_11  and  C9_12 
REMARK       I    between atoms: N2_18  and  C15_20 
REMARK   11  A    between atoms: C15_20  and  C16_22 
REMARK   12  A    between atoms: C20_26  and  O3_27 
REMARK   13  A    between atoms: S1_30  and  C22_33 
ROOT
HETATM    1  C6  UNL     1      19.971  30.801  16.235  1.00  0.00     0.083 C 
ENDROOT
BRANCH   1   2
HETATM    2  C5  UNL     1      20.667  31.954  16.818  1.00  0.00     0.143 C 
BRANCH   2   3
HETATM    3  N1  UNL     1      20.902  33.149  16.104  1.00  0.00    -0.255 N 
BRANCH   3   4
HETATM    4  C4  UNL     1      21.185  33.030  14.740  1.00  0.00     0.111 C 
BRANCH   4   5
HETATM    5  C2  UNL     1      22.425  32.411  14.240  1.00  0.00    -0.071 C 
HETATM    6  C1  UNL     1      22.398  30.950  13.914  1.00  0.00     0.044 C 
HETATM    7  C3  UNL     1      23.685  32.786  14.987  1.00  0.00     0.044 C 
ENDBRANCH   4   5
ENDBRANCH   3   4
BRANCH   3   8
HETATM    8  S1  UNL     1      21.215  34.544  16.935  1.00  0.00     0.268 S 
HETATM    9  O4  UNL     1      22.098  34.155  18.137  1.00  0.00    -0.200 OA
HETATM   10  O5  UNL     1      22.103  35.535  16.191  1.00  0.00    -0.200 OA
BRANCH   8  11
HETATM   11  C22 UNL     1      19.932  35.463  17.633  1.00  0.00     0.081 A 
HETATM   12  C23 UNL     1      18.893  34.850  18.326  1.00  0.00     0.027 A 
HETATM   13  C24 UNL     1      17.835  35.488  18.878  1.00  0.00     0.032 A 
HETATM   14  C25 UNL     1      17.732  36.888  18.770  1.00  0.00     0.049 A 
HETATM   15  N3  UNL     1      16.771  37.623  19.253  1.00  0.00    -0.359 N 
HETATM   16  C27 UNL     1      18.738  37.524  18.094  1.00  0.00     0.034 A 
HETATM   17  C26 UNL     1      16.786  38.933  19.085  1.00  0.00     0.139 A 
ATOM     18  H3  UNL     1      16.003  37.185  19.763  1.00  0.00     0.166 HD
HETATM   19  S2  UNL     1      18.231  39.154  18.197  1.00  0.00    -0.083 SA
HETATM   20  C28 UNL     1      19.818  36.835  17.534  1.00  0.00     0.046 A 
ENDBRANCH   8  11
ENDBRANCH   3   8
ENDBRANCH   2   3
ENDBRANCH   1   2
BRANCH   1  21
HETATM   21  O1  UNL     1      19.954  29.620  16.943  1.00  0.00    -0.361 OA
ATOM     22  H1  UNL     1      20.139  28.813  16.478  1.00  0.00     0.217 HD
ENDBRANCH   1  21
BRANCH   1  23
HETATM   23  C7  UNL     1      18.731  31.068  15.417  1.00  0.00     0.147 C 
BRANCH  23  24
HETATM   24  C8  UNL     1      17.507  31.398  16.211  1.00  0.00     0.070 C 
BRANCH  24  25
HETATM   25  C9  UNL     1      16.960  32.729  16.031  1.00  0.00    -0.056 A 
HETATM   26  C10 UNL     1      17.566  33.585  15.138  1.00  0.00     0.007 A 
HETATM   27  C11 UNL     1      17.116  34.877  14.899  1.00  0.00     0.001 A 
HETATM   28  C12 UNL     1      16.027  35.324  15.576  1.00  0.00     0.000 A 
HETATM   29  C13 UNL     1      15.388  34.511  16.476  1.00  0.00     0.001 A 
HETATM   30  C14 UNL     1      15.859  33.237  16.689  1.00  0.00     0.007 A 
ENDBRANCH  24  25
ENDBRANCH  23  24
BRANCH  23  31
HETATM   31  N2  UNL     1      18.490  29.907  14.555  1.00  0.00    -0.346 N 
HETATM   32  C15 UNL     1      18.540  29.960  13.161  1.00  0.00     0.252 C 
HETATM   33  O2  UNL     1      18.809  31.079  12.658  1.00  0.00    -0.268 OA
ATOM     34  H2  UNL     1      18.274  29.013  14.997  1.00  0.00     0.163 HD
BRANCH  32  35
HETATM   35  C16 UNL     1      18.310  28.841  12.267  1.00  0.00     0.034 A 
HETATM   36  C17 UNL     1      17.714  29.063  11.048  1.00  0.00     0.017 A 
HETATM   37  C18 UNL     1      17.494  27.998  10.197  1.00  0.00     0.004 A 
HETATM   38  C19 UNL     1      17.852  26.714  10.525  1.00  0.00     0.036 A 
HETATM   39  C20 UNL     1      18.445  26.532  11.752  1.00  0.00     0.066 A 
HETATM   40  C21 UNL     1      18.684  27.574  12.637  1.00  0.00     0.053 A 
BRANCH  39  41
HETATM   41  O3  UNL     1      18.827  25.248  12.132  1.00  0.00    -0.361 OA
ATOM     42  H3  UNL     1      19.486  25.146  12.808  1.00  0.00     0.217 HD
ENDBRANCH  39  41
ENDBRANCH  32  35
ENDBRANCH  23  31
ENDBRANCH   1  23
TORSDOF 13
ENDMDL
