MODEL 19
REMARK VINA RESULT: -8.526286190      2.629      6.825
REMARK  13 active torsions:
REMARK  status: ('A' for Active; 'I' for Inactive)
REMARK    1  A    between atoms: C2_2  and  C4_4 
REMARK    2  A    between atoms: C4_4  and  N1_5 
REMARK    3  A    between atoms: N1_5  and  C5_6 
REMARK    4  A    between atoms: N1_5  and  S1_30 
REMARK    5  A    between atoms: C5_6  and  C6_7 
REMARK    6  A    between atoms: C6_7  and  O1_8 
REMARK    7  A    between atoms: C6_7  and  C7_10 
REMARK    8  A    between atoms: C7_10  and  C8_11 
REMARK    9  A    between atoms: C7_10  and  N2_18 
REMARK   10  A    between atoms: C8_11  and  C9_12 
REMARK       I    between atoms: N2_18  and  C15_20 
REMARK   11  A    between atoms: C15_20  and  C16_22 
REMARK   12  A    between atoms: C20_26  and  O3_27 
REMARK   13  A    between atoms: S1_30  and  C22_33 
ROOT
HETATM    1  C6  UNL     1      20.169  29.496  15.586  1.00  0.00     0.083 C 
ENDROOT
BRANCH   1   2
HETATM    2  C5  UNL     1      19.876  30.744  16.301  1.00  0.00     0.143 C 
BRANCH   2   3
HETATM    3  N1  UNL     1      20.461  31.981  15.954  1.00  0.00    -0.255 N 
BRANCH   3   4
HETATM    4  C4  UNL     1      21.695  32.288  16.536  1.00  0.00     0.111 C 
BRANCH   4   5
HETATM    5  C2  UNL     1      22.953  32.294  15.769  1.00  0.00    -0.071 C 
HETATM    6  C1  UNL     1      23.727  33.574  15.701  1.00  0.00     0.044 C 
HETATM    7  C3  UNL     1      22.893  31.613  14.420  1.00  0.00     0.044 C 
ENDBRANCH   4   5
ENDBRANCH   3   4
BRANCH   3   8
HETATM    8  S1  UNL     1      19.535  33.142  15.226  1.00  0.00     0.268 S 
HETATM    9  O4  UNL     1      20.400  34.417  15.153  1.00  0.00    -0.200 OA
HETATM   10  O5  UNL     1      19.229  32.875  13.757  1.00  0.00    -0.200 OA
BRANCH   8  11
HETATM   11  C22 UNL     1      18.060  33.674  15.946  1.00  0.00     0.081 A 
HETATM   12  C23 UNL     1      16.956  32.833  16.047  1.00  0.00     0.027 A 
HETATM   13  C24 UNL     1      15.755  33.176  16.568  1.00  0.00     0.032 A 
HETATM   14  C25 UNL     1      15.555  34.479  17.061  1.00  0.00     0.049 A 
HETATM   15  N3  UNL     1      14.454  34.937  17.586  1.00  0.00    -0.359 N 
HETATM   16  C27 UNL     1      16.621  35.333  16.978  1.00  0.00     0.034 A 
HETATM   17  C26 UNL     1      14.391  36.185  18.015  1.00  0.00     0.139 A 
ATOM     18  H3  UNL     1      13.638  34.330  17.666  1.00  0.00     0.166 HD
HETATM   19  S2  UNL     1      15.964  36.754  17.665  1.00  0.00    -0.083 SA
HETATM   20  C28 UNL     1      17.850  34.948  16.433  1.00  0.00     0.046 A 
ENDBRANCH   8  11
ENDBRANCH   3   8
ENDBRANCH   2   3
ENDBRANCH   1   2
BRANCH   1  21
HETATM   21  O1  UNL     1      20.047  28.306  16.270  1.00  0.00    -0.361 OA
ATOM     22  H1  UNL     1      19.188  27.904  16.324  1.00  0.00     0.217 HD
ENDBRANCH   1  21
BRANCH   1  23
HETATM   23  C7  UNL     1      19.816  29.425  14.122  1.00  0.00     0.147 C 
BRANCH  23  24
HETATM   24  C8  UNL     1      18.370  29.176  13.830  1.00  0.00     0.070 C 
BRANCH  24  25
HETATM   25  C9  UNL     1      18.071  28.478  12.594  1.00  0.00    -0.056 A 
HETATM   26  C10 UNL     1      17.732  29.212  11.478  1.00  0.00     0.007 A 
HETATM   27  C11 UNL     1      17.429  28.634  10.253  1.00  0.00     0.001 A 
HETATM   28  C12 UNL     1      17.463  27.281  10.143  1.00  0.00     0.000 A 
HETATM   29  C13 UNL     1      17.793  26.506  11.224  1.00  0.00     0.001 A 
HETATM   30  C14 UNL     1      18.090  27.110  12.423  1.00  0.00     0.007 A 
ENDBRANCH  24  25
ENDBRANCH  23  24
BRANCH  23  31
HETATM   31  N2  UNL     1      20.654  28.398  13.495  1.00  0.00    -0.346 N 
HETATM   32  C15 UNL     1      21.430  28.626  12.358  1.00  0.00     0.252 C 
HETATM   33  O2  UNL     1      21.380  29.785  11.876  1.00  0.00    -0.268 OA
ATOM     34  H2  UNL     1      20.671  27.467  13.913  1.00  0.00     0.163 HD
BRANCH  32  35
HETATM   35  C16 UNL     1      22.274  27.644  11.704  1.00  0.00     0.034 A 
HETATM   36  C17 UNL     1      21.710  26.492  11.208  1.00  0.00     0.017 A 
HETATM   37  C18 UNL     1      22.512  25.558  10.585  1.00  0.00     0.004 A 
HETATM   38  C19 UNL     1      23.866  25.738  10.439  1.00  0.00     0.036 A 
HETATM   39  C20 UNL     1      24.393  26.901  10.947  1.00  0.00     0.066 A 
HETATM   40  C21 UNL     1      23.623  27.866  11.581  1.00  0.00     0.053 A 
BRANCH  39  41
HETATM   41  O3  UNL     1      25.761  27.131  10.825  1.00  0.00    -0.361 OA
ATOM     42  H3  UNL     1      26.368  26.469  11.135  1.00  0.00     0.217 HD
ENDBRANCH  39  41
ENDBRANCH  32  35
ENDBRANCH  23  31
ENDBRANCH   1  23
TORSDOF 13
ENDMDL
