MODEL 3
REMARK VINA RESULT: -9.056694120      1.370      1.938
REMARK  13 active torsions:
REMARK  status: ('A' for Active; 'I' for Inactive)
REMARK    1  A    between atoms: C2_2  and  C4_4 
REMARK    2  A    between atoms: C4_4  and  N1_5 
REMARK    3  A    between atoms: N1_5  and  C5_6 
REMARK    4  A    between atoms: N1_5  and  S1_30 
REMARK    5  A    between atoms: C5_6  and  C6_7 
REMARK    6  A    between atoms: C6_7  and  O1_8 
REMARK    7  A    between atoms: C6_7  and  C7_10 
REMARK    8  A    between atoms: C7_10  and  C8_11 
REMARK    9  A    between atoms: C7_10  and  N2_18 
REMARK   10  A    between atoms: C8_11  and  C9_12 
REMARK       I    between atoms: N2_18  and  C15_20 
REMARK   11  A    between atoms: C15_20  and  C16_22 
REMARK   12  A    between atoms: C20_26  and  O3_27 
REMARK   13  A    between atoms: S1_30  and  C22_33 
ROOT
HETATM    1  C6  UNL     1      19.866  30.810  16.231  1.00  0.00     0.083 C 
ENDROOT
BRANCH   1   2
HETATM    2  C5  UNL     1      20.494  32.025  16.764  1.00  0.00     0.143 C 
BRANCH   2   3
HETATM    3  N1  UNL     1      21.135  32.979  15.944  1.00  0.00    -0.255 N 
BRANCH   3   4
HETATM    4  C4  UNL     1      20.498  34.214  15.786  1.00  0.00     0.111 C 
BRANCH   4   5
HETATM    5  C2  UNL     1      20.539  35.264  16.820  1.00  0.00    -0.071 C 
HETATM    6  C1  UNL     1      21.805  35.430  17.601  1.00  0.00     0.044 C 
HETATM    7  C3  UNL     1      19.324  35.338  17.717  1.00  0.00     0.044 C 
ENDBRANCH   4   5
ENDBRANCH   3   4
BRANCH   3   8
HETATM    8  S1  UNL     1      22.346  32.494  14.927  1.00  0.00     0.268 S 
HETATM    9  O4  UNL     1      22.749  33.730  14.098  1.00  0.00    -0.200 OA
HETATM   10  O5  UNL     1      23.651  32.135  15.627  1.00  0.00    -0.200 OA
BRANCH   8  11
HETATM   11  C22 UNL     1      22.068  31.267  13.746  1.00  0.00     0.081 A 
HETATM   12  C23 UNL     1      21.302  31.510  12.611  1.00  0.00     0.027 A 
HETATM   13  C24 UNL     1      21.010  30.601  11.652  1.00  0.00     0.032 A 
HETATM   14  C25 UNL     1      21.498  29.286  11.767  1.00  0.00     0.049 A 
HETATM   15  N3  UNL     1      21.293  28.317  10.920  1.00  0.00    -0.359 N 
HETATM   16  C27 UNL     1      22.257  29.011  12.872  1.00  0.00     0.034 A 
HETATM   17  C26 UNL     1      21.808  27.121  11.140  1.00  0.00     0.139 A 
ATOM     18  H3  UNL     1      20.732  28.484  10.084  1.00  0.00     0.166 HD
HETATM   19  S2  UNL     1      22.629  27.361  12.620  1.00  0.00    -0.083 SA
HETATM   20  C28 UNL     1      22.540  29.973  13.846  1.00  0.00     0.046 A 
ENDBRANCH   8  11
ENDBRANCH   3   8
ENDBRANCH   2   3
ENDBRANCH   1   2
BRANCH   1  21
HETATM   21  O1  UNL     1      19.840  29.685  17.026  1.00  0.00    -0.361 OA
ATOM     22  H1  UNL     1      19.008  29.414  17.396  1.00  0.00     0.217 HD
ENDBRANCH   1  21
BRANCH   1  23
HETATM   23  C7  UNL     1      18.671  30.975  15.325  1.00  0.00     0.147 C 
BRANCH  23  24
HETATM   24  C8  UNL     1      17.372  31.211  16.027  1.00  0.00     0.070 C 
BRANCH  24  25
HETATM   25  C9  UNL     1      16.863  32.568  16.007  1.00  0.00    -0.056 A 
HETATM   26  C10 UNL     1      17.317  33.437  15.039  1.00  0.00     0.007 A 
HETATM   27  C11 UNL     1      16.890  34.754  14.940  1.00  0.00     0.001 A 
HETATM   28  C12 UNL     1      15.983  35.215  15.839  1.00  0.00     0.000 A 
HETATM   29  C13 UNL     1      15.501  34.392  16.823  1.00  0.00     0.001 A 
HETATM   30  C14 UNL     1      15.944  33.092  16.892  1.00  0.00     0.007 A 
ENDBRANCH  24  25
ENDBRANCH  23  24
BRANCH  23  31
HETATM   31  N2  UNL     1      18.584  29.795  14.459  1.00  0.00    -0.346 N 
HETATM   32  C15 UNL     1      18.103  29.836  13.149  1.00  0.00     0.252 C 
HETATM   33  O2  UNL     1      17.734  30.961  12.729  1.00  0.00    -0.268 OA
ATOM     34  H2  UNL     1      18.892  28.897  14.833  1.00  0.00     0.163 HD
BRANCH  32  35
HETATM   35  C16 UNL     1      17.998  28.699  12.255  1.00  0.00     0.034 A 
HETATM   36  C17 UNL     1      17.562  28.892  10.965  1.00  0.00     0.017 A 
HETATM   37  C18 UNL     1      17.462  27.810  10.114  1.00  0.00     0.004 A 
HETATM   38  C19 UNL     1      17.785  26.536  10.510  1.00  0.00     0.036 A 
HETATM   39  C20 UNL     1      18.216  26.383  11.806  1.00  0.00     0.066 A 
HETATM   40  C21 UNL     1      18.331  27.443  12.695  1.00  0.00     0.053 A 
BRANCH  39  41
HETATM   41  O3  UNL     1      18.555  25.109  12.258  1.00  0.00    -0.361 OA
ATOM     42  H3  UNL     1      18.673  24.413  11.623  1.00  0.00     0.217 HD
ENDBRANCH  39  41
ENDBRANCH  32  35
ENDBRANCH  23  31
ENDBRANCH   1  23
TORSDOF 13
ENDMDL
