MODEL 6
REMARK VINA RESULT: -8.876066295      2.637      7.221
REMARK  13 active torsions:
REMARK  status: ('A' for Active; 'I' for Inactive)
REMARK    1  A    between atoms: C2_2  and  C4_4 
REMARK    2  A    between atoms: C4_4  and  N1_5 
REMARK    3  A    between atoms: N1_5  and  C5_6 
REMARK    4  A    between atoms: N1_5  and  S1_30 
REMARK    5  A    between atoms: C5_6  and  C6_7 
REMARK    6  A    between atoms: C6_7  and  O1_8 
REMARK    7  A    between atoms: C6_7  and  C7_10 
REMARK    8  A    between atoms: C7_10  and  C8_11 
REMARK    9  A    between atoms: C7_10  and  N2_18 
REMARK   10  A    between atoms: C8_11  and  C9_12 
REMARK       I    between atoms: N2_18  and  C15_20 
REMARK   11  A    between atoms: C15_20  and  C16_22 
REMARK   12  A    between atoms: C20_26  and  O3_27 
REMARK   13  A    between atoms: S1_30  and  C22_33 
ROOT
HETATM    1  C6  UNL     1      19.855  29.840  15.626  1.00  0.00     0.083 C 
ENDROOT
BRANCH   1   2
HETATM    2  C5  UNL     1      19.071  30.853  16.342  1.00  0.00     0.143 C 
BRANCH   2   3
HETATM    3  N1  UNL     1      19.196  32.236  16.092  1.00  0.00    -0.255 N 
BRANCH   3   4
HETATM    4  C4  UNL     1      20.358  32.864  16.552  1.00  0.00     0.111 C 
BRANCH   4   5
HETATM    5  C2  UNL     1      21.339  33.481  15.642  1.00  0.00    -0.071 C 
HETATM    6  C1  UNL     1      21.589  32.815  14.325  1.00  0.00     0.044 C 
HETATM    7  C3  UNL     1      22.631  33.929  16.288  1.00  0.00     0.044 C 
ENDBRANCH   4   5
ENDBRANCH   3   4
BRANCH   3   8
HETATM    8  S1  UNL     1      17.863  33.106  15.644  1.00  0.00     0.268 S 
HETATM    9  O4  UNL     1      18.254  33.898  14.380  1.00  0.00    -0.200 OA
HETATM   10  O5  UNL     1      16.696  32.261  15.146  1.00  0.00    -0.200 OA
BRANCH   8  11
HETATM   11  C22 UNL     1      17.191  34.297  16.697  1.00  0.00     0.081 A 
HETATM   12  C23 UNL     1      15.942  34.126  17.284  1.00  0.00     0.027 A 
HETATM   13  C24 UNL     1      15.329  35.019  18.096  1.00  0.00     0.032 A 
HETATM   14  C25 UNL     1      15.966  36.236  18.401  1.00  0.00     0.049 A 
HETATM   15  N3  UNL     1      15.490  37.178  19.165  1.00  0.00    -0.359 N 
HETATM   16  C27 UNL     1      17.198  36.437  17.840  1.00  0.00     0.034 A 
HETATM   17  C26 UNL     1      16.188  38.280  19.376  1.00  0.00     0.139 A 
ATOM     18  H3  UNL     1      14.575  37.064  19.602  1.00  0.00     0.166 HD
HETATM   19  S2  UNL     1      17.595  37.984  18.452  1.00  0.00    -0.083 SA
HETATM   20  C28 UNL     1      17.805  35.495  17.004  1.00  0.00     0.046 A 
ENDBRANCH   8  11
ENDBRANCH   3   8
ENDBRANCH   2   3
ENDBRANCH   1   2
BRANCH   1  21
HETATM   21  O1  UNL     1      20.209  28.691  16.299  1.00  0.00    -0.361 OA
ATOM     22  H1  UNL     1      20.842  28.109  15.895  1.00  0.00     0.217 HD
ENDBRANCH   1  21
BRANCH   1  23
HETATM   23  C7  UNL     1      19.588  29.655  14.153  1.00  0.00     0.147 C 
BRANCH  23  24
HETATM   24  C8  UNL     1      18.185  29.270  13.806  1.00  0.00     0.070 C 
BRANCH  24  25
HETATM   25  C9  UNL     1      18.008  28.507  12.586  1.00  0.00    -0.056 A 
HETATM   26  C10 UNL     1      17.716  29.175  11.417  1.00  0.00     0.007 A 
HETATM   27  C11 UNL     1      17.527  28.532  10.201  1.00  0.00     0.001 A 
HETATM   28  C12 UNL     1      17.632  27.179  10.156  1.00  0.00     0.000 A 
HETATM   29  C13 UNL     1      17.919  26.467  11.291  1.00  0.00     0.001 A 
HETATM   30  C14 UNL     1      18.102  27.135  12.478  1.00  0.00     0.007 A 
ENDBRANCH  24  25
ENDBRANCH  23  24
BRANCH  23  31
HETATM   31  N2  UNL     1      20.540  28.668  13.633  1.00  0.00    -0.346 N 
HETATM   32  C15 UNL     1      21.443  28.937  12.604  1.00  0.00     0.252 C 
HETATM   33  O2  UNL     1      21.408  30.098  12.124  1.00  0.00    -0.268 OA
ATOM     34  H2  UNL     1      20.541  27.735  14.045  1.00  0.00     0.163 HD
BRANCH  32  35
HETATM   35  C16 UNL     1      22.401  27.996  12.057  1.00  0.00     0.034 A 
HETATM   36  C17 UNL     1      23.742  28.180  12.298  1.00  0.00     0.017 A 
HETATM   37  C18 UNL     1      24.655  27.284  11.778  1.00  0.00     0.004 A 
HETATM   38  C19 UNL     1      24.269  26.205  11.021  1.00  0.00     0.036 A 
HETATM   39  C20 UNL     1      22.920  26.054  10.802  1.00  0.00     0.066 A 
HETATM   40  C21 UNL     1      21.971  26.931  11.306  1.00  0.00     0.053 A 
BRANCH  39  41
HETATM   41  O3  UNL     1      22.478  24.975  10.040  1.00  0.00    -0.361 OA
ATOM     42  H3  UNL     1      22.691  24.094  10.323  1.00  0.00     0.217 HD
ENDBRANCH  39  41
ENDBRANCH  32  35
ENDBRANCH  23  31
ENDBRANCH   1  23
TORSDOF 13
ENDMDL
