MODEL 1
REMARK VINA RESULT: -9.298341747      0.000      0.000
REMARK  13 active torsions:
REMARK  status: ('A' for Active; 'I' for Inactive)
REMARK    1  A    between atoms: C2_2  and  C4_4 
REMARK    2  A    between atoms: C4_4  and  N1_5 
REMARK    3  A    between atoms: N1_5  and  C5_6 
REMARK    4  A    between atoms: N1_5  and  S1_30 
REMARK    5  A    between atoms: C5_6  and  C6_7 
REMARK    6  A    between atoms: C6_7  and  O1_8 
REMARK    7  A    between atoms: C6_7  and  C7_10 
REMARK    8  A    between atoms: C7_10  and  C8_11 
REMARK    9  A    between atoms: C7_10  and  N2_18 
REMARK   10  A    between atoms: C8_11  and  C9_12 
REMARK       I    between atoms: N2_18  and  C15_20 
REMARK   11  A    between atoms: C15_20  and  C16_22 
REMARK   12  A    between atoms: C20_26  and  O3_27 
REMARK   13  A    between atoms: S1_30  and  C22_33 
ROOT
HETATM    1  C6  UNL     1      18.637  32.238  15.718  1.00  0.00     0.083 C 
ENDROOT
BRANCH   1   2
HETATM    2  C5  UNL     1      19.553  33.364  15.497  1.00  0.00     0.143 C 
BRANCH   2   3
HETATM    3  N1  UNL     1      20.866  33.395  16.014  1.00  0.00    -0.255 N 
BRANCH   3   4
HETATM    4  C4  UNL     1      21.134  34.330  17.018  1.00  0.00     0.111 C 
BRANCH   4   5
HETATM    5  C2  UNL     1      20.213  35.437  17.335  1.00  0.00    -0.071 C 
HETATM    6  C1  UNL     1      20.780  36.820  17.415  1.00  0.00     0.044 C 
HETATM    7  C3  UNL     1      19.245  35.172  18.466  1.00  0.00     0.044 C 
ENDBRANCH   4   5
ENDBRANCH   3   4
BRANCH   3   8
HETATM    8  S1  UNL     1      22.085  32.645  15.184  1.00  0.00     0.268 S 
HETATM    9  O4  UNL     1      22.435  33.557  13.991  1.00  0.00    -0.200 OA
HETATM   10  O5  UNL     1      23.410  32.575  15.935  1.00  0.00    -0.200 OA
BRANCH   8  11
HETATM   11  C22 UNL     1      21.842  31.093  14.471  1.00  0.00     0.081 A 
HETATM   12  C23 UNL     1      21.212  30.065  15.166  1.00  0.00     0.027 A 
HETATM   13  C24 UNL     1      21.007  28.812  14.696  1.00  0.00     0.032 A 
HETATM   14  C25 UNL     1      21.450  28.471  13.404  1.00  0.00     0.049 A 
HETATM   15  N3  UNL     1      21.317  27.307  12.833  1.00  0.00    -0.359 N 
HETATM   16  C27 UNL     1      22.075  29.459  12.693  1.00  0.00     0.034 A 
HETATM   17  C26 UNL     1      21.777  27.110  11.611  1.00  0.00     0.139 A 
ATOM     18  H3  UNL     1      20.857  26.546  13.332  1.00  0.00     0.166 HD
HETATM   19  S2  UNL     1      22.436  28.642  11.234  1.00  0.00    -0.083 SA
HETATM   20  C28 UNL     1      22.272  30.744  13.207  1.00  0.00     0.046 A 
ENDBRANCH   8  11
ENDBRANCH   3   8
ENDBRANCH   2   3
ENDBRANCH   1   2
BRANCH   1  21
HETATM   21  O1  UNL     1      18.478  31.768  17.004  1.00  0.00    -0.361 OA
ATOM     22  H1  UNL     1      19.078  31.103  17.317  1.00  0.00     0.217 HD
ENDBRANCH   1  21
BRANCH   1  23
HETATM   23  C7  UNL     1      17.403  32.156  14.856  1.00  0.00     0.147 C 
BRANCH  23  24
HETATM   24  C8  UNL     1      16.116  32.444  15.561  1.00  0.00     0.070 C 
BRANCH  24  25
HETATM   25  C9  UNL     1      16.001  33.745  16.191  1.00  0.00    -0.056 A 
HETATM   26  C10 UNL     1      15.482  33.826  17.465  1.00  0.00     0.007 A 
HETATM   27  C11 UNL     1      15.332  35.025  18.149  1.00  0.00     0.001 A 
HETATM   28  C12 UNL     1      15.711  36.177  17.537  1.00  0.00     0.000 A 
HETATM   29  C13 UNL     1      16.232  36.150  16.270  1.00  0.00     0.001 A 
HETATM   30  C14 UNL     1      16.368  34.946  15.621  1.00  0.00     0.007 A 
ENDBRANCH  24  25
ENDBRANCH  23  24
BRANCH  23  31
HETATM   31  N2  UNL     1      17.365  30.830  14.232  1.00  0.00    -0.346 N 
HETATM   32  C15 UNL     1      18.118  30.486  13.108  1.00  0.00     0.252 C 
HETATM   33  O2  UNL     1      18.854  31.388  12.636  1.00  0.00    -0.268 OA
ATOM     34  H2  UNL     1      16.756  30.121  14.641  1.00  0.00     0.163 HD
BRANCH  32  35
HETATM   35  C16 UNL     1      18.114  29.190  12.457  1.00  0.00     0.034 A 
HETATM   36  C17 UNL     1      17.732  28.077  13.168  1.00  0.00     0.017 A 
HETATM   37  C18 UNL     1      17.728  26.844  12.548  1.00  0.00     0.004 A 
HETATM   38  C19 UNL     1      18.095  26.685  11.235  1.00  0.00     0.036 A 
HETATM   39  C20 UNL     1      18.471  27.820  10.556  1.00  0.00     0.066 A 
HETATM   40  C21 UNL     1      18.489  29.078  11.141  1.00  0.00     0.053 A 
BRANCH  39  41
HETATM   41  O3  UNL     1      18.853  27.712   9.221  1.00  0.00    -0.361 OA
ATOM     42  H3  UNL     1      19.642  27.230   9.007  1.00  0.00     0.217 HD
ENDBRANCH  39  41
ENDBRANCH  32  35
ENDBRANCH  23  31
ENDBRANCH   1  23
TORSDOF 13
ENDMDL
