MODEL 5
REMARK VINA RESULT: -7.689045184      2.040      7.828
REMARK  17 active torsions:
REMARK  status: ('A' for Active; 'I' for Inactive)
REMARK    1  A    between atoms: C2_2  and  C3_3 
REMARK    2  A    between atoms: C3_3  and  C4_5 
REMARK    3  A    between atoms: C4_5  and  C5_6 
REMARK    4  A    between atoms: C5_6  and  C6_7 
REMARK       I    between atoms: C6_7  and  N1_9 
REMARK    5  A    between atoms: N1_9  and  C7_11 
REMARK    6  A    between atoms: C7_11  and  C8_12 
REMARK    7  A    between atoms: C7_11  and  C15_19 
REMARK    8  A    between atoms: C8_12  and  C9_13 
REMARK    9  A    between atoms: C15_19  and  O3_20 
REMARK   10  A    between atoms: C15_19  and  C16_22 
REMARK   11  A    between atoms: C16_22  and  N2_23 
REMARK   12  A    between atoms: N2_23  and  C17_24 
REMARK   13  A    between atoms: N2_23  and  S1_29 
REMARK   14  A    between atoms: C17_24  and  C18_25 
REMARK   15  A    between atoms: C18_25  and  C20_27 
REMARK   16  A    between atoms: S1_29  and  C22_32 
REMARK   17  A    between atoms: C25_35  and  O6_36 
ROOT
HETATM    1  C15 UNL     1      20.187  29.474  15.464  1.00  0.00     0.180 C 
ENDROOT
BRANCH   1   2
HETATM    2  C7  UNL     1      19.852  29.041  14.058  1.00  0.00     0.122 C 
BRANCH   2   3
HETATM    3  N1  UNL     1      21.025  28.427  13.456  1.00  0.00    -0.353 N 
HETATM    4  C6  UNL     1      21.789  29.066  12.443  1.00  0.00     0.218 C 
HETATM    5  O2  UNL     1      21.404  30.220  12.073  1.00  0.00    -0.274 OA
ATOM      6  H1  UNL     1      21.311  27.500  13.774  1.00  0.00     0.163 HD
BRANCH   4   7
HETATM    7  C5  UNL     1      22.987  28.430  11.832  1.00  0.00     0.110 C 
BRANCH   7   8
HETATM    8  C4  UNL     1      22.771  26.945  11.641  1.00  0.00     0.087 C 
BRANCH   8   9
HETATM    9  C3  UNL     1      24.017  26.316  11.153  1.00  0.00     0.127 C 
HETATM   10  O1  UNL     1      24.606  25.537  11.876  1.00  0.00    -0.298 OA
BRANCH   9  11
HETATM   11  C2  UNL     1      24.586  26.596   9.805  1.00  0.00     0.074 C 
HETATM   12  C1  UNL     1      24.230  25.509   8.813  1.00  0.00     0.013 C 
ENDBRANCH   9  11
ENDBRANCH   8   9
ENDBRANCH   7   8
ENDBRANCH   4   7
ENDBRANCH   2   3
BRANCH   2  13
HETATM   13  C8  UNL     1      18.612  28.278  13.852  1.00  0.00     0.066 C 
BRANCH  13  14
HETATM   14  C9  UNL     1      18.280  27.920  12.461  1.00  0.00    -0.056 A 
HETATM   15  C10 UNL     1      18.469  26.622  11.975  1.00  0.00     0.007 A 
HETATM   16  C11 UNL     1      18.135  26.318  10.666  1.00  0.00     0.001 A 
HETATM   17  C12 UNL     1      17.615  27.304   9.845  1.00  0.00     0.000 A 
HETATM   18  C13 UNL     1      17.418  28.591  10.296  1.00  0.00     0.001 A 
HETATM   19  C14 UNL     1      17.765  28.859  11.618  1.00  0.00     0.007 A 
ENDBRANCH  13  14
ENDBRANCH   2  13
ENDBRANCH   1   2
BRANCH   1  20
HETATM   20  O3  UNL     1      20.102  28.233  16.180  1.00  0.00    -0.388 OA
ATOM     21  H3  UNL     1      20.810  28.322  16.807  1.00  0.00     0.210 HD
ENDBRANCH   1  20
BRANCH   1  22
HETATM   22  C16 UNL     1      19.198  30.447  16.032  1.00  0.00     0.110 C 
BRANCH  22  23
HETATM   23  N2  UNL     1      19.249  31.741  15.541  1.00  0.00    -0.283 N 
BRANCH  23  24
HETATM   24  C17 UNL     1      19.964  32.662  16.387  1.00  0.00     0.145 C 
BRANCH  24  25
HETATM   25  C18 UNL     1      21.086  33.390  15.738  1.00  0.00     0.000 C 
HETATM   26  C19 UNL     1      21.293  34.802  16.208  1.00  0.00     0.011 C 
BRANCH  25  27
HETATM   27  C20 UNL     1      22.385  32.632  15.947  1.00  0.00     0.001 C 
HETATM   28  C21 UNL     1      22.957  32.054  14.689  1.00  0.00     0.005 C 
ENDBRANCH  25  27
ENDBRANCH  24  25
ENDBRANCH  23  24
BRANCH  23  29
HETATM   29  S1  UNL     1      18.074  32.450  14.619  1.00  0.00     0.264 S 
HETATM   30  O4  UNL     1      17.139  31.474  13.928  1.00  0.00    -0.200 OA
HETATM   31  O5  UNL     1      18.641  33.424  13.586  1.00  0.00    -0.200 OA
BRANCH  29  32
HETATM   32  C22 UNL     1      17.030  33.455  15.611  1.00  0.00     0.080 A 
HETATM   33  C23 UNL     1      17.029  34.838  15.488  1.00  0.00     0.028 A 
HETATM   34  C24 UNL     1      16.205  35.634  16.239  1.00  0.00     0.038 A 
HETATM   35  C25 UNL     1      15.329  35.091  17.159  1.00  0.00     0.068 A 
HETATM   36  C27 UNL     1      15.313  33.720  17.297  1.00  0.00     0.038 A 
HETATM   37  C28 UNL     1      16.147  32.937  16.536  1.00  0.00     0.028 A 
BRANCH  35  38
HETATM   38  O6  UNL     1      14.496  35.934  17.912  1.00  0.00    -0.356 OA
HETATM   39  C26 UNL     1      14.920  36.933  18.772  1.00  0.00     0.210 C 
ENDBRANCH  35  38
ENDBRANCH  29  32
ENDBRANCH  23  29
ENDBRANCH  22  23
ENDBRANCH   1  22
TORSDOF 17
ENDMDL
