MODEL 7
REMARK VINA RESULT: -7.560135687      2.936      6.169
REMARK  17 active torsions:
REMARK  status: ('A' for Active; 'I' for Inactive)
REMARK    1  A    between atoms: C2_2  and  C3_3 
REMARK    2  A    between atoms: C3_3  and  C4_5 
REMARK    3  A    between atoms: C4_5  and  C5_6 
REMARK    4  A    between atoms: C5_6  and  C6_7 
REMARK       I    between atoms: C6_7  and  N1_9 
REMARK    5  A    between atoms: N1_9  and  C7_11 
REMARK    6  A    between atoms: C7_11  and  C8_12 
REMARK    7  A    between atoms: C7_11  and  C15_19 
REMARK    8  A    between atoms: C8_12  and  C9_13 
REMARK    9  A    between atoms: C15_19  and  O3_20 
REMARK   10  A    between atoms: C15_19  and  C16_22 
REMARK   11  A    between atoms: C16_22  and  N2_23 
REMARK   12  A    between atoms: N2_23  and  C17_24 
REMARK   13  A    between atoms: N2_23  and  S1_29 
REMARK   14  A    between atoms: C17_24  and  C18_25 
REMARK   15  A    between atoms: C18_25  and  C20_27 
REMARK   16  A    between atoms: S1_29  and  C22_32 
REMARK   17  A    between atoms: C25_35  and  O6_36 
ROOT
HETATM    1  C15 UNL     1      20.547  30.683  13.255  1.00  0.00     0.180 C 
ENDROOT
BRANCH   1   2
HETATM    2  C7  UNL     1      19.921  31.673  14.206  1.00  0.00     0.122 C 
BRANCH   2   3
HETATM    3  N1  UNL     1      20.964  32.282  15.016  1.00  0.00    -0.353 N 
HETATM    4  C6  UNL     1      21.116  32.008  16.401  1.00  0.00     0.218 C 
HETATM    5  O2  UNL     1      20.292  31.190  16.920  1.00  0.00    -0.274 OA
ATOM      6  H1  UNL     1      21.612  32.933  14.571  1.00  0.00     0.163 HD
BRANCH   4   7
HETATM    7  C5  UNL     1      22.186  32.635  17.222  1.00  0.00     0.110 C 
BRANCH   7   8
HETATM    8  C4  UNL     1      22.213  34.134  17.017  1.00  0.00     0.087 C 
BRANCH   8   9
HETATM    9  C3  UNL     1      21.218  34.778  17.903  1.00  0.00     0.127 C 
HETATM   10  O1  UNL     1      21.477  34.906  19.083  1.00  0.00    -0.298 OA
BRANCH   9  11
HETATM   11  C2  UNL     1      19.906  35.281  17.409  1.00  0.00     0.074 C 
HETATM   12  C1  UNL     1      18.751  34.533  18.040  1.00  0.00     0.013 C 
ENDBRANCH   9  11
ENDBRANCH   8   9
ENDBRANCH   7   8
ENDBRANCH   4   7
ENDBRANCH   2   3
BRANCH   2  13
HETATM   13  C8  UNL     1      18.958  32.638  13.655  1.00  0.00     0.066 C 
BRANCH  13  14
HETATM   14  C9  UNL     1      17.793  32.963  14.497  1.00  0.00    -0.056 A 
HETATM   15  C10 UNL     1      17.118  31.977  15.223  1.00  0.00     0.007 A 
HETATM   16  C11 UNL     1      16.033  32.320  16.013  1.00  0.00     0.001 A 
HETATM   17  C12 UNL     1      15.625  33.641  16.079  1.00  0.00     0.000 A 
HETATM   18  C13 UNL     1      16.271  34.634  15.376  1.00  0.00     0.001 A 
HETATM   19  C14 UNL     1      17.356  34.251  14.592  1.00  0.00     0.007 A 
ENDBRANCH  13  14
ENDBRANCH   2  13
ENDBRANCH   1   2
BRANCH   1  20
HETATM   20  O3  UNL     1      19.844  30.963  12.036  1.00  0.00    -0.388 OA
ATOM     21  H3  UNL     1      19.855  30.116  11.607  1.00  0.00     0.210 HD
ENDBRANCH   1  20
BRANCH   1  22
HETATM   22  C16 UNL     1      20.313  29.256  13.651  1.00  0.00     0.110 C 
BRANCH  22  23
HETATM   23  N2  UNL     1      19.933  28.386  12.642  1.00  0.00    -0.283 N 
BRANCH  23  24
HETATM   24  C17 UNL     1      20.943  28.178  11.635  1.00  0.00     0.145 C 
BRANCH  24  25
HETATM   25  C18 UNL     1      22.014  27.211  11.991  1.00  0.00     0.000 C 
HETATM   26  C19 UNL     1      21.889  25.853  11.360  1.00  0.00     0.011 C 
BRANCH  25  27
HETATM   27  C20 UNL     1      23.371  27.779  11.617  1.00  0.00     0.001 C 
HETATM   28  C21 UNL     1      24.519  26.882  11.964  1.00  0.00     0.005 C 
ENDBRANCH  25  27
ENDBRANCH  24  25
ENDBRANCH  23  24
BRANCH  23  29
HETATM   29  S1  UNL     1      18.386  28.195  12.090  1.00  0.00     0.264 S 
HETATM   30  O4  UNL     1      17.908  29.293  11.158  1.00  0.00    -0.200 OA
HETATM   31  O5  UNL     1      17.373  28.017  13.222  1.00  0.00    -0.200 OA
BRANCH  29  32
HETATM   32  C22 UNL     1      18.239  26.713  11.161  1.00  0.00     0.080 A 
HETATM   33  C23 UNL     1      18.254  25.468  11.778  1.00  0.00     0.028 A 
HETATM   34  C24 UNL     1      18.117  24.304  11.069  1.00  0.00     0.038 A 
HETATM   35  C25 UNL     1      17.957  24.316   9.697  1.00  0.00     0.068 A 
HETATM   36  C27 UNL     1      17.939  25.540   9.064  1.00  0.00     0.038 A 
HETATM   37  C28 UNL     1      18.078  26.698   9.791  1.00  0.00     0.028 A 
BRANCH  35  38
HETATM   38  O6  UNL     1      17.818  23.105   8.999  1.00  0.00    -0.356 OA
HETATM   39  C26 UNL     1      17.258  22.955   7.742  1.00  0.00     0.210 C 
ENDBRANCH  35  38
ENDBRANCH  29  32
ENDBRANCH  23  29
ENDBRANCH  22  23
ENDBRANCH   1  22
TORSDOF 17
ENDMDL
