MODEL 4
REMARK VINA RESULT: -7.734620797      1.986      7.721
REMARK  17 active torsions:
REMARK  status: ('A' for Active; 'I' for Inactive)
REMARK    1  A    between atoms: C2_2  and  C3_3 
REMARK    2  A    between atoms: C3_3  and  C4_5 
REMARK    3  A    between atoms: C4_5  and  C5_6 
REMARK    4  A    between atoms: C5_6  and  C6_7 
REMARK       I    between atoms: C6_7  and  N1_9 
REMARK    5  A    between atoms: N1_9  and  C7_11 
REMARK    6  A    between atoms: C7_11  and  C8_12 
REMARK    7  A    between atoms: C7_11  and  C15_19 
REMARK    8  A    between atoms: C8_12  and  C9_13 
REMARK    9  A    between atoms: C15_19  and  O3_20 
REMARK   10  A    between atoms: C15_19  and  C16_22 
REMARK   11  A    between atoms: C16_22  and  N2_23 
REMARK   12  A    between atoms: N2_23  and  C17_24 
REMARK   13  A    between atoms: N2_23  and  S1_29 
REMARK   14  A    between atoms: C17_24  and  C18_25 
REMARK   15  A    between atoms: C18_25  and  C20_27 
REMARK   16  A    between atoms: S1_29  and  C22_32 
REMARK   17  A    between atoms: C25_35  and  O6_36 
ROOT
HETATM    1  C15 UNL     1      20.380  29.383  15.419  1.00  0.00     0.180 C 
ENDROOT
BRANCH   1   2
HETATM    2  C7  UNL     1      19.926  29.094  14.009  1.00  0.00     0.122 C 
BRANCH   2   3
HETATM    3  N1  UNL     1      21.020  28.483  13.271  1.00  0.00    -0.353 N 
HETATM    4  C6  UNL     1      21.723  29.165  12.243  1.00  0.00     0.218 C 
HETATM    5  O2  UNL     1      21.356  30.355  11.985  1.00  0.00    -0.274 OA
ATOM      6  H1  UNL     1      21.293  27.528  13.502  1.00  0.00     0.163 HD
BRANCH   4   7
HETATM    7  C5  UNL     1      22.842  28.533  11.492  1.00  0.00     0.110 C 
BRANCH   7   8
HETATM    8  C4  UNL     1      22.775  27.025  11.595  1.00  0.00     0.087 C 
BRANCH   8   9
HETATM    9  C3  UNL     1      24.078  26.439  11.213  1.00  0.00     0.127 C 
HETATM   10  O1  UNL     1      24.662  25.732  12.009  1.00  0.00    -0.298 OA
BRANCH   9  11
HETATM   11  C2  UNL     1      24.710  26.678   9.885  1.00  0.00     0.074 C 
HETATM   12  C1  UNL     1      24.432  25.542   8.924  1.00  0.00     0.013 C 
ENDBRANCH   9  11
ENDBRANCH   8   9
ENDBRANCH   7   8
ENDBRANCH   4   7
ENDBRANCH   2   3
BRANCH   2  13
HETATM   13  C8  UNL     1      18.636  28.410  13.831  1.00  0.00     0.066 C 
BRANCH  13  14
HETATM   14  C9  UNL     1      18.273  28.033  12.453  1.00  0.00    -0.056 A 
HETATM   15  C10 UNL     1      17.740  28.964  11.556  1.00  0.00     0.007 A 
HETATM   16  C11 UNL     1      17.422  28.576  10.265  1.00  0.00     0.001 A 
HETATM   17  C12 UNL     1      17.634  27.267   9.871  1.00  0.00     0.000 A 
HETATM   18  C13 UNL     1      18.158  26.328  10.732  1.00  0.00     0.001 A 
HETATM   19  C14 UNL     1      18.465  26.754  12.022  1.00  0.00     0.007 A 
ENDBRANCH  13  14
ENDBRANCH   2  13
ENDBRANCH   1   2
BRANCH   1  20
HETATM   20  O3  UNL     1      19.912  28.223  16.121  1.00  0.00    -0.388 OA
ATOM     21  H3  UNL     1      20.723  27.759  16.291  1.00  0.00     0.210 HD
ENDBRANCH   1  20
BRANCH   1  22
HETATM   22  C16 UNL     1      19.745  30.610  16.003  1.00  0.00     0.110 C 
BRANCH  22  23
HETATM   23  N2  UNL     1      19.659  31.717  15.176  1.00  0.00    -0.283 N 
BRANCH  23  24
HETATM   24  C17 UNL     1      20.729  32.665  15.350  1.00  0.00     0.145 C 
BRANCH  24  25
HETATM   25  C18 UNL     1      22.061  32.079  15.661  1.00  0.00     0.000 C 
HETATM   26  C19 UNL     1      23.091  32.215  14.577  1.00  0.00     0.011 C 
BRANCH  25  27
HETATM   27  C20 UNL     1      22.622  32.710  16.923  1.00  0.00     0.001 C 
HETATM   28  C21 UNL     1      21.819  33.870  17.428  1.00  0.00     0.005 C 
ENDBRANCH  25  27
ENDBRANCH  24  25
ENDBRANCH  23  24
BRANCH  23  29
HETATM   29  S1  UNL     1      18.247  32.391  14.641  1.00  0.00     0.264 S 
HETATM   30  O4  UNL     1      17.253  31.399  14.065  1.00  0.00    -0.200 OA
HETATM   31  O5  UNL     1      18.475  33.519  13.635  1.00  0.00    -0.200 OA
BRANCH  29  32
HETATM   32  C22 UNL     1      17.395  33.174  15.961  1.00  0.00     0.080 A 
HETATM   33  C23 UNL     1      18.064  33.968  16.884  1.00  0.00     0.028 A 
HETATM   34  C24 UNL     1      17.410  34.604  17.905  1.00  0.00     0.038 A 
HETATM   35  C25 UNL     1      16.043  34.483  18.065  1.00  0.00     0.068 A 
HETATM   36  C27 UNL     1      15.359  33.700  17.161  1.00  0.00     0.038 A 
HETATM   37  C28 UNL     1      16.031  33.069  16.143  1.00  0.00     0.028 A 
BRANCH  35  38
HETATM   38  O6  UNL     1      15.402  35.149  19.122  1.00  0.00    -0.356 OA
HETATM   39  C26 UNL     1      15.220  36.518  19.224  1.00  0.00     0.210 C 
ENDBRANCH  35  38
ENDBRANCH  29  32
ENDBRANCH  23  29
ENDBRANCH  22  23
ENDBRANCH   1  22
TORSDOF 17
ENDMDL
