MODEL 1
REMARK VINA RESULT: -8.009947384      0.000      0.000
REMARK  17 active torsions:
REMARK  status: ('A' for Active; 'I' for Inactive)
REMARK    1  A    between atoms: C2_2  and  C3_3 
REMARK    2  A    between atoms: C3_3  and  C4_5 
REMARK    3  A    between atoms: C4_5  and  C5_6 
REMARK    4  A    between atoms: C5_6  and  C6_7 
REMARK       I    between atoms: C6_7  and  N1_9 
REMARK    5  A    between atoms: N1_9  and  C7_11 
REMARK    6  A    between atoms: C7_11  and  C8_12 
REMARK    7  A    between atoms: C7_11  and  C15_19 
REMARK    8  A    between atoms: C8_12  and  C9_13 
REMARK    9  A    between atoms: C15_19  and  O3_20 
REMARK   10  A    between atoms: C15_19  and  C16_22 
REMARK   11  A    between atoms: C16_22  and  N2_23 
REMARK   12  A    between atoms: N2_23  and  C17_24 
REMARK   13  A    between atoms: N2_23  and  S1_29 
REMARK   14  A    between atoms: C17_24  and  C18_25 
REMARK   15  A    between atoms: C18_25  and  C20_27 
REMARK   16  A    between atoms: S1_29  and  C22_32 
REMARK   17  A    between atoms: C25_35  and  O6_36 
ROOT
HETATM    1  C15 UNL     1      18.851  31.268  16.008  1.00  0.00     0.180 C 
ENDROOT
BRANCH   1   2
HETATM    2  C7  UNL     1      17.646  31.565  15.150  1.00  0.00     0.122 C 
BRANCH   2   3
HETATM    3  N1  UNL     1      17.135  32.885  15.486  1.00  0.00    -0.353 N 
HETATM    4  C6  UNL     1      15.905  33.079  16.169  1.00  0.00     0.218 C 
HETATM    5  O2  UNL     1      15.252  32.035  16.487  1.00  0.00    -0.274 OA
ATOM      6  H1  UNL     1      17.682  33.704  15.219  1.00  0.00     0.163 HD
BRANCH   4   7
HETATM    7  C5  UNL     1      15.389  34.433  16.508  1.00  0.00     0.110 C 
BRANCH   7   8
HETATM    8  C4  UNL     1      16.522  35.359  16.894  1.00  0.00     0.087 C 
BRANCH   8   9
HETATM    9  C3  UNL     1      16.808  35.224  18.339  1.00  0.00     0.127 C 
HETATM   10  O1  UNL     1      15.886  35.037  19.107  1.00  0.00    -0.298 OA
BRANCH   9  11
HETATM   11  C2  UNL     1      18.186  35.305  18.898  1.00  0.00     0.074 C 
HETATM   12  C1  UNL     1      18.756  36.703  18.774  1.00  0.00     0.013 C 
ENDBRANCH   9  11
ENDBRANCH   8   9
ENDBRANCH   7   8
ENDBRANCH   4   7
ENDBRANCH   2   3
BRANCH   2  13
HETATM   13  C8  UNL     1      17.756  31.322  13.704  1.00  0.00     0.066 C 
BRANCH  13  14
HETATM   14  C9  UNL     1      17.860  29.915  13.277  1.00  0.00    -0.056 A 
HETATM   15  C10 UNL     1      17.876  28.868  14.204  1.00  0.00     0.007 A 
HETATM   16  C11 UNL     1      17.964  27.558  13.766  1.00  0.00     0.001 A 
HETATM   17  C12 UNL     1      18.034  27.292  12.409  1.00  0.00     0.000 A 
HETATM   18  C13 UNL     1      18.020  28.303  11.473  1.00  0.00     0.001 A 
HETATM   19  C14 UNL     1      17.932  29.608  11.951  1.00  0.00     0.007 A 
ENDBRANCH  13  14
ENDBRANCH   2  13
ENDBRANCH   1   2
BRANCH   1  20
HETATM   20  O3  UNL     1      18.240  30.807  17.222  1.00  0.00    -0.388 OA
ATOM     21  H3  UNL     1      17.665  31.532  17.437  1.00  0.00     0.210 HD
ENDBRANCH   1  20
BRANCH   1  22
HETATM   22  C16 UNL     1      19.683  32.482  16.297  1.00  0.00     0.110 C 
BRANCH  22  23
HETATM   23  N2  UNL     1      20.977  32.479  15.804  1.00  0.00    -0.283 N 
BRANCH  23  24
HETATM   24  C17 UNL     1      21.925  33.169  16.641  1.00  0.00     0.145 C 
BRANCH  24  25
HETATM   25  C18 UNL     1      21.401  34.364  17.355  1.00  0.00     0.000 C 
HETATM   26  C19 UNL     1      21.986  34.605  18.717  1.00  0.00     0.011 C 
BRANCH  25  27
HETATM   27  C20 UNL     1      21.631  35.609  16.518  1.00  0.00     0.001 C 
HETATM   28  C21 UNL     1      22.194  36.762  17.291  1.00  0.00     0.005 C 
ENDBRANCH  25  27
ENDBRANCH  24  25
ENDBRANCH  23  24
BRANCH  23  29
HETATM   29  S1  UNL     1      21.378  32.471  14.200  1.00  0.00     0.264 S 
HETATM   30  O4  UNL     1      22.719  33.105  13.882  1.00  0.00    -0.200 OA
HETATM   31  O5  UNL     1      20.299  33.102  13.318  1.00  0.00    -0.200 OA
BRANCH  29  32
HETATM   32  C22 UNL     1      21.498  30.826  13.599  1.00  0.00     0.080 A 
HETATM   33  C23 UNL     1      21.543  29.741  14.466  1.00  0.00     0.028 A 
HETATM   34  C24 UNL     1      21.615  28.451  14.012  1.00  0.00     0.038 A 
HETATM   35  C25 UNL     1      21.646  28.169  12.660  1.00  0.00     0.068 A 
HETATM   36  C27 UNL     1      21.603  29.230  11.782  1.00  0.00     0.038 A 
HETATM   37  C28 UNL     1      21.531  30.518  12.255  1.00  0.00     0.028 A 
BRANCH  35  38
HETATM   38  O6  UNL     1      21.718  26.835  12.227  1.00  0.00    -0.356 OA
HETATM   39  C26 UNL     1      22.608  26.335  11.291  1.00  0.00     0.210 C 
ENDBRANCH  35  38
ENDBRANCH  29  32
ENDBRANCH  23  29
ENDBRANCH  22  23
ENDBRANCH   1  22
TORSDOF 17
ENDMDL
