MODEL 6
REMARK VINA RESULT: -7.680252359      2.031      5.633
REMARK  17 active torsions:
REMARK  status: ('A' for Active; 'I' for Inactive)
REMARK    1  A    between atoms: C2_2  and  C3_3 
REMARK    2  A    between atoms: C3_3  and  C4_5 
REMARK    3  A    between atoms: C4_5  and  C5_6 
REMARK    4  A    between atoms: C5_6  and  C6_7 
REMARK       I    between atoms: C6_7  and  N1_9 
REMARK    5  A    between atoms: N1_9  and  C7_11 
REMARK    6  A    between atoms: C7_11  and  C8_12 
REMARK    7  A    between atoms: C7_11  and  C15_19 
REMARK    8  A    between atoms: C8_12  and  C9_13 
REMARK    9  A    between atoms: C15_19  and  O3_20 
REMARK   10  A    between atoms: C15_19  and  C16_22 
REMARK   11  A    between atoms: C16_22  and  N2_23 
REMARK   12  A    between atoms: N2_23  and  C17_24 
REMARK   13  A    between atoms: N2_23  and  S1_29 
REMARK   14  A    between atoms: C17_24  and  C18_25 
REMARK   15  A    between atoms: C18_25  and  C20_27 
REMARK   16  A    between atoms: S1_29  and  C22_32 
REMARK   17  A    between atoms: C25_35  and  O6_36 
ROOT
HETATM    1  C15 UNL     1      20.086  30.549  16.085  1.00  0.00     0.180 C 
ENDROOT
BRANCH   1   2
HETATM    2  C7  UNL     1      18.756  30.565  15.373  1.00  0.00     0.122 C 
BRANCH   2   3
HETATM    3  N1  UNL     1      18.545  29.281  14.725  1.00  0.00    -0.353 N 
HETATM    4  C6  UNL     1      18.023  29.164  13.409  1.00  0.00     0.218 C 
HETATM    5  O2  UNL     1      17.742  30.246  12.803  1.00  0.00    -0.274 OA
ATOM      6  H1  UNL     1      18.782  28.430  15.235  1.00  0.00     0.163 HD
BRANCH   4   7
HETATM    7  C5  UNL     1      17.811  27.846  12.753  1.00  0.00     0.110 C 
BRANCH   7   8
HETATM    8  C4  UNL     1      18.007  27.952  11.256  1.00  0.00     0.087 C 
BRANCH   8   9
HETATM    9  C3  UNL     1      18.111  26.599  10.668  1.00  0.00     0.127 C 
HETATM   10  O1  UNL     1      18.378  25.661  11.392  1.00  0.00    -0.298 OA
BRANCH   9  11
HETATM   11  C2  UNL     1      17.901  26.333   9.218  1.00  0.00     0.074 C 
HETATM   12  C1  UNL     1      18.307  27.520   8.369  1.00  0.00     0.013 C 
ENDBRANCH   9  11
ENDBRANCH   8   9
ENDBRANCH   7   8
ENDBRANCH   4   7
ENDBRANCH   2   3
BRANCH   2  13
HETATM   13  C8  UNL     1      17.585  31.052  16.118  1.00  0.00     0.066 C 
BRANCH  13  14
HETATM   14  C9  UNL     1      17.135  32.424  15.820  1.00  0.00    -0.056 A 
HETATM   15  C10 UNL     1      17.706  33.172  14.786  1.00  0.00     0.007 A 
HETATM   16  C11 UNL     1      17.250  34.454  14.527  1.00  0.00     0.001 A 
HETATM   17  C12 UNL     1      16.230  34.986  15.296  1.00  0.00     0.000 A 
HETATM   18  C13 UNL     1      15.648  34.273  16.321  1.00  0.00     0.001 A 
HETATM   19  C14 UNL     1      16.133  32.988  16.552  1.00  0.00     0.007 A 
ENDBRANCH  13  14
ENDBRANCH   2  13
ENDBRANCH   1   2
BRANCH   1  20
HETATM   20  O3  UNL     1      19.779  29.790  17.263  1.00  0.00    -0.388 OA
ATOM     21  H3  UNL     1      20.452  30.084  17.865  1.00  0.00     0.210 HD
ENDBRANCH   1  20
BRANCH   1  22
HETATM   22  C16 UNL     1      20.560  31.915  16.481  1.00  0.00     0.110 C 
BRANCH  22  23
HETATM   23  N2  UNL     1      21.882  32.218  16.201  1.00  0.00    -0.283 N 
BRANCH  23  24
HETATM   24  C17 UNL     1      22.513  33.059  17.187  1.00  0.00     0.145 C 
BRANCH  24  25
HETATM   25  C18 UNL     1      21.731  34.253  17.606  1.00  0.00     0.000 C 
HETATM   26  C19 UNL     1      21.930  34.683  19.031  1.00  0.00     0.011 C 
BRANCH  25  27
HETATM   27  C20 UNL     1      22.066  35.432  16.710  1.00  0.00     0.001 C 
HETATM   28  C21 UNL     1      22.362  36.696  17.458  1.00  0.00     0.005 C 
ENDBRANCH  25  27
ENDBRANCH  24  25
ENDBRANCH  23  24
BRANCH  23  29
HETATM   29  S1  UNL     1      22.517  32.373  14.683  1.00  0.00     0.264 S 
HETATM   30  O4  UNL     1      24.025  32.536  14.643  1.00  0.00    -0.200 OA
HETATM   31  O5  UNL     1      21.865  33.501  13.882  1.00  0.00    -0.200 OA
BRANCH  29  32
HETATM   32  C22 UNL     1      22.190  30.938  13.725  1.00  0.00     0.080 A 
HETATM   33  C23 UNL     1      21.395  30.994  12.587  1.00  0.00     0.028 A 
HETATM   34  C24 UNL     1      21.149  29.888  11.817  1.00  0.00     0.038 A 
HETATM   35  C25 UNL     1      21.685  28.657  12.141  1.00  0.00     0.068 A 
HETATM   36  C27 UNL     1      22.476  28.578  13.267  1.00  0.00     0.038 A 
HETATM   37  C28 UNL     1      22.712  29.697  14.027  1.00  0.00     0.028 A 
BRANCH  35  38
HETATM   38  O6  UNL     1      21.414  27.543  11.330  1.00  0.00    -0.356 OA
HETATM   39  C26 UNL     1      21.922  26.267  11.512  1.00  0.00     0.210 C 
ENDBRANCH  35  38
ENDBRANCH  29  32
ENDBRANCH  23  29
ENDBRANCH  22  23
ENDBRANCH   1  22
TORSDOF 17
ENDMDL
