MODEL 11
REMARK VINA RESULT: -9.052678394      2.693     10.694
REMARK  14 active torsions:
REMARK  status: ('A' for Active; 'I' for Inactive)
REMARK    1  A    between atoms: C3_3  and  C5_5 
REMARK    2  A    between atoms: C6_6  and  C7_7 
REMARK    3  A    between atoms: C8_8  and  C9_9 
REMARK    4  A    between atoms: C9_9  and  O1_10 
REMARK    5  A    between atoms: C9_9  and  C11_12 
REMARK    6  A    between atoms: C11_12  and  C13_14 
REMARK    7  A    between atoms: C13_14  and  O2_15 
REMARK    8  A    between atoms: C13_14  and  C15_17 
REMARK    9  A    between atoms: C15_17  and  C17_19 
REMARK   10  A    between atoms: C17_19  and  C18_20 
REMARK   11  A    between atoms: C18_20  and  C19_21 
REMARK   12  A    between atoms: C21_24  and  O4_25 
REMARK   13  A    between atoms: C22_27  and  O5_28 
REMARK   14  A    between atoms: C25_31  and  O6_32 
ROOT
HETATM    1  C17 UNL     1      85.840  91.249 149.780  1.00  0.00    -0.015 C 
ENDROOT
BRANCH   1   2
HETATM    2  C15 UNL     1      86.306  92.081 148.662  1.00  0.00    -0.058 C 
HETATM    3  C16 UNL     1      86.519  91.216 147.425  1.00  0.00     0.046 C 
BRANCH   2   4
HETATM    4  C13 UNL     1      87.202  93.201 148.834  1.00  0.00     0.155 C 
BRANCH   4   5
HETATM    5  C11 UNL     1      88.693  92.903 148.924  1.00  0.00     0.047 C 
HETATM    6  C12 UNL     1      89.233  93.180 150.308  1.00  0.00     0.016 C 
BRANCH   5   7
HETATM    7  C9  UNL     1      89.586  93.433 147.893  1.00  0.00     0.150 C 
BRANCH   7   8
HETATM    8  C8  UNL     1      90.598  92.479 147.386  1.00  0.00     0.005 C 
HETATM    9  C7  UNL     1      91.757  92.399 148.004  1.00  0.00    -0.001 C 
BRANCH   9  10
HETATM   10  C6  UNL     1      92.808  91.482 147.562  1.00  0.00     0.000 C 
HETATM   11  C5  UNL     1      93.719  91.086 148.422  1.00  0.00     0.006 C 
BRANCH  11  12
HETATM   12  C3  UNL     1      94.781  90.182 148.048  1.00  0.00    -0.066 C 
HETATM   13  C2  UNL     1      94.939  89.824 146.769  1.00  0.00    -0.024 C 
HETATM   14  C1  UNL     1      96.039  88.895 146.419  1.00  0.00     0.036 C 
HETATM   15  C4  UNL     1      95.719  89.626 149.047  1.00  0.00     0.048 C 
ENDBRANCH  11  12
ENDBRANCH   9  10
ENDBRANCH   7   8
BRANCH   7  16
HETATM   16  O1  UNL     1      90.325  94.474 148.512  1.00  0.00    -0.386 OA
HETATM   17  C10 UNL     1      90.125  95.677 147.877  1.00  0.00     0.202 C 
ENDBRANCH   7  16
ENDBRANCH   5   7
ENDBRANCH   4   5
BRANCH   4  18
HETATM   18  O2  UNL     1      87.172  94.076 147.713  1.00  0.00    -0.386 OA
HETATM   19  C14 UNL     1      86.334  95.157 147.906  1.00  0.00     0.202 C 
ENDBRANCH   4  18
ENDBRANCH   2   4
ENDBRANCH   1   2
BRANCH   1  20
HETATM   20  C18 UNL     1      84.601  91.452 150.535  1.00  0.00     0.093 C 
BRANCH  20  21
HETATM   21  C19 UNL     1      83.509  90.480 150.347  1.00  0.00     0.067 A 
HETATM   22  O3  UNL     1      83.761  89.175 150.592  1.00  0.00    -0.310 OA
HETATM   23  C20 UNL     1      82.872  88.240 150.450  1.00  0.00     0.128 A 
HETATM   24  C21 UNL     1      83.191  86.909 150.717  1.00  0.00     0.134 A 
HETATM   25  C27 UNL     1      81.585  88.496 150.035  1.00  0.00     0.085 A 
HETATM   26  C22 UNL     1      82.249  85.908 150.569  1.00  0.00     0.106 A 
HETATM   27  C24 UNL     1      80.967  86.217 150.148  1.00  0.00     0.077 A 
HETATM   28  C25 UNL     1      80.628  87.513 149.879  1.00  0.00     0.088 A 
HETATM   29  C28 UNL     1      81.265  89.791 149.771  1.00  0.00     0.196 A 
HETATM   30  O7  UNL     1      80.105  90.088 149.389  1.00  0.00    -0.287 OA
HETATM   31  C29 UNL     1      82.260  90.766 149.941  1.00  0.00     0.019 A 
HETATM   32  C30 UNL     1      81.797  92.146 149.684  1.00  0.00     0.055 C 
BRANCH  24  33
HETATM   33  O4  UNL     1      84.470  86.586 151.138  1.00  0.00    -0.356 OA
ATOM     34  H4  UNL     1      84.813  85.717 150.967  1.00  0.00     0.218 HD
ENDBRANCH  24  33
BRANCH  26  35
HETATM   35  O5  UNL     1      82.528  84.576 150.824  1.00  0.00    -0.353 OA
HETATM   36  C23 UNL     1      81.708  83.532 150.398  1.00  0.00     0.210 C 
ENDBRANCH  26  35
BRANCH  28  37
HETATM   37  O6  UNL     1      79.368  87.904 149.454  1.00  0.00    -0.355 OA
HETATM   38  C26 UNL     1      78.570  87.041 148.703  1.00  0.00     0.210 C 
ENDBRANCH  28  37
ENDBRANCH  20  21
ENDBRANCH   1  20
TORSDOF 14
ENDMDL
