MODEL 12
REMARK VINA RESULT: -8.956766917      3.443     11.727
REMARK  14 active torsions:
REMARK  status: ('A' for Active; 'I' for Inactive)
REMARK    1  A    between atoms: C3_3  and  C5_5 
REMARK    2  A    between atoms: C6_6  and  C7_7 
REMARK    3  A    between atoms: C8_8  and  C9_9 
REMARK    4  A    between atoms: C9_9  and  O1_10 
REMARK    5  A    between atoms: C9_9  and  C11_12 
REMARK    6  A    between atoms: C11_12  and  C13_14 
REMARK    7  A    between atoms: C13_14  and  O2_15 
REMARK    8  A    between atoms: C13_14  and  C15_17 
REMARK    9  A    between atoms: C15_17  and  C17_19 
REMARK   10  A    between atoms: C17_19  and  C18_20 
REMARK   11  A    between atoms: C18_20  and  C19_21 
REMARK   12  A    between atoms: C21_24  and  O4_25 
REMARK   13  A    between atoms: C22_27  and  O5_28 
REMARK   14  A    between atoms: C25_31  and  O6_32 
ROOT
HETATM    1  C17 UNL     1      83.909  89.444 149.392  1.00  0.00    -0.015 C 
ENDROOT
BRANCH   1   2
HETATM    2  C15 UNL     1      84.654  90.710 149.423  1.00  0.00    -0.058 C 
HETATM    3  C16 UNL     1      84.897  91.134 150.868  1.00  0.00     0.046 C 
BRANCH   2   4
HETATM    4  C13 UNL     1      84.450  91.768 148.461  1.00  0.00     0.155 C 
BRANCH   4   5
HETATM    5  C11 UNL     1      85.574  92.050 147.474  1.00  0.00     0.047 C 
HETATM    6  C12 UNL     1      86.393  90.811 147.195  1.00  0.00     0.016 C 
BRANCH   5   7
HETATM    7  C9  UNL     1      86.434  93.213 147.692  1.00  0.00     0.150 C 
BRANCH   7   8
HETATM    8  C8  UNL     1      87.813  92.903 148.134  1.00  0.00     0.005 C 
HETATM    9  C7  UNL     1      88.818  93.518 147.548  1.00  0.00    -0.001 C 
BRANCH   9  10
HETATM   10  C6  UNL     1      90.208  93.265 147.929  1.00  0.00     0.000 C 
HETATM   11  C5  UNL     1      90.561  93.381 149.189  1.00  0.00     0.006 C 
BRANCH  11  12
HETATM   12  C3  UNL     1      91.916  93.145 149.628  1.00  0.00    -0.066 C 
HETATM   13  C2  UNL     1      92.737  92.385 148.894  1.00  0.00    -0.024 C 
HETATM   14  C1  UNL     1      94.121  92.164 149.374  1.00  0.00     0.036 C 
HETATM   15  C4  UNL     1      92.440  93.724 150.884  1.00  0.00     0.048 C 
ENDBRANCH  11  12
ENDBRANCH   9  10
ENDBRANCH   7   8
BRANCH   7  16
HETATM   16  O1  UNL     1      85.849  93.938 148.763  1.00  0.00    -0.386 OA
HETATM   17  C10 UNL     1      85.705  95.269 148.446  1.00  0.00     0.202 C 
ENDBRANCH   7  16
ENDBRANCH   5   7
ENDBRANCH   4   5
BRANCH   4  18
HETATM   18  O2  UNL     1      83.381  91.470 147.571  1.00  0.00    -0.386 OA
HETATM   19  C14 UNL     1      82.272  92.265 147.788  1.00  0.00     0.202 C 
ENDBRANCH   4  18
ENDBRANCH   2   4
ENDBRANCH   1   2
BRANCH   1  20
HETATM   20  C18 UNL     1      84.008  88.372 150.386  1.00  0.00     0.093 C 
BRANCH  20  21
HETATM   21  C19 UNL     1      82.903  87.400 150.467  1.00  0.00     0.067 A 
HETATM   22  O3  UNL     1      81.663  87.807 150.117  1.00  0.00    -0.310 OA
HETATM   23  C20 UNL     1      80.622  87.032 150.160  1.00  0.00     0.128 A 
HETATM   24  C21 UNL     1      79.366  87.508 149.786  1.00  0.00     0.134 A 
HETATM   25  C27 UNL     1      80.690  85.720 150.568  1.00  0.00     0.085 A 
HETATM   26  C22 UNL     1      78.253  86.689 149.829  1.00  0.00     0.106 A 
HETATM   27  C24 UNL     1      78.373  85.374 150.247  1.00  0.00     0.077 A 
HETATM   28  C25 UNL     1      79.593  84.883 150.619  1.00  0.00     0.088 A 
HETATM   29  C28 UNL     1      81.911  85.246 150.934  1.00  0.00     0.196 A 
HETATM   30  O7  UNL     1      82.037  84.055 151.315  1.00  0.00    -0.287 OA
HETATM   31  C29 UNL     1      83.005  86.121 150.870  1.00  0.00     0.019 A 
HETATM   32  C30 UNL     1      84.295  85.497 151.233  1.00  0.00     0.055 C 
BRANCH  24  33
HETATM   33  O4  UNL     1      79.232  88.821 149.366  1.00  0.00    -0.356 OA
ATOM     34  H4  UNL     1      79.970  89.413 149.441  1.00  0.00     0.218 HD
ENDBRANCH  24  33
BRANCH  26  35
HETATM   35  O5  UNL     1      76.989  87.126 149.466  1.00  0.00    -0.353 OA
HETATM   36  C23 UNL     1      75.826  86.708 150.112  1.00  0.00     0.210 C 
ENDBRANCH  26  35
BRANCH  28  37
HETATM   37  O6  UNL     1      79.795  83.581 151.048  1.00  0.00    -0.355 OA
HETATM   38  C26 UNL     1      78.816  82.912 151.782  1.00  0.00     0.210 C 
ENDBRANCH  28  37
ENDBRANCH  20  21
ENDBRANCH   1  20
TORSDOF 14
ENDMDL
