MODEL 9
REMARK VINA RESULT: -9.225558626      3.475     11.139
REMARK  14 active torsions:
REMARK  status: ('A' for Active; 'I' for Inactive)
REMARK    1  A    between atoms: C3_3  and  C5_5 
REMARK    2  A    between atoms: C6_6  and  C7_7 
REMARK    3  A    between atoms: C8_8  and  C9_9 
REMARK    4  A    between atoms: C9_9  and  O1_10 
REMARK    5  A    between atoms: C9_9  and  C11_12 
REMARK    6  A    between atoms: C11_12  and  C13_14 
REMARK    7  A    between atoms: C13_14  and  O2_15 
REMARK    8  A    between atoms: C13_14  and  C15_17 
REMARK    9  A    between atoms: C15_17  and  C17_19 
REMARK   10  A    between atoms: C17_19  and  C18_20 
REMARK   11  A    between atoms: C18_20  and  C19_21 
REMARK   12  A    between atoms: C21_24  and  O4_25 
REMARK   13  A    between atoms: C22_27  and  O5_28 
REMARK   14  A    between atoms: C25_31  and  O6_32 
ROOT
HETATM    1  C17 UNL     1      84.079  89.483 149.517  1.00  0.00    -0.015 C 
ENDROOT
BRANCH   1   2
HETATM    2  C15 UNL     1      84.758  90.778 149.371  1.00  0.00    -0.058 C 
HETATM    3  C16 UNL     1      85.163  91.308 150.742  1.00  0.00     0.046 C 
BRANCH   2   4
HETATM    4  C13 UNL     1      84.378  91.759 148.381  1.00  0.00     0.155 C 
BRANCH   4   5
HETATM    5  C11 UNL     1      85.398  92.106 147.305  1.00  0.00     0.047 C 
HETATM    6  C12 UNL     1      86.138  90.879 146.825  1.00  0.00     0.016 C 
BRANCH   5   7
HETATM    7  C9  UNL     1      86.317  93.222 147.531  1.00  0.00     0.150 C 
BRANCH   7   8
HETATM    8  C8  UNL     1      87.666  92.840 148.005  1.00  0.00     0.005 C 
HETATM    9  C7  UNL     1      88.714  93.435 147.476  1.00  0.00    -0.001 C 
BRANCH   9  10
HETATM   10  C6  UNL     1      90.080  93.112 147.891  1.00  0.00     0.000 C 
HETATM   11  C5  UNL     1      90.472  93.421 149.107  1.00  0.00     0.006 C 
BRANCH  11  12
HETATM   12  C3  UNL     1      91.806  93.130 149.576  1.00  0.00    -0.066 C 
HETATM   13  C2  UNL     1      92.632  92.385 148.832  1.00  0.00    -0.024 C 
HETATM   14  C1  UNL     1      93.994  92.106 149.343  1.00  0.00     0.036 C 
HETATM   15  C4  UNL     1      92.302  93.634 150.875  1.00  0.00     0.048 C 
ENDBRANCH  11  12
ENDBRANCH   9  10
ENDBRANCH   7   8
BRANCH   7  16
HETATM   16  O1  UNL     1      85.751  93.989 148.583  1.00  0.00    -0.386 OA
HETATM   17  C10 UNL     1      85.660  95.317 148.240  1.00  0.00     0.202 C 
ENDBRANCH   7  16
ENDBRANCH   5   7
ENDBRANCH   4   5
BRANCH   4  18
HETATM   18  O2  UNL     1      83.290  91.308 147.583  1.00  0.00    -0.386 OA
HETATM   19  C14 UNL     1      82.126  92.010 147.828  1.00  0.00     0.202 C 
ENDBRANCH   4  18
ENDBRANCH   2   4
ENDBRANCH   1   2
BRANCH   1  20
HETATM   20  C18 UNL     1      83.845  88.781 150.780  1.00  0.00     0.093 C 
BRANCH  20  21
HETATM   21  C19 UNL     1      83.296  87.414 150.721  1.00  0.00     0.067 A 
HETATM   22  O3  UNL     1      82.121  87.221 150.083  1.00  0.00    -0.310 OA
HETATM   23  C20 UNL     1      81.549  86.060 149.981  1.00  0.00     0.128 A 
HETATM   24  C21 UNL     1      80.334  85.922 149.311  1.00  0.00     0.134 A 
HETATM   25  C27 UNL     1      82.093  84.915 150.516  1.00  0.00     0.085 A 
HETATM   26  C22 UNL     1      79.720  84.689 149.197  1.00  0.00     0.106 A 
HETATM   27  C24 UNL     1      80.308  83.566 149.754  1.00  0.00     0.077 A 
HETATM   28  C25 UNL     1      81.498  83.673 150.417  1.00  0.00     0.088 A 
HETATM   29  C28 UNL     1      83.278  85.039 151.172  1.00  0.00     0.196 A 
HETATM   30  O7  UNL     1      83.825  84.029 151.682  1.00  0.00    -0.287 OA
HETATM   31  C29 UNL     1      83.856  86.315 151.255  1.00  0.00     0.019 A 
HETATM   32  C30 UNL     1      85.167  86.335 151.937  1.00  0.00     0.055 C 
BRANCH  24  33
HETATM   33  O4  UNL     1      79.735  87.037 148.750  1.00  0.00    -0.356 OA
ATOM     34  H4  UNL     1      78.818  87.213 148.923  1.00  0.00     0.218 HD
ENDBRANCH  24  33
BRANCH  26  35
HETATM   35  O5  UNL     1      78.513  84.512 148.540  1.00  0.00    -0.353 OA
HETATM   36  C23 UNL     1      77.340  84.136 149.192  1.00  0.00     0.210 C 
ENDBRANCH  26  35
BRANCH  28  37
HETATM   37  O6  UNL     1      82.149  82.598 151.000  1.00  0.00    -0.355 OA
HETATM   38  C26 UNL     1      81.456  81.430 151.315  1.00  0.00     0.210 C 
ENDBRANCH  28  37
ENDBRANCH  20  21
ENDBRANCH   1  20
TORSDOF 14
ENDMDL
