MODEL 2
REMARK VINA RESULT: -11.091451817      0.837      1.162
REMARK  14 active torsions:
REMARK  status: ('A' for Active; 'I' for Inactive)
REMARK    1  A    between atoms: C3_3  and  C5_5 
REMARK    2  A    between atoms: C6_6  and  C7_7 
REMARK    3  A    between atoms: C8_8  and  C9_9 
REMARK    4  A    between atoms: C9_9  and  O1_10 
REMARK    5  A    between atoms: C9_9  and  C11_12 
REMARK    6  A    between atoms: C11_12  and  C13_14 
REMARK    7  A    between atoms: C13_14  and  O2_15 
REMARK    8  A    between atoms: C13_14  and  C15_17 
REMARK    9  A    between atoms: C15_17  and  C17_19 
REMARK   10  A    between atoms: C17_19  and  C18_20 
REMARK   11  A    between atoms: C18_20  and  C19_21 
REMARK   12  A    between atoms: C21_24  and  O4_25 
REMARK   13  A    between atoms: C22_27  and  O5_28 
REMARK   14  A    between atoms: C25_31  and  O6_32 
ROOT
HETATM    1  C17 UNL     1      88.496  92.911 147.773  1.00  0.00    -0.015 C 
ENDROOT
BRANCH   1   2
HETATM    2  C15 UNL     1      87.180  92.330 148.073  1.00  0.00    -0.058 C 
HETATM    3  C16 UNL     1      86.983  91.049 147.269  1.00  0.00     0.046 C 
BRANCH   2   4
HETATM    4  C13 UNL     1      86.003  93.130 148.318  1.00  0.00     0.155 C 
BRANCH   4   5
HETATM    5  C11 UNL     1      85.179  92.810 149.558  1.00  0.00     0.047 C 
HETATM    6  C12 UNL     1      86.011  92.123 150.616  1.00  0.00     0.016 C 
BRANCH   5   7
HETATM    7  C9  UNL     1      83.882  92.153 149.398  1.00  0.00     0.150 C 
BRANCH   7   8
HETATM    8  C8  UNL     1      83.831  90.742 149.843  1.00  0.00     0.005 C 
HETATM    9  C7  UNL     1      83.724  89.795 148.935  1.00  0.00    -0.001 C 
BRANCH   9  10
HETATM   10  C6  UNL     1      83.668  88.378 149.296  1.00  0.00     0.000 C 
HETATM   11  C5  UNL     1      83.938  88.018 150.531  1.00  0.00     0.006 C 
BRANCH  11  12
HETATM   12  C3  UNL     1      83.901  86.637 150.949  1.00  0.00    -0.066 C 
HETATM   13  C2  UNL     1      82.957  85.817 150.474  1.00  0.00    -0.024 C 
HETATM   14  C1  UNL     1      82.948  84.405 150.924  1.00  0.00     0.036 C 
HETATM   15  C4  UNL     1      84.887  86.085 151.903  1.00  0.00     0.048 C 
ENDBRANCH  11  12
ENDBRANCH   9  10
ENDBRANCH   7   8
BRANCH   7  16
HETATM   16  O1  UNL     1      83.630  92.117 148.001  1.00  0.00    -0.386 OA
HETATM   17  C10 UNL     1      82.403  92.658 147.700  1.00  0.00     0.202 C 
ENDBRANCH   7  16
ENDBRANCH   5   7
ENDBRANCH   4   5
BRANCH   4  18
HETATM   18  O2  UNL     1      86.333  94.492 148.562  1.00  0.00    -0.386 OA
HETATM   19  C14 UNL     1      85.222  95.312 148.590  1.00  0.00     0.202 C 
ENDBRANCH   4  18
ENDBRANCH   2   4
ENDBRANCH   1   2
BRANCH   1  20
HETATM   20  C18 UNL     1      89.367  93.591 148.734  1.00  0.00     0.093 C 
BRANCH  20  21
HETATM   21  C19 UNL     1      90.743  93.088 148.896  1.00  0.00     0.067 A 
HETATM   22  O3  UNL     1      91.219  92.213 147.982  1.00  0.00    -0.310 OA
HETATM   23  C20 UNL     1      92.413  91.706 148.038  1.00  0.00     0.128 A 
HETATM   24  C21 UNL     1      92.849  90.807 147.066  1.00  0.00     0.134 A 
HETATM   25  C27 UNL     1      93.305  92.015 149.039  1.00  0.00     0.085 A 
HETATM   26  C22 UNL     1      94.118  90.263 147.118  1.00  0.00     0.106 A 
HETATM   27  C24 UNL     1      94.980  90.606 148.146  1.00  0.00     0.077 A 
HETATM   28  C25 UNL     1      94.577  91.484 149.113  1.00  0.00     0.088 A 
HETATM   29  C28 UNL     1      92.889  92.891 149.992  1.00  0.00     0.196 A 
HETATM   30  O7  UNL     1      93.658  93.213 150.931  1.00  0.00    -0.287 OA
HETATM   31  C29 UNL     1      91.590  93.413 149.888  1.00  0.00     0.019 A 
HETATM   32  C30 UNL     1      91.254  94.397 150.938  1.00  0.00     0.055 C 
BRANCH  24  33
HETATM   33  O4  UNL     1      91.998  90.455 146.032  1.00  0.00    -0.356 OA
ATOM     34  H4  UNL     1      92.156  90.795 145.159  1.00  0.00     0.218 HD
ENDBRANCH  24  33
BRANCH  26  35
HETATM   35  O5  UNL     1      94.588  89.367 146.171  1.00  0.00    -0.353 OA
HETATM   36  C23 UNL     1      95.942  89.087 145.994  1.00  0.00     0.210 C 
ENDBRANCH  26  35
BRANCH  28  37
HETATM   37  O6  UNL     1      95.379  91.878 150.172  1.00  0.00    -0.355 OA
HETATM   38  C26 UNL     1      96.734  91.550 150.201  1.00  0.00     0.210 C 
ENDBRANCH  28  37
ENDBRANCH  20  21
ENDBRANCH   1  20
TORSDOF 14
ENDMDL
