MODEL 3
REMARK VINA RESULT: -10.415595149      0.994      1.856
REMARK  14 active torsions:
REMARK  status: ('A' for Active; 'I' for Inactive)
REMARK    1  A    between atoms: C3_3  and  C5_5 
REMARK    2  A    between atoms: C6_6  and  C7_7 
REMARK    3  A    between atoms: C8_8  and  C9_9 
REMARK    4  A    between atoms: C9_9  and  O1_10 
REMARK    5  A    between atoms: C9_9  and  C11_12 
REMARK    6  A    between atoms: C11_12  and  C13_14 
REMARK    7  A    between atoms: C13_14  and  O2_15 
REMARK    8  A    between atoms: C13_14  and  C15_17 
REMARK    9  A    between atoms: C15_17  and  C17_19 
REMARK   10  A    between atoms: C17_19  and  C18_20 
REMARK   11  A    between atoms: C18_20  and  C19_21 
REMARK   12  A    between atoms: C21_24  and  O4_25 
REMARK   13  A    between atoms: C22_27  and  O5_28 
REMARK   14  A    between atoms: C25_31  and  O6_32 
ROOT
HETATM    1  C17 UNL     1      88.619  93.368 147.751  1.00  0.00    -0.015 C 
ENDROOT
BRANCH   1   2
HETATM    2  C15 UNL     1      87.512  93.215 148.705  1.00  0.00    -0.058 C 
HETATM    3  C16 UNL     1      88.060  92.856 150.082  1.00  0.00     0.046 C 
BRANCH   2   4
HETATM    4  C13 UNL     1      86.235  92.643 148.346  1.00  0.00     0.155 C 
BRANCH   4   5
HETATM    5  C11 UNL     1      85.010  93.543 148.437  1.00  0.00     0.047 C 
HETATM    6  C12 UNL     1      85.388  94.964 148.786  1.00  0.00     0.016 C 
BRANCH   5   7
HETATM    7  C9  UNL     1      83.858  93.096 149.221  1.00  0.00     0.150 C 
BRANCH   7   8
HETATM    8  C8  UNL     1      83.726  91.628 149.364  1.00  0.00     0.005 C 
HETATM    9  C7  UNL     1      84.223  91.050 150.437  1.00  0.00    -0.001 C 
BRANCH   9  10
HETATM   10  C6  UNL     1      84.131  89.605 150.650  1.00  0.00     0.000 C 
HETATM   11  C5  UNL     1      83.426  88.875 149.815  1.00  0.00     0.006 C 
BRANCH  11  12
HETATM   12  C3  UNL     1      83.297  87.446 149.971  1.00  0.00    -0.066 C 
HETATM   13  C2  UNL     1      83.859  86.831 151.018  1.00  0.00    -0.024 C 
HETATM   14  C1  UNL     1      83.707  85.363 151.148  1.00  0.00     0.036 C 
HETATM   15  C4  UNL     1      82.552  86.619 148.997  1.00  0.00     0.048 C 
ENDBRANCH  11  12
ENDBRANCH   9  10
ENDBRANCH   7   8
BRANCH   7  16
HETATM   16  O1  UNL     1      82.708  93.510 148.501  1.00  0.00    -0.386 OA
HETATM   17  C10 UNL     1      82.212  92.492 147.721  1.00  0.00     0.202 C 
ENDBRANCH   7  16
ENDBRANCH   5   7
ENDBRANCH   4   5
BRANCH   4  18
HETATM   18  O2  UNL     1      86.192  92.272 146.973  1.00  0.00    -0.386 OA
HETATM   19  C14 UNL     1      85.976  90.919 146.795  1.00  0.00     0.202 C 
ENDBRANCH   4  18
ENDBRANCH   2   4
ENDBRANCH   1   2
BRANCH   1  20
HETATM   20  C18 UNL     1      89.822  94.176 147.963  1.00  0.00     0.093 C 
BRANCH  20  21
HETATM   21  C19 UNL     1      91.067  93.478 148.332  1.00  0.00     0.067 A 
HETATM   22  O3  UNL     1      91.501  92.475 147.537  1.00  0.00    -0.310 OA
HETATM   23  C20 UNL     1      92.580  91.794 147.776  1.00  0.00     0.128 A 
HETATM   24  C21 UNL     1      92.977  90.768 146.919  1.00  0.00     0.134 A 
HETATM   25  C27 UNL     1      93.383  92.034 148.867  1.00  0.00     0.085 A 
HETATM   26  C22 UNL     1      94.125  90.039 147.167  1.00  0.00     0.106 A 
HETATM   27  C24 UNL     1      94.900  90.319 148.279  1.00  0.00     0.077 A 
HETATM   28  C25 UNL     1      94.533  91.319 149.136  1.00  0.00     0.088 A 
HETATM   29  C28 UNL     1      93.003  93.032 149.709  1.00  0.00     0.196 A 
HETATM   30  O7  UNL     1      93.696  93.300 150.722  1.00  0.00    -0.287 OA
HETATM   31  C29 UNL     1      91.830  93.741 149.407  1.00  0.00     0.019 A 
HETATM   32  C30 UNL     1      91.535  94.840 150.349  1.00  0.00     0.055 C 
BRANCH  24  33
HETATM   33  O4  UNL     1      92.211  90.477 145.803  1.00  0.00    -0.356 OA
ATOM     34  H4  UNL     1      91.264  90.537 145.857  1.00  0.00     0.218 HD
ENDBRANCH  24  33
BRANCH  26  35
HETATM   35  O5  UNL     1      94.552  89.013 146.340  1.00  0.00    -0.353 OA
HETATM   36  C23 UNL     1      95.889  88.817 145.999  1.00  0.00     0.210 C 
ENDBRANCH  26  35
BRANCH  28  37
HETATM   37  O6  UNL     1      95.254  91.661 150.268  1.00  0.00    -0.355 OA
HETATM   38  C26 UNL     1      96.638  91.497 150.308  1.00  0.00     0.210 C 
ENDBRANCH  28  37
ENDBRANCH  20  21
ENDBRANCH   1  20
TORSDOF 14
ENDMDL
