MODEL 1
REMARK VINA RESULT: -11.471157559      0.000      0.000
REMARK  14 active torsions:
REMARK  status: ('A' for Active; 'I' for Inactive)
REMARK    1  A    between atoms: C3_3  and  C5_5 
REMARK    2  A    between atoms: C6_6  and  C7_7 
REMARK    3  A    between atoms: C8_8  and  C9_9 
REMARK    4  A    between atoms: C9_9  and  O1_10 
REMARK    5  A    between atoms: C9_9  and  C11_12 
REMARK    6  A    between atoms: C11_12  and  C13_14 
REMARK    7  A    between atoms: C13_14  and  O2_15 
REMARK    8  A    between atoms: C13_14  and  C15_17 
REMARK    9  A    between atoms: C15_17  and  C17_19 
REMARK   10  A    between atoms: C17_19  and  C18_20 
REMARK   11  A    between atoms: C18_20  and  C19_21 
REMARK   12  A    between atoms: C21_24  and  O4_25 
REMARK   13  A    between atoms: C22_27  and  O5_28 
REMARK   14  A    between atoms: C25_31  and  O6_32 
ROOT
HETATM    1  C17 UNL     1      88.511  93.089 148.293  1.00  0.00    -0.015 C 
ENDROOT
BRANCH   1   2
HETATM    2  C15 UNL     1      87.317  93.456 147.518  1.00  0.00    -0.058 C 
HETATM    3  C16 UNL     1      87.512  94.830 146.886  1.00  0.00     0.046 C 
BRANCH   2   4
HETATM    4  C13 UNL     1      85.975  93.115 147.929  1.00  0.00     0.155 C 
BRANCH   4   5
HETATM    5  C11 UNL     1      85.669  91.646 148.185  1.00  0.00     0.047 C 
HETATM    6  C12 UNL     1      86.281  90.758 147.127  1.00  0.00     0.016 C 
BRANCH   5   7
HETATM    7  C9  UNL     1      84.291  91.249 148.475  1.00  0.00     0.150 C 
BRANCH   7   8
HETATM    8  C8  UNL     1      84.048  89.789 148.500  1.00  0.00     0.005 C 
HETATM    9  C7  UNL     1      83.538  89.251 149.588  1.00  0.00    -0.001 C 
BRANCH   9  10
HETATM   10  C6  UNL     1      83.270  87.816 149.690  1.00  0.00     0.000 C 
HETATM   11  C5  UNL     1      83.644  87.167 150.769  1.00  0.00     0.006 C 
BRANCH  11  12
HETATM   12  C3  UNL     1      83.409  85.751 150.929  1.00  0.00    -0.066 C 
HETATM   13  C2  UNL     1      82.315  85.188 150.403  1.00  0.00    -0.024 C 
HETATM   14  C1  UNL     1      82.105  83.733 150.585  1.00  0.00     0.036 C 
HETATM   15  C4  UNL     1      84.351  84.884 151.669  1.00  0.00     0.048 C 
ENDBRANCH  11  12
ENDBRANCH   9  10
ENDBRANCH   7   8
BRANCH   7  16
HETATM   16  O1  UNL     1      83.506  91.743 147.401  1.00  0.00    -0.386 OA
HETATM   17  C10 UNL     1      82.307  92.246 147.848  1.00  0.00     0.202 C 
ENDBRANCH   7  16
ENDBRANCH   5   7
ENDBRANCH   4   5
BRANCH   4  18
HETATM   18  O2  UNL     1      85.653  93.680 149.195  1.00  0.00    -0.386 OA
HETATM   19  C14 UNL     1      84.841  94.792 149.088  1.00  0.00     0.202 C 
ENDBRANCH   4  18
ENDBRANCH   2   4
ENDBRANCH   1   2
BRANCH   1  20
HETATM   20  C18 UNL     1      89.655  93.963 148.562  1.00  0.00     0.093 C 
BRANCH  20  21
HETATM   21  C19 UNL     1      90.970  93.334 148.776  1.00  0.00     0.067 A 
HETATM   22  O3  UNL     1      91.390  92.406 147.888  1.00  0.00    -0.310 OA
HETATM   23  C20 UNL     1      92.528  91.788 147.990  1.00  0.00     0.128 A 
HETATM   24  C21 UNL     1      92.908  90.838 147.043  1.00  0.00     0.134 A 
HETATM   25  C27 UNL     1      93.413  92.026 149.017  1.00  0.00     0.085 A 
HETATM   26  C22 UNL     1      94.118  90.177 147.144  1.00  0.00     0.106 A 
HETATM   27  C24 UNL     1      94.974  90.451 148.197  1.00  0.00     0.077 A 
HETATM   28  C25 UNL     1      94.626  91.378 149.139  1.00  0.00     0.088 A 
HETATM   29  C28 UNL     1      93.051  92.951 149.946  1.00  0.00     0.196 A 
HETATM   30  O7  UNL     1      93.817  93.212 150.907  1.00  0.00    -0.287 OA
HETATM   31  C29 UNL     1      91.812  93.592 149.792  1.00  0.00     0.019 A 
HETATM   32  C30 UNL     1      91.537  94.618 150.820  1.00  0.00     0.055 C 
BRANCH  24  33
HETATM   33  O4  UNL     1      92.061  90.554 145.985  1.00  0.00    -0.356 OA
ATOM     34  H4  UNL     1      92.416  90.174 145.190  1.00  0.00     0.218 HD
ENDBRANCH  24  33
BRANCH  26  35
HETATM   35  O5  UNL     1      94.530  89.227 146.223  1.00  0.00    -0.353 OA
HETATM   36  C23 UNL     1      95.871  88.965 145.950  1.00  0.00     0.210 C 
ENDBRANCH  26  35
BRANCH  28  37
HETATM   37  O6  UNL     1      95.426  91.708 150.221  1.00  0.00    -0.355 OA
HETATM   38  C26 UNL     1      96.803  91.489 150.182  1.00  0.00     0.210 C 
ENDBRANCH  28  37
ENDBRANCH  20  21
ENDBRANCH   1  20
TORSDOF 14
ENDMDL
