MODEL 2
REMARK VINA RESULT: -4.942745560      3.615      5.409
REMARK  6 active torsions:
REMARK  status: ('A' for Active; 'I' for Inactive)
REMARK    1  A    between atoms: C1_2  and  C2_4 
REMARK    2  A    between atoms: C2_4  and  C3_5 
REMARK    3  A    between atoms: C3_5  and  O3_6 
REMARK    4  A    between atoms: C3_5  and  C4_8 
REMARK    5  A    between atoms: C3_5  and  C6_12 
REMARK    6  A    between atoms: C4_8  and  C5_9 
ROOT
HETATM    1  C3  UNL     1     -42.484  12.165  10.727  1.00  0.00     0.164 C 
ENDROOT
BRANCH   1   2
HETATM    2  C2  UNL     1     -41.454  13.133  11.168  1.00  0.00     0.163 C 
BRANCH   2   3
HETATM    3  C1  UNL     1     -41.923  14.286  11.955  1.00  0.00     0.176 C 
HETATM    4  O1  UNL     1     -42.022  14.164  13.198  1.00  0.00    -0.648 OA
HETATM    5  O2  UNL     1     -42.272  15.519  11.426  1.00  0.00    -0.648 OA
ENDBRANCH   2   3
ENDBRANCH   1   2
BRANCH   1   6
HETATM    6  O3  UNL     1     -43.716  12.826  10.695  1.00  0.00    -0.378 OA
ATOM      7  H3  UNL     1     -43.818  13.301  11.511  1.00  0.00     0.211 HD
ENDBRANCH   1   6
BRANCH   1   8
HETATM    8  C4  UNL     1     -42.605  10.896  11.491  1.00  0.00     0.163 C 
BRANCH   8   9
HETATM    9  C5  UNL     1     -43.699  10.855  12.484  1.00  0.00     0.176 C 
HETATM   10  O4  UNL     1     -44.848  10.537  12.124  1.00  0.00    -0.648 OA
HETATM   11  O5  UNL     1     -43.391  11.178  13.796  1.00  0.00    -0.648 OA
ENDBRANCH   8   9
ENDBRANCH   1   8
BRANCH   1  12
HETATM   12  C6  UNL     1     -42.145  11.782   9.330  1.00  0.00     0.210 C 
HETATM   13  O6  UNL     1     -42.177  12.669   8.453  1.00  0.00    -0.646 OA
HETATM   14  O7  UNL     1     -41.802  10.495   8.988  1.00  0.00    -0.646 OA
ENDBRANCH   1  12
TORSDOF 6
ENDMDL
