MODEL 3
REMARK VINA RESULT: -4.917605916      1.303      3.127
REMARK  6 active torsions:
REMARK  status: ('A' for Active; 'I' for Inactive)
REMARK    1  A    between atoms: C1_2  and  C2_4 
REMARK    2  A    between atoms: C2_4  and  C3_5 
REMARK    3  A    between atoms: C3_5  and  O3_6 
REMARK    4  A    between atoms: C3_5  and  C4_8 
REMARK    5  A    between atoms: C3_5  and  C6_12 
REMARK    6  A    between atoms: C4_8  and  C5_9 
ROOT
HETATM    1  C3  UNL     1     -39.133  10.673  10.031  1.00  0.00     0.164 C 
ENDROOT
BRANCH   1   2
HETATM    2  C2  UNL     1     -38.935   9.251  10.391  1.00  0.00     0.163 C 
BRANCH   2   3
HETATM    3  C1  UNL     1     -38.485   8.352   9.315  1.00  0.00     0.176 C 
HETATM    4  O1  UNL     1     -39.272   7.469   8.902  1.00  0.00    -0.648 OA
HETATM    5  O2  UNL     1     -37.240   8.402   8.708  1.00  0.00    -0.648 OA
ENDBRANCH   2   3
ENDBRANCH   1   2
BRANCH   1   6
HETATM    6  O3  UNL     1     -39.399  10.741   8.660  1.00  0.00    -0.378 OA
ATOM      7  H3  UNL     1     -39.880  11.543   8.492  1.00  0.00     0.211 HD
ENDBRANCH   1   6
BRANCH   1   8
HETATM    8  C4  UNL     1     -38.053  11.629  10.390  1.00  0.00     0.163 C 
BRANCH   8   9
HETATM    9  C5  UNL     1     -37.344  12.243   9.248  1.00  0.00     0.176 C 
HETATM   10  O4  UNL     1     -36.378  11.652   8.729  1.00  0.00    -0.648 OA
HETATM   11  O5  UNL     1     -37.795  13.474   8.797  1.00  0.00    -0.648 OA
ENDBRANCH   8   9
ENDBRANCH   1   8
BRANCH   1  12
HETATM   12  C6  UNL     1     -40.354  11.132  10.747  1.00  0.00     0.210 C 
HETATM   13  O6  UNL     1     -40.848  12.231  10.422  1.00  0.00    -0.646 OA
HETATM   14  O7  UNL     1     -40.942  10.386  11.741  1.00  0.00    -0.646 OA
ENDBRANCH   1  12
TORSDOF 6
ENDMDL
