MODEL 4
REMARK VINA RESULT: -8.392241352      0.998      1.513
REMARK  6 active torsions:
REMARK  status: ('A' for Active; 'I' for Inactive)
REMARK    1  A    between atoms: C9_9  and  O1_10 
REMARK    2  A    between atoms: C12_14  and  C14_16 
REMARK    3  A    between atoms: C14_16  and  O2_17 
REMARK    4  A    between atoms: O2_17  and  C15_18 
REMARK    5  A    between atoms: C18_21  and  C19_22 
REMARK    6  A    between atoms: C19_22  and  C20_23 
ROOT
HETATM    1  C14 UNL     1      -9.567  -7.482  17.744  1.00  0.00     0.213 C 
ENDROOT
BRANCH   1   2
HETATM    2  C12 UNL     1      -9.135  -7.937  19.125  1.00  0.00     0.086 C 
HETATM    3  C11 UNL     1     -10.213  -8.782  19.786  1.00  0.00     0.045 C 
HETATM    4  C10 UNL     1      -9.806  -8.946  21.234  1.00  0.00     0.045 C 
HETATM    5  C6  UNL     1      -8.423  -9.523  21.261  1.00  0.00    -0.015 A 
HETATM    6  C5  UNL     1      -7.582  -9.422  20.171  1.00  0.00     0.083 A 
HETATM    7  C7  UNL     1      -8.044 -10.157  22.434  1.00  0.00    -0.019 A 
HETATM    8  C3  UNL     1      -6.328  -9.978  20.274  1.00  0.00    -0.019 A 
HETATM    9  O5  UNL     1      -7.997  -8.770  18.993  1.00  0.00    -0.337 OA
HETATM   10  C2  UNL     1      -5.899 -10.619  21.415  1.00  0.00    -0.020 A 
HETATM   11  C4  UNL     1      -5.385  -9.892  19.120  1.00  0.00     0.052 C 
HETATM   12  C1  UNL     1      -4.521 -11.216  21.494  1.00  0.00     0.052 C 
HETATM   13  C9  UNL     1      -6.774 -10.695  22.477  1.00  0.00     0.078 A 
HETATM   14  C8  UNL     1      -8.988 -10.248  23.601  1.00  0.00     0.052 C 
HETATM   15  C13 UNL     1      -8.889  -6.732  19.977  1.00  0.00     0.049 C 
BRANCH  13  16
HETATM   16  O1  UNL     1      -6.385 -11.337  23.657  1.00  0.00    -0.360 OA
ATOM     17  H1  UNL     1      -5.858 -10.873  24.296  1.00  0.00     0.217 HD
ENDBRANCH  13  16
ENDBRANCH   1   2
BRANCH   1  18
HETATM   18  O2  UNL     1      -8.509  -7.772  16.857  1.00  0.00    -0.348 OA
BRANCH  18  19
HETATM   19  C15 UNL     1      -8.285  -9.042  16.345  1.00  0.00     0.068 A 
HETATM   20  C16 UNL     1      -9.310  -9.947  16.188  1.00  0.00     0.037 A 
HETATM   21  C17 UNL     1      -8.993 -11.185  15.671  1.00  0.00     0.010 A 
HETATM   22  C18 UNL     1      -7.698 -11.508  15.324  1.00  0.00    -0.056 A 
HETATM   23  C23 UNL     1      -6.665 -10.604  15.479  1.00  0.00     0.010 A 
HETATM   24  C24 UNL     1      -6.993  -9.369  15.997  1.00  0.00     0.037 A 
BRANCH  22  25
HETATM   25  C19 UNL     1      -7.416 -12.839  14.778  1.00  0.00     0.063 C 
BRANCH  25  26
HETATM   26  C20 UNL     1      -6.579 -13.638  15.733  1.00  0.00     0.153 C 
HETATM   27  S1  UNL     1      -6.887 -12.937  17.412  1.00  0.00    -0.054 SA
HETATM   28  C21 UNL     1      -8.172 -14.081  17.877  1.00  0.00     0.287 C 
HETATM   29  O3  UNL     1      -8.804 -14.076  18.938  1.00  0.00    -0.260 OA
HETATM   30  N1  UNL     1      -8.298 -14.964  16.788  1.00  0.00    -0.287 N 
HETATM   31  C22 UNL     1      -7.193 -14.992  15.933  1.00  0.00     0.239 C 
ATOM     32  H1  UNL     1      -9.128 -15.538  16.636  1.00  0.00     0.172 HD
HETATM   33  O4  UNL     1      -6.694 -16.010  15.344  1.00  0.00    -0.272 OA
ENDBRANCH  25  26
ENDBRANCH  22  25
ENDBRANCH  18  19
ENDBRANCH   1  18
TORSDOF 6
ENDMDL
