MODEL 1
REMARK VINA RESULT: -8.784719565      0.000      0.000
REMARK  6 active torsions:
REMARK  status: ('A' for Active; 'I' for Inactive)
REMARK    1  A    between atoms: C9_9  and  O1_10 
REMARK    2  A    between atoms: C12_14  and  C14_16 
REMARK    3  A    between atoms: C14_16  and  O2_17 
REMARK    4  A    between atoms: O2_17  and  C15_18 
REMARK    5  A    between atoms: C18_21  and  C19_22 
REMARK    6  A    between atoms: C19_22  and  C20_23 
ROOT
HETATM    1  C14 UNL     1      -9.012  -7.212  17.367  1.00  0.00     0.213 C 
ENDROOT
BRANCH   1   2
HETATM    2  C12 UNL     1      -8.729  -7.731  18.764  1.00  0.00     0.086 C 
HETATM    3  C11 UNL     1      -9.853  -8.631  19.252  1.00  0.00     0.045 C 
HETATM    4  C10 UNL     1      -9.610  -8.864  20.728  1.00  0.00     0.045 C 
HETATM    5  C6  UNL     1      -8.224  -9.415  20.884  1.00  0.00    -0.015 A 
HETATM    6  C5  UNL     1      -7.268  -9.239  19.905  1.00  0.00     0.083 A 
HETATM    7  C7  UNL     1      -7.966 -10.103  22.060  1.00  0.00    -0.019 A 
HETATM    8  C3  UNL     1      -6.020  -9.776  20.123  1.00  0.00    -0.019 A 
HETATM    9  O5  UNL     1      -7.563  -8.534  18.722  1.00  0.00    -0.337 OA
HETATM   10  C2  UNL     1      -5.707 -10.469  21.272  1.00  0.00    -0.020 A 
HETATM   11  C4  UNL     1      -4.955  -9.611  19.092  1.00  0.00     0.052 C 
HETATM   12  C1  UNL     1      -4.333 -11.042  21.479  1.00  0.00     0.052 C 
HETATM   13  C9  UNL     1      -6.696 -10.618  22.221  1.00  0.00     0.078 A 
HETATM   14  C8  UNL     1      -9.034 -10.274  23.105  1.00  0.00     0.052 C 
HETATM   15  C13 UNL     1      -8.612  -6.569  19.698  1.00  0.00     0.049 C 
BRANCH  13  16
HETATM   16  O1  UNL     1      -6.427 -11.313  23.404  1.00  0.00    -0.360 OA
ATOM     17  H1  UNL     1      -6.742 -10.975  24.234  1.00  0.00     0.217 HD
ENDBRANCH  13  16
ENDBRANCH   1   2
BRANCH   1  18
HETATM   18  O2  UNL     1      -8.001  -7.714  16.520  1.00  0.00    -0.348 OA
BRANCH  18  19
HETATM   19  C15 UNL     1      -7.931  -9.048  16.143  1.00  0.00     0.068 A 
HETATM   20  C16 UNL     1      -9.056  -9.753  15.778  1.00  0.00     0.037 A 
HETATM   21  C17 UNL     1      -8.889 -11.074  15.418  1.00  0.00     0.010 A 
HETATM   22  C18 UNL     1      -7.645 -11.668  15.422  1.00  0.00    -0.056 A 
HETATM   23  C23 UNL     1      -6.513 -10.965  15.786  1.00  0.00     0.010 A 
HETATM   24  C24 UNL     1      -6.691  -9.645  16.145  1.00  0.00     0.037 A 
BRANCH  22  25
HETATM   25  C19 UNL     1      -7.526 -13.076  15.030  1.00  0.00     0.063 C 
BRANCH  25  26
HETATM   26  C20 UNL     1      -8.491 -13.926  15.802  1.00  0.00     0.153 C 
HETATM   27  S1  UNL     1      -8.052 -15.680  15.437  1.00  0.00    -0.054 SA
HETATM   28  C21 UNL     1      -6.996 -15.924  16.852  1.00  0.00     0.287 C 
HETATM   29  O3  UNL     1      -6.369 -16.952  17.126  1.00  0.00    -0.260 OA
HETATM   30  N1  UNL     1      -7.039 -14.710  17.564  1.00  0.00    -0.287 N 
HETATM   31  C22 UNL     1      -8.134 -13.898  17.260  1.00  0.00     0.239 C 
ATOM     32  H1  UNL     1      -6.329 -14.446  18.247  1.00  0.00     0.172 HD
HETATM   33  O4  UNL     1      -8.814 -13.177  18.067  1.00  0.00    -0.272 OA
ENDBRANCH  25  26
ENDBRANCH  22  25
ENDBRANCH  18  19
ENDBRANCH   1  18
TORSDOF 6
ENDMDL
