MODEL 2
REMARK VINA RESULT: -8.411099668      1.258      1.786
REMARK  6 active torsions:
REMARK  status: ('A' for Active; 'I' for Inactive)
REMARK    1  A    between atoms: C9_9  and  O1_10 
REMARK    2  A    between atoms: C12_14  and  C14_16 
REMARK    3  A    between atoms: C14_16  and  O2_17 
REMARK    4  A    between atoms: O2_17  and  C15_18 
REMARK    5  A    between atoms: C18_21  and  C19_22 
REMARK    6  A    between atoms: C19_22  and  C20_23 
ROOT
HETATM    1  C14 UNL     1      -8.496  -7.053  17.238  1.00  0.00     0.213 C 
ENDROOT
BRANCH   1   2
HETATM    2  C12 UNL     1      -8.370  -7.606  18.645  1.00  0.00     0.086 C 
HETATM    3  C11 UNL     1      -9.574  -8.460  19.008  1.00  0.00     0.045 C 
HETATM    4  C10 UNL     1      -9.483  -8.725  20.496  1.00  0.00     0.045 C 
HETATM    5  C6  UNL     1      -8.145  -9.342  20.771  1.00  0.00    -0.015 A 
HETATM    6  C5  UNL     1      -7.092  -9.196  19.890  1.00  0.00     0.083 A 
HETATM    7  C7  UNL     1      -8.030 -10.059  21.952  1.00  0.00    -0.019 A 
HETATM    8  C3  UNL     1      -5.896  -9.793  20.215  1.00  0.00    -0.019 A 
HETATM    9  O5  UNL     1      -7.241  -8.460  18.698  1.00  0.00    -0.337 OA
HETATM   10  C2  UNL     1      -5.725 -10.516  21.374  1.00  0.00    -0.020 A 
HETATM   11  C4  UNL     1      -4.731  -9.662  19.292  1.00  0.00     0.052 C 
HETATM   12  C1  UNL     1      -4.403 -11.155  21.699  1.00  0.00     0.052 C 
HETATM   13  C9  UNL     1      -6.805 -10.633  22.223  1.00  0.00     0.078 A 
HETATM   14  C8  UNL     1      -9.199 -10.196  22.888  1.00  0.00     0.052 C 
HETATM   15  C13 UNL     1      -8.291  -6.464  19.608  1.00  0.00     0.049 C 
BRANCH  13  16
HETATM   16  O1  UNL     1      -6.682 -11.358  23.413  1.00  0.00    -0.360 OA
ATOM     17  H1  UNL     1      -7.424 -11.846  23.749  1.00  0.00     0.217 HD
ENDBRANCH  13  16
ENDBRANCH   1   2
BRANCH   1  18
HETATM   18  O2  UNL     1      -7.446  -7.607  16.475  1.00  0.00    -0.348 OA
BRANCH  18  19
HETATM   19  C15 UNL     1      -7.439  -8.931  16.058  1.00  0.00     0.068 A 
HETATM   20  C16 UNL     1      -8.555  -9.519  15.508  1.00  0.00     0.037 A 
HETATM   21  C17 UNL     1      -8.454 -10.839  15.122  1.00  0.00     0.010 A 
HETATM   22  C18 UNL     1      -7.281 -11.547  15.280  1.00  0.00    -0.056 A 
HETATM   23  C23 UNL     1      -6.158 -10.961  15.831  1.00  0.00     0.010 A 
HETATM   24  C24 UNL     1      -6.269  -9.641  16.214  1.00  0.00     0.037 A 
BRANCH  22  25
HETATM   25  C19 UNL     1      -7.229 -12.948  14.853  1.00  0.00     0.063 C 
BRANCH  25  26
HETATM   26  C20 UNL     1      -7.588 -13.862  15.987  1.00  0.00     0.153 C 
HETATM   27  S1  UNL     1      -9.146 -13.199  16.721  1.00  0.00    -0.054 SA
HETATM   28  C21 UNL     1     -10.264 -14.226  15.787  1.00  0.00     0.287 C 
HETATM   29  O3  UNL     1     -11.497 -14.198  15.842  1.00  0.00    -0.260 OA
HETATM   30  N1  UNL     1      -9.442 -15.050  14.995  1.00  0.00    -0.287 N 
HETATM   31  C22 UNL     1      -8.123 -15.155  15.443  1.00  0.00     0.239 C 
ATOM     32  H1  UNL     1      -9.782 -15.531  14.162  1.00  0.00     0.172 HD
HETATM   33  O4  UNL     1      -7.380 -16.195  15.430  1.00  0.00    -0.272 OA
ENDBRANCH  25  26
ENDBRANCH  22  25
ENDBRANCH  18  19
ENDBRANCH   1  18
TORSDOF 6
ENDMDL
