MODEL 1
REMARK VINA RESULT: -12.650911104      0.000      0.000
REMARK  12 active torsions:
REMARK  status: ('A' for Active; 'I' for Inactive)
REMARK    1  A    between atoms: O1_2  and  C2_3 
REMARK    2  A    between atoms: C2_3  and  C3_4 
REMARK       I    between atoms: N1_8  and  C7_9 
REMARK    3  A    between atoms: C7_9  and  C8_11 
REMARK    4  A    between atoms: C13_16  and  C14_17 
REMARK       I    between atoms: C14_17  and  N2_19 
REMARK    5  A    between atoms: N2_19  and  C15_21 
REMARK    6  A    between atoms: C15_21  and  C16_22 
REMARK    7  A    between atoms: C15_21  and  C23_31 
REMARK    8  A    between atoms: C16_22  and  C17_23 
REMARK    9  A    between atoms: C23_31  and  O4_32 
REMARK   10  A    between atoms: C23_31  and  C24_34 
REMARK   11  A    between atoms: C26_36  and  O5_37 
REMARK   12  A    between atoms: O5_37  and  C27_38 
ROOT
HETATM    1  C15 UNL     1      22.390  10.770  23.486  1.00  0.00     0.119 C 
ENDROOT
BRANCH   1   2
HETATM    2  N2  UNL     1      23.516  11.694  23.752  1.00  0.00    -0.349 N 
HETATM    3  C14 UNL     1      23.377  13.067  23.834  1.00  0.00     0.252 C 
HETATM    4  O3  UNL     1      22.241  13.584  23.679  1.00  0.00    -0.268 OA
ATOM      5  H2  UNL     1      24.447  11.296  23.881  1.00  0.00     0.163 HD
BRANCH   3   6
HETATM    6  C13 UNL     1      24.524  13.961  24.100  1.00  0.00     0.033 A 
HETATM    7  C12 UNL     1      24.342  15.120  24.826  1.00  0.00     0.024 A 
HETATM    8  C10 UNL     1      25.387  15.975  25.087  1.00  0.00    -0.060 A 
HETATM    9  C9  UNL     1      26.636  15.623  24.587  1.00  0.00     0.024 A 
HETATM   10  C11 UNL     1      25.198  17.238  25.875  1.00  0.00     0.048 C 
HETATM   11  C8  UNL     1      26.890  14.487  23.860  1.00  0.00     0.033 A 
HETATM   12  C34 UNL     1      25.760  13.669  23.641  1.00  0.00     0.034 A 
BRANCH  11  13
HETATM   13  C7  UNL     1      28.159  14.062  23.351  1.00  0.00     0.254 C 
HETATM   14  N1  UNL     1      28.426  13.594  22.033  1.00  0.00    -0.341 N 
HETATM   15  C3  UNL     1      29.765  13.072  21.641  1.00  0.00     0.111 C 
HETATM   16  C6  UNL     1      27.581  13.462  20.880  1.00  0.00     0.127 C 
HETATM   17  C4  UNL     1      29.894  13.589  20.237  1.00  0.00     0.029 C 
HETATM   18  C5  UNL     1      28.501  13.238  19.696  1.00  0.00     0.022 C 
HETATM   19  O2  UNL     1      29.164  14.103  24.156  1.00  0.00    -0.267 OA
BRANCH  15  20
HETATM   20  C2  UNL     1      29.739  11.569  21.604  1.00  0.00     0.192 C 
BRANCH  20  21
HETATM   21  O1  UNL     1      29.592  10.986  22.830  1.00  0.00    -0.394 OA
HETATM   22  C1  UNL     1      29.600   9.615  22.822  1.00  0.00     0.201 C 
ENDBRANCH  20  21
ENDBRANCH  15  20
ENDBRANCH  11  13
ENDBRANCH   3   6
ENDBRANCH   1   2
BRANCH   1  23
HETATM   23  C16 UNL     1      23.028   9.739  22.574  1.00  0.00     0.066 C 
BRANCH  23  24
HETATM   24  C17 UNL     1      23.536  10.368  21.332  1.00  0.00    -0.050 A 
HETATM   25  C18 UNL     1      24.821  10.086  20.944  1.00  0.00     0.049 A 
HETATM   26  C19 UNL     1      25.303  10.677  19.774  1.00  0.00     0.119 A 
HETATM   27  F1  UNL     1      26.578  10.417  19.360  1.00  0.00    -0.206 F 
HETATM   28  C20 UNL     1      24.521  11.520  19.024  1.00  0.00     0.084 A 
HETATM   29  C21 UNL     1      23.223  11.780  19.451  1.00  0.00     0.119 A 
HETATM   30  F2  UNL     1      22.440  12.609  18.721  1.00  0.00    -0.206 F 
HETATM   31  C22 UNL     1      22.715  11.213  20.602  1.00  0.00     0.049 A 
ENDBRANCH  23  24
ENDBRANCH   1  23
BRANCH   1  32
HETATM   32  C23 UNL     1      22.049  10.200  24.818  1.00  0.00     0.171 C 
BRANCH  32  33
HETATM   33  O4  UNL     1      21.921   8.806  24.808  1.00  0.00    -0.391 OA
ATOM     34  H4  UNL     1      22.233   8.395  25.605  1.00  0.00     0.210 HD
ENDBRANCH  32  33
BRANCH  32  35
HETATM   35  C24 UNL     1      20.993  10.818  25.610  1.00  0.00     0.219 C 
HETATM   36  C25 UNL     1      19.635  10.862  24.953  1.00  0.00     0.070 C 
HETATM   37  C26 UNL     1      18.838  11.598  26.049  1.00  0.00     0.156 C 
HETATM   38  C33 UNL     1      19.608  11.259  27.315  1.00  0.00     0.265 C 
HETATM   39  N3  UNL     1      20.675  10.319  26.897  1.00  0.00    -0.066 N 
ATOM     40  H32 UNL     1      20.425   9.331  26.932  1.00  0.00     0.277 HD
ATOM     41  H31 UNL     1      21.461  10.237  27.540  1.00  0.00     0.277 HD
BRANCH  37  42
HETATM   42  O5  UNL     1      17.527  11.178  26.094  1.00  0.00    -0.344 OA
BRANCH  42  43
HETATM   43  C27 UNL     1      16.851  10.636  25.047  1.00  0.00     0.069 A 
HETATM   44  C28 UNL     1      16.455   9.320  24.944  1.00  0.00     0.037 A 
HETATM   45  C29 UNL     1      15.763   8.795  23.861  1.00  0.00     0.003 A 
HETATM   46  C30 UNL     1      15.454   9.640  22.820  1.00  0.00     0.000 A 
HETATM   47  C31 UNL     1      15.835  10.965  22.889  1.00  0.00     0.003 A 
HETATM   48  C32 UNL     1      16.513  11.469  23.958  1.00  0.00     0.037 A 
ENDBRANCH  42  43
ENDBRANCH  37  42
ENDBRANCH  32  35
ENDBRANCH   1  32
TORSDOF 12
ENDMDL
