MODEL 15
REMARK VINA RESULT: -10.261282926      0.945      1.931
REMARK  12 active torsions:
REMARK  status: ('A' for Active; 'I' for Inactive)
REMARK    1  A    between atoms: O1_2  and  C2_3 
REMARK    2  A    between atoms: C2_3  and  C3_4 
REMARK       I    between atoms: N1_8  and  C7_9 
REMARK    3  A    between atoms: C7_9  and  C8_11 
REMARK    4  A    between atoms: C13_16  and  C14_17 
REMARK       I    between atoms: C14_17  and  N2_19 
REMARK    5  A    between atoms: N2_19  and  C15_21 
REMARK    6  A    between atoms: C15_21  and  C16_22 
REMARK    7  A    between atoms: C15_21  and  C23_31 
REMARK    8  A    between atoms: C16_22  and  C17_23 
REMARK    9  A    between atoms: C23_31  and  O4_32 
REMARK   10  A    between atoms: C23_31  and  C24_34 
REMARK   11  A    between atoms: C26_36  and  O5_37 
REMARK   12  A    between atoms: O5_37  and  C27_38 
ROOT
HETATM    1  C15 UNL     1      22.157  10.752  23.382  1.00  0.00     0.119 C 
ENDROOT
BRANCH   1   2
HETATM    2  N2  UNL     1      23.361  11.605  23.504  1.00  0.00    -0.349 N 
HETATM    3  C14 UNL     1      23.315  12.982  23.613  1.00  0.00     0.252 C 
HETATM    4  O3  UNL     1      22.202  13.566  23.611  1.00  0.00    -0.268 OA
ATOM      5  H2  UNL     1      24.275  11.151  23.507  1.00  0.00     0.163 HD
BRANCH   3   6
HETATM    6  C13 UNL     1      24.539  13.803  23.732  1.00  0.00     0.033 A 
HETATM    7  C12 UNL     1      24.632  14.765  24.718  1.00  0.00     0.024 A 
HETATM    8  C10 UNL     1      25.753  15.549  24.853  1.00  0.00    -0.060 A 
HETATM    9  C9  UNL     1      26.791  15.333  23.953  1.00  0.00     0.024 A 
HETATM   10  C11 UNL     1      25.862  16.597  25.922  1.00  0.00     0.048 C 
HETATM   11  C8  UNL     1      26.768  14.395  22.951  1.00  0.00     0.033 A 
HETATM   12  C34 UNL     1      25.579  13.636  22.887  1.00  0.00     0.034 A 
BRANCH  11  13
HETATM   13  C7  UNL     1      27.819  14.110  22.021  1.00  0.00     0.254 C 
HETATM   14  N1  UNL     1      28.616  12.930  21.984  1.00  0.00    -0.341 N 
HETATM   15  C3  UNL     1      29.758  12.782  21.040  1.00  0.00     0.111 C 
HETATM   16  C6  UNL     1      28.580  11.732  22.774  1.00  0.00     0.127 C 
HETATM   17  C4  UNL     1      29.656  11.333  20.662  1.00  0.00     0.029 C 
HETATM   18  C5  UNL     1      29.435  10.713  22.048  1.00  0.00     0.022 C 
HETATM   19  O2  UNL     1      28.077  15.001  21.126  1.00  0.00    -0.267 OA
BRANCH  15  20
HETATM   20  C2  UNL     1      31.056  13.004  21.767  1.00  0.00     0.192 C 
BRANCH  20  21
HETATM   21  O1  UNL     1      31.087  14.147  22.513  1.00  0.00    -0.394 OA
HETATM   22  C1  UNL     1      31.530  15.260  21.848  1.00  0.00     0.201 C 
ENDBRANCH  20  21
ENDBRANCH  15  20
ENDBRANCH  11  13
ENDBRANCH   3   6
ENDBRANCH   1   2
BRANCH   1  23
HETATM   23  C16 UNL     1      22.614   9.688  22.401  1.00  0.00     0.066 C 
BRANCH  23  24
HETATM   24  C17 UNL     1      23.338  10.293  21.259  1.00  0.00    -0.050 A 
HETATM   25  C18 UNL     1      22.649  11.149  20.437  1.00  0.00     0.049 A 
HETATM   26  C19 UNL     1      23.328  11.722  19.360  1.00  0.00     0.119 A 
HETATM   27  F1  UNL     1      22.672  12.577  18.523  1.00  0.00    -0.206 F 
HETATM   28  C20 UNL     1      24.651  11.442  19.118  1.00  0.00     0.084 A 
HETATM   29  C21 UNL     1      25.314  10.570  19.974  1.00  0.00     0.119 A 
HETATM   30  F2  UNL     1      26.619  10.285  19.749  1.00  0.00    -0.206 F 
HETATM   31  C22 UNL     1      24.674   9.987  21.048  1.00  0.00     0.049 A 
ENDBRANCH  23  24
ENDBRANCH   1  23
BRANCH   1  32
HETATM   32  C23 UNL     1      21.949  10.197  24.747  1.00  0.00     0.171 C 
BRANCH  32  33
HETATM   33  O4  UNL     1      21.892   8.799  24.774  1.00  0.00    -0.391 OA
ATOM     34  H4  UNL     1      21.995   8.436  25.646  1.00  0.00     0.210 HD
ENDBRANCH  32  33
BRANCH  32  35
HETATM   35  C24 UNL     1      20.926  10.780  25.607  1.00  0.00     0.219 C 
HETATM   36  C25 UNL     1      19.571  10.959  24.967  1.00  0.00     0.070 C 
HETATM   37  C26 UNL     1      18.813  11.614  26.141  1.00  0.00     0.156 C 
HETATM   38  C33 UNL     1      19.568  11.107  27.359  1.00  0.00     0.265 C 
HETATM   39  N3  UNL     1      20.586  10.165  26.837  1.00  0.00    -0.066 N 
ATOM     40  H32 UNL     1      20.287   9.192  26.770  1.00  0.00     0.277 HD
ATOM     41  H31 UNL     1      21.368   9.977  27.463  1.00  0.00     0.277 HD
BRANCH  37  42
HETATM   42  O5  UNL     1      17.484  11.258  26.151  1.00  0.00    -0.344 OA
BRANCH  42  43
HETATM   43  C27 UNL     1      16.824  10.699  25.102  1.00  0.00     0.069 A 
HETATM   44  C28 UNL     1      16.460   9.375  24.997  1.00  0.00     0.037 A 
HETATM   45  C29 UNL     1      15.784   8.833  23.912  1.00  0.00     0.003 A 
HETATM   46  C30 UNL     1      15.456   9.671  22.871  1.00  0.00     0.000 A 
HETATM   47  C31 UNL     1      15.805  11.004  22.941  1.00  0.00     0.003 A 
HETATM   48  C32 UNL     1      16.468  11.525  24.012  1.00  0.00     0.037 A 
ENDBRANCH  42  43
ENDBRANCH  37  42
ENDBRANCH  32  35
ENDBRANCH   1  32
TORSDOF 12
ENDMDL
