MODEL 19
REMARK VINA RESULT: -9.812413330      2.847      9.659
REMARK  12 active torsions:
REMARK  status: ('A' for Active; 'I' for Inactive)
REMARK    1  A    between atoms: O1_2  and  C2_3 
REMARK    2  A    between atoms: C2_3  and  C3_4 
REMARK       I    between atoms: N1_8  and  C7_9 
REMARK    3  A    between atoms: C7_9  and  C8_11 
REMARK    4  A    between atoms: C13_16  and  C14_17 
REMARK       I    between atoms: C14_17  and  N2_19 
REMARK    5  A    between atoms: N2_19  and  C15_21 
REMARK    6  A    between atoms: C15_21  and  C16_22 
REMARK    7  A    between atoms: C15_21  and  C23_31 
REMARK    8  A    between atoms: C16_22  and  C17_23 
REMARK    9  A    between atoms: C23_31  and  O4_32 
REMARK   10  A    between atoms: C23_31  and  C24_34 
REMARK   11  A    between atoms: C26_36  and  O5_37 
REMARK   12  A    between atoms: O5_37  and  C27_38 
ROOT
HETATM    1  C15 UNL     1      26.621  14.818  24.569  1.00  0.00     0.119 C 
ENDROOT
BRANCH   1   2
HETATM    2  N2  UNL     1      25.610  13.777  24.275  1.00  0.00    -0.349 N 
HETATM    3  C14 UNL     1      25.093  13.546  23.014  1.00  0.00     0.252 C 
HETATM    4  O3  UNL     1      25.487  14.246  22.047  1.00  0.00    -0.268 OA
ATOM      5  H2  UNL     1      25.276  13.197  25.046  1.00  0.00     0.163 HD
BRANCH   3   6
HETATM    6  C13 UNL     1      24.083  12.497  22.757  1.00  0.00     0.033 A 
HETATM    7  C12 UNL     1      23.961  11.951  21.496  1.00  0.00     0.024 A 
HETATM    8  C10 UNL     1      23.030  10.978  21.221  1.00  0.00    -0.060 A 
HETATM    9  C9  UNL     1      22.213  10.567  22.270  1.00  0.00     0.024 A 
HETATM   10  C11 UNL     1      22.890  10.379  19.853  1.00  0.00     0.048 C 
HETATM   11  C8  UNL     1      22.279  11.065  23.547  1.00  0.00     0.033 A 
HETATM   12  C34 UNL     1      23.265  12.059  23.737  1.00  0.00     0.034 A 
BRANCH  11  13
HETATM   13  C7  UNL     1      21.488  10.655  24.668  1.00  0.00     0.254 C 
HETATM   14  N1  UNL     1      20.240  11.213  25.069  1.00  0.00    -0.341 N 
HETATM   15  C3  UNL     1      19.552  10.782  26.317  1.00  0.00     0.111 C 
HETATM   16  C6  UNL     1      19.429  12.245  24.489  1.00  0.00     0.127 C 
HETATM   17  C4  UNL     1      18.111  10.809  25.896  1.00  0.00     0.029 C 
HETATM   18  C5  UNL     1      18.074  12.157  25.163  1.00  0.00     0.022 C 
HETATM   19  O2  UNL     1      21.938   9.687  25.390  1.00  0.00    -0.267 OA
BRANCH  15  20
HETATM   20  C2  UNL     1      19.761  11.807  27.397  1.00  0.00     0.192 C 
BRANCH  20  21
HETATM   21  O1  UNL     1      18.740  11.878  28.301  1.00  0.00    -0.394 OA
HETATM   22  C1  UNL     1      19.087  12.379  29.528  1.00  0.00     0.201 C 
ENDBRANCH  20  21
ENDBRANCH  15  20
ENDBRANCH  11  13
ENDBRANCH   3   6
ENDBRANCH   1   2
BRANCH   1  23
HETATM   23  C16 UNL     1      26.155  15.349  25.912  1.00  0.00     0.066 C 
BRANCH  23  24
HETATM   24  C17 UNL     1      26.053  16.827  25.894  1.00  0.00    -0.050 A 
HETATM   25  C18 UNL     1      24.861  17.388  25.509  1.00  0.00     0.049 A 
HETATM   26  C19 UNL     1      24.761  18.780  25.491  1.00  0.00     0.119 A 
HETATM   27  F1  UNL     1      23.589  19.370  25.113  1.00  0.00    -0.206 F 
HETATM   28  C20 UNL     1      25.821  19.578  25.846  1.00  0.00     0.084 A 
HETATM   29  C21 UNL     1      27.011  18.972  26.230  1.00  0.00     0.119 A 
HETATM   30  F2  UNL     1      28.065  19.746  26.583  1.00  0.00    -0.206 F 
HETATM   31  C22 UNL     1      27.145  17.599  26.259  1.00  0.00     0.049 A 
ENDBRANCH  23  24
ENDBRANCH   1  23
BRANCH   1  32
HETATM   32  C23 UNL     1      27.906  14.075  24.680  1.00  0.00     0.171 C 
BRANCH  32  33
HETATM   33  O4  UNL     1      28.695  14.491  25.758  1.00  0.00    -0.391 OA
ATOM     34  H4  UNL     1      28.825  13.814  26.411  1.00  0.00     0.210 HD
ENDBRANCH  32  33
BRANCH  32  35
HETATM   35  C24 UNL     1      28.716  13.868  23.486  1.00  0.00     0.219 C 
HETATM   36  C25 UNL     1      28.636  12.487  22.883  1.00  0.00     0.070 C 
HETATM   37  C26 UNL     1      29.626  12.656  21.712  1.00  0.00     0.156 C 
HETATM   38  C33 UNL     1      29.575  14.150  21.436  1.00  0.00     0.265 C 
HETATM   39  N3  UNL     1      28.539  14.691  22.346  1.00  0.00    -0.066 N 
ATOM     40  H32 UNL     1      27.592  14.714  21.967  1.00  0.00     0.277 HD
ATOM     41  H31 UNL     1      28.592  15.694  22.520  1.00  0.00     0.277 HD
BRANCH  37  42
HETATM   42  O5  UNL     1      29.258  11.899  20.622  1.00  0.00    -0.344 OA
BRANCH  42  43
HETATM   43  C27 UNL     1      28.128  12.091  19.891  1.00  0.00     0.069 A 
HETATM   44  C28 UNL     1      27.641  13.310  19.472  1.00  0.00     0.037 A 
HETATM   45  C29 UNL     1      26.483  13.474  18.725  1.00  0.00     0.003 A 
HETATM   46  C30 UNL     1      25.772  12.348  18.380  1.00  0.00     0.000 A 
HETATM   47  C31 UNL     1      26.229  11.110  18.782  1.00  0.00     0.003 A 
HETATM   48  C32 UNL     1      27.368  10.961  19.515  1.00  0.00     0.037 A 
ENDBRANCH  42  43
ENDBRANCH  37  42
ENDBRANCH  32  35
ENDBRANCH   1  32
TORSDOF 12
ENDMDL
