MODEL 5
REMARK VINA RESULT: -11.382663653      1.300      1.811
REMARK  12 active torsions:
REMARK  status: ('A' for Active; 'I' for Inactive)
REMARK    1  A    between atoms: O1_2  and  C2_3 
REMARK    2  A    between atoms: C2_3  and  C3_4 
REMARK       I    between atoms: N1_8  and  C7_9 
REMARK    3  A    between atoms: C7_9  and  C8_11 
REMARK    4  A    between atoms: C13_16  and  C14_17 
REMARK       I    between atoms: C14_17  and  N2_19 
REMARK    5  A    between atoms: N2_19  and  C15_21 
REMARK    6  A    between atoms: C15_21  and  C16_22 
REMARK    7  A    between atoms: C15_21  and  C23_31 
REMARK    8  A    between atoms: C16_22  and  C17_23 
REMARK    9  A    between atoms: C23_31  and  O4_32 
REMARK   10  A    between atoms: C23_31  and  C24_34 
REMARK   11  A    between atoms: C26_36  and  O5_37 
REMARK   12  A    between atoms: O5_37  and  C27_38 
ROOT
HETATM    1  C15 UNL     1      22.281  10.734  23.290  1.00  0.00     0.119 C 
ENDROOT
BRANCH   1   2
HETATM    2  N2  UNL     1      23.406  11.640  23.619  1.00  0.00    -0.349 N 
HETATM    3  C14 UNL     1      23.281  13.014  23.703  1.00  0.00     0.252 C 
HETATM    4  O3  UNL     1      22.162  13.548  23.494  1.00  0.00    -0.268 OA
ATOM      5  H2  UNL     1      24.323  11.227  23.792  1.00  0.00     0.163 HD
BRANCH   3   6
HETATM    6  C13 UNL     1      24.427  13.889  24.033  1.00  0.00     0.033 A 
HETATM    7  C12 UNL     1      24.233  15.021  24.797  1.00  0.00     0.024 A 
HETATM    8  C10 UNL     1      25.275  15.859  25.118  1.00  0.00    -0.060 A 
HETATM    9  C9  UNL     1      26.535  15.517  24.637  1.00  0.00     0.024 A 
HETATM   10  C11 UNL     1      25.072  17.092  25.948  1.00  0.00     0.048 C 
HETATM   11  C8  UNL     1      26.800  14.409  23.873  1.00  0.00     0.033 A 
HETATM   12  C34 UNL     1      25.672  13.606  23.594  1.00  0.00     0.034 A 
BRANCH  11  13
HETATM   13  C7  UNL     1      28.080  13.994  23.382  1.00  0.00     0.254 C 
HETATM   14  N1  UNL     1      28.370  13.534  22.065  1.00  0.00    -0.341 N 
HETATM   15  C3  UNL     1      29.718  13.024  21.690  1.00  0.00     0.111 C 
HETATM   16  C6  UNL     1      27.543  13.402  20.900  1.00  0.00     0.127 C 
HETATM   17  C4  UNL     1      29.864  13.548  20.291  1.00  0.00     0.029 C 
HETATM   18  C5  UNL     1      28.481  13.190  19.729  1.00  0.00     0.022 C 
HETATM   19  O2  UNL     1      29.073  14.040  24.202  1.00  0.00    -0.267 OA
BRANCH  15  20
HETATM   20  C2  UNL     1      29.703  11.521  21.647  1.00  0.00     0.192 C 
BRANCH  20  21
HETATM   21  O1  UNL     1      29.583  10.930  22.872  1.00  0.00    -0.394 OA
HETATM   22  C1  UNL     1      29.653   9.562  22.863  1.00  0.00     0.201 C 
ENDBRANCH  20  21
ENDBRANCH  15  20
ENDBRANCH  11  13
ENDBRANCH   3   6
ENDBRANCH   1   2
BRANCH   1  23
HETATM   23  C16 UNL     1      22.942   9.720  22.375  1.00  0.00     0.066 C 
BRANCH  23  24
HETATM   24  C17 UNL     1      23.491  10.374  21.165  1.00  0.00    -0.050 A 
HETATM   25  C18 UNL     1      24.781  10.081  20.801  1.00  0.00     0.049 A 
HETATM   26  C19 UNL     1      25.302  10.696  19.661  1.00  0.00     0.119 A 
HETATM   27  F1  UNL     1      26.583  10.426  19.272  1.00  0.00    -0.206 F 
HETATM   28  C20 UNL     1      24.554  11.573  18.915  1.00  0.00     0.084 A 
HETATM   29  C21 UNL     1      23.250  11.843  19.316  1.00  0.00     0.119 A 
HETATM   30  F2  UNL     1      22.499  12.705  18.591  1.00  0.00    -0.206 F 
HETATM   31  C22 UNL     1      22.703  11.253  20.438  1.00  0.00     0.049 A 
ENDBRANCH  23  24
ENDBRANCH   1  23
BRANCH   1  32
HETATM   32  C23 UNL     1      21.889  10.133  24.595  1.00  0.00     0.171 C 
BRANCH  32  33
HETATM   33  O4  UNL     1      21.467   8.803  24.488  1.00  0.00    -0.391 OA
ATOM     34  H4  UNL     1      20.603   8.653  24.851  1.00  0.00     0.210 HD
ENDBRANCH  32  33
BRANCH  32  35
HETATM   35  C24 UNL     1      21.026  10.886  25.497  1.00  0.00     0.219 C 
HETATM   36  C25 UNL     1      19.669  11.246  24.942  1.00  0.00     0.070 C 
HETATM   37  C26 UNL     1      19.101  12.040  26.136  1.00  0.00     0.156 C 
HETATM   38  C33 UNL     1      19.858  11.462  27.320  1.00  0.00     0.265 C 
HETATM   39  N3  UNL     1      20.688  10.364  26.769  1.00  0.00    -0.066 N 
ATOM     40  H32 UNL     1      20.246   9.444  26.761  1.00  0.00     0.277 HD
ATOM     41  H31 UNL     1      21.477  10.080  27.349  1.00  0.00     0.277 HD
BRANCH  37  42
HETATM   42  O5  UNL     1      17.738  11.885  26.248  1.00  0.00    -0.344 OA
BRANCH  42  43
HETATM   43  C27 UNL     1      16.834  12.899  26.175  1.00  0.00     0.069 A 
HETATM   44  C28 UNL     1      15.925  13.091  25.158  1.00  0.00     0.037 A 
HETATM   45  C29 UNL     1      15.013  14.136  25.112  1.00  0.00     0.003 A 
HETATM   46  C30 UNL     1      15.016  15.042  26.147  1.00  0.00     0.000 A 
HETATM   47  C31 UNL     1      15.914  14.882  27.183  1.00  0.00     0.003 A 
HETATM   48  C32 UNL     1      16.804  13.851  27.218  1.00  0.00     0.037 A 
ENDBRANCH  42  43
ENDBRANCH  37  42
ENDBRANCH  32  35
ENDBRANCH   1  32
TORSDOF 12
ENDMDL
