MODEL 14
REMARK VINA RESULT: -10.273574160      2.665      4.805
REMARK  12 active torsions:
REMARK  status: ('A' for Active; 'I' for Inactive)
REMARK    1  A    between atoms: O1_2  and  C2_3 
REMARK    2  A    between atoms: C2_3  and  C3_4 
REMARK       I    between atoms: N1_8  and  C7_9 
REMARK    3  A    between atoms: C7_9  and  C8_11 
REMARK    4  A    between atoms: C13_16  and  C14_17 
REMARK       I    between atoms: C14_17  and  N2_19 
REMARK    5  A    between atoms: N2_19  and  C15_21 
REMARK    6  A    between atoms: C15_21  and  C16_22 
REMARK    7  A    between atoms: C15_21  and  C23_31 
REMARK    8  A    between atoms: C16_22  and  C17_23 
REMARK    9  A    between atoms: C23_31  and  O4_32 
REMARK   10  A    between atoms: C23_31  and  C24_34 
REMARK   11  A    between atoms: C26_36  and  O5_37 
REMARK   12  A    between atoms: O5_37  and  C27_38 
ROOT
HETATM    1  C15 UNL     1      22.584  10.977  23.261  1.00  0.00     0.119 C 
ENDROOT
BRANCH   1   2
HETATM    2  N2  UNL     1      23.831  11.720  23.557  1.00  0.00    -0.349 N 
HETATM    3  C14 UNL     1      23.923  13.099  23.535  1.00  0.00     0.252 C 
HETATM    4  O3  UNL     1      22.907  13.782  23.249  1.00  0.00    -0.268 OA
ATOM      5  H2  UNL     1      24.667  11.184  23.791  1.00  0.00     0.163 HD
BRANCH   3   6
HETATM    6  C13 UNL     1      25.186  13.808  23.835  1.00  0.00     0.033 A 
HETATM    7  C12 UNL     1      26.389  13.282  23.414  1.00  0.00     0.024 A 
HETATM    8  C10 UNL     1      27.582  13.913  23.681  1.00  0.00    -0.060 A 
HETATM    9  C9  UNL     1      27.523  15.106  24.395  1.00  0.00     0.024 A 
HETATM   10  C11 UNL     1      28.895  13.348  23.226  1.00  0.00     0.048 C 
HETATM   11  C8  UNL     1      26.363  15.686  24.843  1.00  0.00     0.033 A 
HETATM   12  C34 UNL     1      25.189  14.969  24.524  1.00  0.00     0.034 A 
BRANCH  11  13
HETATM   13  C7  UNL     1      26.244  16.925  25.552  1.00  0.00     0.254 C 
HETATM   14  N1  UNL     1      27.206  17.975  25.584  1.00  0.00    -0.341 N 
HETATM   15  C3  UNL     1      27.028  19.178  26.443  1.00  0.00     0.111 C 
HETATM   16  C6  UNL     1      28.471  18.126  24.924  1.00  0.00     0.127 C 
HETATM   17  C4  UNL     1      27.579  20.263  25.565  1.00  0.00     0.029 C 
HETATM   18  C5  UNL     1      28.864  19.582  25.075  1.00  0.00     0.022 C 
HETATM   19  O2  UNL     1      25.165  17.119  26.230  1.00  0.00    -0.267 OA
BRANCH  15  20
HETATM   20  C2  UNL     1      27.888  19.062  27.670  1.00  0.00     0.192 C 
BRANCH  20  21
HETATM   21  O1  UNL     1      27.336  19.615  28.791  1.00  0.00    -0.394 OA
HETATM   22  C1  UNL     1      27.598  20.948  28.967  1.00  0.00     0.201 C 
ENDBRANCH  20  21
ENDBRANCH  15  20
ENDBRANCH  11  13
ENDBRANCH   3   6
ENDBRANCH   1   2
BRANCH   1  23
HETATM   23  C16 UNL     1      23.073   9.890  22.321  1.00  0.00     0.066 C 
BRANCH  23  24
HETATM   24  C17 UNL     1      23.590  10.471  21.059  1.00  0.00    -0.050 A 
HETATM   25  C18 UNL     1      22.787  11.349  20.376  1.00  0.00     0.049 A 
HETATM   26  C19 UNL     1      23.271  11.898  19.186  1.00  0.00     0.119 A 
HETATM   27  F1  UNL     1      22.498  12.774  18.482  1.00  0.00    -0.206 F 
HETATM   28  C20 UNL     1      24.515  11.574  18.704  1.00  0.00     0.084 A 
HETATM   29  C21 UNL     1      25.298  10.681  19.426  1.00  0.00     0.119 A 
HETATM   30  F2  UNL     1      26.528  10.353  18.963  1.00  0.00    -0.206 F 
HETATM   31  C22 UNL     1      24.852  10.120  20.605  1.00  0.00     0.049 A 
ENDBRANCH  23  24
ENDBRANCH   1  23
BRANCH   1  32
HETATM   32  C23 UNL     1      22.154  10.424  24.575  1.00  0.00     0.171 C 
BRANCH  32  33
HETATM   33  O4  UNL     1      22.512   9.084  24.755  1.00  0.00    -0.391 OA
ATOM     34  H4  UNL     1      22.450   8.797  25.659  1.00  0.00     0.210 HD
ENDBRANCH  32  33
BRANCH  32  35
HETATM   35  C24 UNL     1      20.796  10.672  25.043  1.00  0.00     0.219 C 
HETATM   36  C25 UNL     1      20.340  12.109  24.968  1.00  0.00     0.070 C 
HETATM   37  C26 UNL     1      18.927  11.965  25.569  1.00  0.00     0.156 C 
HETATM   38  C33 UNL     1      18.572  10.519  25.264  1.00  0.00     0.265 C 
HETATM   39  N3  UNL     1      19.700   9.990  24.461  1.00  0.00    -0.066 N 
ATOM     40  H32 UNL     1      19.606  10.098  23.451  1.00  0.00     0.277 HD
ATOM     41  H31 UNL     1      19.780   8.974  24.437  1.00  0.00     0.277 HD
BRANCH  37  42
HETATM   42  O5  UNL     1      18.042  12.860  25.011  1.00  0.00    -0.344 OA
BRANCH  42  43
HETATM   43  C27 UNL     1      17.013  13.450  25.676  1.00  0.00     0.069 A 
HETATM   44  C28 UNL     1      16.952  13.658  27.036  1.00  0.00     0.037 A 
HETATM   45  C29 UNL     1      15.887  14.265  27.688  1.00  0.00     0.003 A 
HETATM   46  C30 UNL     1      14.821  14.687  26.927  1.00  0.00     0.000 A 
HETATM   47  C31 UNL     1      14.847  14.495  25.561  1.00  0.00     0.003 A 
HETATM   48  C32 UNL     1      15.899  13.898  24.933  1.00  0.00     0.037 A 
ENDBRANCH  42  43
ENDBRANCH  37  42
ENDBRANCH  32  35
ENDBRANCH   1  32
TORSDOF 12
ENDMDL
