MODEL 18
REMARK VINA RESULT: -9.897654695      2.574      5.300
REMARK  12 active torsions:
REMARK  status: ('A' for Active; 'I' for Inactive)
REMARK    1  A    between atoms: O1_2  and  C2_3 
REMARK    2  A    between atoms: C2_3  and  C3_4 
REMARK       I    between atoms: N1_8  and  C7_9 
REMARK    3  A    between atoms: C7_9  and  C8_11 
REMARK    4  A    between atoms: C13_16  and  C14_17 
REMARK       I    between atoms: C14_17  and  N2_19 
REMARK    5  A    between atoms: N2_19  and  C15_21 
REMARK    6  A    between atoms: C15_21  and  C16_22 
REMARK    7  A    between atoms: C15_21  and  C23_31 
REMARK    8  A    between atoms: C16_22  and  C17_23 
REMARK    9  A    between atoms: C23_31  and  O4_32 
REMARK   10  A    between atoms: C23_31  and  C24_34 
REMARK   11  A    between atoms: C26_36  and  O5_37 
REMARK   12  A    between atoms: O5_37  and  C27_38 
ROOT
HETATM    1  C15 UNL     1      22.555  11.044  23.192  1.00  0.00     0.119 C 
ENDROOT
BRANCH   1   2
HETATM    2  N2  UNL     1      23.788  11.788  23.537  1.00  0.00    -0.349 N 
HETATM    3  C14 UNL     1      23.854  13.167  23.610  1.00  0.00     0.252 C 
HETATM    4  O3  UNL     1      22.825  13.849  23.374  1.00  0.00    -0.268 OA
ATOM      5  H2  UNL     1      24.635  11.254  23.732  1.00  0.00     0.163 HD
BRANCH   3   6
HETATM    6  C13 UNL     1      25.104  13.878  23.957  1.00  0.00     0.033 A 
HETATM    7  C12 UNL     1      26.323  13.360  23.569  1.00  0.00     0.024 A 
HETATM    8  C10 UNL     1      27.504  13.992  23.879  1.00  0.00    -0.060 A 
HETATM    9  C9  UNL     1      27.418  15.178  24.602  1.00  0.00     0.024 A 
HETATM   10  C11 UNL     1      28.833  13.436  23.462  1.00  0.00     0.048 C 
HETATM   11  C8  UNL     1      26.242  15.750  25.019  1.00  0.00     0.033 A 
HETATM   12  C34 UNL     1      25.081  15.032  24.656  1.00  0.00     0.034 A 
BRANCH  11  13
HETATM   13  C7  UNL     1      26.097  16.982  25.735  1.00  0.00     0.254 C 
HETATM   14  N1  UNL     1      26.992  18.090  25.700  1.00  0.00    -0.341 N 
HETATM   15  C3  UNL     1      26.799  19.282  26.570  1.00  0.00     0.111 C 
HETATM   16  C6  UNL     1      28.197  18.316  24.954  1.00  0.00     0.127 C 
HETATM   17  C4  UNL     1      27.221  20.397  25.657  1.00  0.00     0.029 C 
HETATM   18  C5  UNL     1      28.508  19.794  25.079  1.00  0.00     0.022 C 
HETATM   19  O2  UNL     1      25.058  17.112  26.486  1.00  0.00    -0.267 OA
BRANCH  15  20
HETATM   20  C2  UNL     1      27.748  19.225  27.735  1.00  0.00     0.192 C 
BRANCH  20  21
HETATM   21  O1  UNL     1      27.268  19.808  28.873  1.00  0.00    -0.394 OA
HETATM   22  C1  UNL     1      27.665  21.104  29.070  1.00  0.00     0.201 C 
ENDBRANCH  20  21
ENDBRANCH  15  20
ENDBRANCH  11  13
ENDBRANCH   3   6
ENDBRANCH   1   2
BRANCH   1  23
HETATM   23  C16 UNL     1      23.083   9.951  22.281  1.00  0.00     0.066 C 
BRANCH  23  24
HETATM   24  C17 UNL     1      23.613  10.519  21.020  1.00  0.00    -0.050 A 
HETATM   25  C18 UNL     1      22.822  11.399  20.325  1.00  0.00     0.049 A 
HETATM   26  C19 UNL     1      23.319  11.937  19.136  1.00  0.00     0.119 A 
HETATM   27  F1  UNL     1      22.558  12.815  18.420  1.00  0.00    -0.206 F 
HETATM   28  C20 UNL     1      24.564  11.600  18.664  1.00  0.00     0.084 A 
HETATM   29  C21 UNL     1      25.335  10.705  19.397  1.00  0.00     0.119 A 
HETATM   30  F2  UNL     1      26.565  10.365  18.945  1.00  0.00    -0.206 F 
HETATM   31  C22 UNL     1      24.875  10.156  20.576  1.00  0.00     0.049 A 
ENDBRANCH  23  24
ENDBRANCH   1  23
BRANCH   1  32
HETATM   32  C23 UNL     1      22.068  10.501  24.490  1.00  0.00     0.171 C 
BRANCH  32  33
HETATM   33  O4  UNL     1      22.495   9.191  24.736  1.00  0.00    -0.391 OA
ATOM     34  H4  UNL     1      22.997   9.104  25.538  1.00  0.00     0.210 HD
ENDBRANCH  32  33
BRANCH  32  35
HETATM   35  C24 UNL     1      20.668  10.674  24.856  1.00  0.00     0.219 C 
HETATM   36  C25 UNL     1      20.405  10.872  26.329  1.00  0.00     0.070 C 
HETATM   37  C26 UNL     1      18.866  10.972  26.309  1.00  0.00     0.156 C 
HETATM   38  C33 UNL     1      18.576  11.476  24.904  1.00  0.00     0.265 C 
HETATM   39  N3  UNL     1      19.900  11.718  24.283  1.00  0.00    -0.066 N 
ATOM     40  H32 UNL     1      20.277  12.657  24.409  1.00  0.00     0.277 HD
ATOM     41  H31 UNL     1      19.904  11.754  23.264  1.00  0.00     0.277 HD
BRANCH  37  42
HETATM   42  O5  UNL     1      18.398  11.820  27.287  1.00  0.00    -0.344 OA
BRANCH  42  43
HETATM   43  C27 UNL     1      19.124  12.245  28.356  1.00  0.00     0.069 A 
HETATM   44  C28 UNL     1      18.747  12.132  29.676  1.00  0.00     0.037 A 
HETATM   45  C29 UNL     1      19.510  12.575  30.747  1.00  0.00     0.003 A 
HETATM   46  C30 UNL     1      20.722  13.167  30.476  1.00  0.00     0.000 A 
HETATM   47  C31 UNL     1      21.132  13.297  29.164  1.00  0.00     0.003 A 
HETATM   48  C32 UNL     1      20.374  12.858  28.121  1.00  0.00     0.037 A 
ENDBRANCH  42  43
ENDBRANCH  37  42
ENDBRANCH  32  35
ENDBRANCH   1  32
TORSDOF 12
ENDMDL
