MODEL 2
REMARK VINA RESULT: -11.735227190      1.331      2.059
REMARK  12 active torsions:
REMARK  status: ('A' for Active; 'I' for Inactive)
REMARK    1  A    between atoms: O1_2  and  C2_3 
REMARK    2  A    between atoms: C2_3  and  C3_4 
REMARK       I    between atoms: N1_8  and  C7_9 
REMARK    3  A    between atoms: C7_9  and  C8_11 
REMARK    4  A    between atoms: C13_16  and  C14_17 
REMARK       I    between atoms: C14_17  and  N2_19 
REMARK    5  A    between atoms: N2_19  and  C15_21 
REMARK    6  A    between atoms: C15_21  and  C16_22 
REMARK    7  A    between atoms: C15_21  and  C23_31 
REMARK    8  A    between atoms: C16_22  and  C17_23 
REMARK    9  A    between atoms: C23_31  and  O4_32 
REMARK   10  A    between atoms: C23_31  and  C24_34 
REMARK   11  A    between atoms: C26_36  and  O5_37 
REMARK   12  A    between atoms: O5_37  and  C27_38 
ROOT
HETATM    1  C15 UNL     1      22.598  10.867  23.458  1.00  0.00     0.119 C 
ENDROOT
BRANCH   1   2
HETATM    2  N2  UNL     1      23.735  11.781  23.709  1.00  0.00    -0.349 N 
HETATM    3  C14 UNL     1      23.628  13.159  23.687  1.00  0.00     0.252 C 
HETATM    4  O3  UNL     1      22.515  13.690  23.443  1.00  0.00    -0.268 OA
ATOM      5  H2  UNL     1      24.648  11.372  23.909  1.00  0.00     0.163 HD
BRANCH   3   6
HETATM    6  C13 UNL     1      24.787  14.043  23.942  1.00  0.00     0.033 A 
HETATM    7  C12 UNL     1      24.649  15.141  24.766  1.00  0.00     0.024 A 
HETATM    8  C10 UNL     1      25.704  15.986  25.019  1.00  0.00    -0.060 A 
HETATM    9  C9  UNL     1      26.917  15.687  24.408  1.00  0.00     0.024 A 
HETATM   10  C11 UNL     1      25.563  17.182  25.914  1.00  0.00     0.048 C 
HETATM   11  C8  UNL     1      27.126  14.613  23.579  1.00  0.00     0.033 A 
HETATM   12  C34 UNL     1      25.988  13.801  23.376  1.00  0.00     0.034 A 
BRANCH  11  13
HETATM   13  C7  UNL     1      28.359  14.243  22.953  1.00  0.00     0.254 C 
HETATM   14  N1  UNL     1      29.496  15.081  22.765  1.00  0.00    -0.341 N 
HETATM   15  C3  UNL     1      30.690  14.625  22.002  1.00  0.00     0.111 C 
HETATM   16  C6  UNL     1      29.755  16.436  23.160  1.00  0.00     0.127 C 
HETATM   17  C4  UNL     1      31.809  15.245  22.787  1.00  0.00     0.029 C 
HETATM   18  C5  UNL     1      31.243  16.658  22.984  1.00  0.00     0.022 C 
HETATM   19  O2  UNL     1      28.462  13.035  22.514  1.00  0.00    -0.267 OA
BRANCH  15  20
HETATM   20  C2  UNL     1      30.676  15.223  20.623  1.00  0.00     0.192 C 
BRANCH  20  21
HETATM   21  O1  UNL     1      29.791  14.631  19.768  1.00  0.00    -0.394 OA
HETATM   22  C1  UNL     1      29.468  15.374  18.663  1.00  0.00     0.201 C 
ENDBRANCH  20  21
ENDBRANCH  15  20
ENDBRANCH  11  13
ENDBRANCH   3   6
ENDBRANCH   1   2
BRANCH   1  23
HETATM   23  C16 UNL     1      23.217   9.827  22.543  1.00  0.00     0.066 C 
BRANCH  23  24
HETATM   24  C17 UNL     1      23.636  10.432  21.257  1.00  0.00    -0.050 A 
HETATM   25  C18 UNL     1      24.886  10.130  20.778  1.00  0.00     0.049 A 
HETATM   26  C19 UNL     1      25.284  10.699  19.566  1.00  0.00     0.119 A 
HETATM   27  F1  UNL     1      26.522  10.419  19.062  1.00  0.00    -0.206 F 
HETATM   28  C20 UNL     1      24.456  11.539  18.864  1.00  0.00     0.084 A 
HETATM   29  C21 UNL     1      23.197  11.819  19.382  1.00  0.00     0.119 A 
HETATM   30  F2  UNL     1      22.368  12.645  18.700  1.00  0.00    -0.206 F 
HETATM   31  C22 UNL     1      22.771  11.275  20.576  1.00  0.00     0.049 A 
ENDBRANCH  23  24
ENDBRANCH   1  23
BRANCH   1  32
HETATM   32  C23 UNL     1      22.265  10.304  24.796  1.00  0.00     0.171 C 
BRANCH  32  33
HETATM   33  O4  UNL     1      22.233   8.905  24.815  1.00  0.00    -0.391 OA
ATOM     34  H4  UNL     1      22.386   8.538  25.678  1.00  0.00     0.210 HD
ENDBRANCH  32  33
BRANCH  32  35
HETATM   35  C24 UNL     1      21.151  10.865  25.550  1.00  0.00     0.219 C 
HETATM   36  C25 UNL     1      19.803  10.766  24.879  1.00  0.00     0.070 C 
HETATM   37  C26 UNL     1      18.934  11.480  25.935  1.00  0.00     0.156 C 
HETATM   38  C33 UNL     1      19.714  11.263  27.222  1.00  0.00     0.265 C 
HETATM   39  N3  UNL     1      20.860  10.398  26.855  1.00  0.00    -0.066 N 
ATOM     40  H32 UNL     1      20.693   9.395  26.932  1.00  0.00     0.277 HD
ATOM     41  H31 UNL     1      21.642  10.410  27.508  1.00  0.00     0.277 HD
BRANCH  37  42
HETATM   42  O5  UNL     1      17.662  10.955  25.987  1.00  0.00    -0.344 OA
BRANCH  42  43
HETATM   43  C27 UNL     1      16.924  10.604  24.901  1.00  0.00     0.069 A 
HETATM   44  C28 UNL     1      16.538  11.453  23.886  1.00  0.00     0.037 A 
HETATM   45  C29 UNL     1      15.783  11.066  22.787  1.00  0.00     0.003 A 
HETATM   46  C30 UNL     1      15.393   9.749  22.704  1.00  0.00     0.000 A 
HETATM   47  C31 UNL     1      15.761   8.870  23.702  1.00  0.00     0.003 A 
HETATM   48  C32 UNL     1      16.502   9.262  24.776  1.00  0.00     0.037 A 
ENDBRANCH  42  43
ENDBRANCH  37  42
ENDBRANCH  32  35
ENDBRANCH   1  32
TORSDOF 12
ENDMDL
