MODEL 4
REMARK VINA RESULT: -9.450606653      2.073      7.068
REMARK  10 active torsions:
REMARK  status: ('A' for Active; 'I' for Inactive)
REMARK    1  A    between atoms: S1_2  and  C1_4 
REMARK    2  A    between atoms: S1_2  and  N1_11 
REMARK    3  A    between atoms: N1_11  and  C7_12 
REMARK    4  A    between atoms: N1_11  and  C14_19 
REMARK    5  A    between atoms: C7_12  and  C8_13 
REMARK    6  A    between atoms: C17_25  and  N3_26 
REMARK    7  A    between atoms: N3_26  and  C18_27 
REMARK    8  A    between atoms: N3_26  and  S2_34 
REMARK    9  A    between atoms: C18_27  and  C19_28 
REMARK   10  A    between atoms: S2_34  and  C25_37 
ROOT
HETATM    1  C14 UNL     1     -17.188  20.879  -5.074  1.00  0.00     0.147 C 
HETATM    2  C15 UNL     1     -18.060  22.058  -4.751  1.00  0.00     0.260 C 
HETATM    3  N2  UNL     1     -19.397  21.447  -4.849  1.00  0.00    -0.071 N 
ATOM      4  H21 UNL     1     -20.188  22.080  -4.728  1.00  0.00     0.277 HD
ATOM      5  H22 UNL     1     -19.667  20.836  -4.078  1.00  0.00     0.277 HD
HETATM    6  C16 UNL     1     -19.282  20.816  -6.148  1.00  0.00     0.260 C 
HETATM    7  C17 UNL     1     -17.911  20.199  -6.201  1.00  0.00     0.152 C 
ENDROOT
BRANCH   1   8
HETATM    8  N1  UNL     1     -15.822  21.194  -5.294  1.00  0.00    -0.294 N 
BRANCH   8   9
HETATM    9  S1  UNL     1     -14.721  21.180  -4.059  1.00  0.00     0.263 S 
HETATM   10  O1  UNL     1     -15.379  20.814  -2.753  1.00  0.00    -0.200 OA
HETATM   11  O2  UNL     1     -13.576  20.226  -4.218  1.00  0.00    -0.200 OA
BRANCH   9  12
HETATM   12  C1  UNL     1     -14.006  22.785  -3.818  1.00  0.00     0.101 A 
HETATM   13  C2  UNL     1     -12.798  23.089  -4.433  1.00  0.00     0.027 A 
HETATM   14  C3  UNL     1     -12.242  24.337  -4.251  1.00  0.00     0.002 A 
HETATM   15  C4  UNL     1     -12.854  25.302  -3.468  1.00  0.00     0.002 A 
HETATM   16  C5  UNL     1     -14.043  25.017  -2.856  1.00  0.00     0.025 A 
HETATM   17  C6  UNL     1     -14.604  23.750  -3.043  1.00  0.00     0.057 A 
HETATM   18 CL1  UNL     1     -16.130  23.387  -2.249  1.00  0.00    -0.083 Cl
ENDBRANCH   9  12
ENDBRANCH   8   9
BRANCH   8  19
HETATM   19  C7  UNL     1     -15.572  22.057  -6.407  1.00  0.00     0.174 C 
BRANCH  19  20
HETATM   20  C8  UNL     1     -14.476  21.543  -7.236  1.00  0.00    -0.040 A 
HETATM   21  C9  UNL     1     -13.503  22.416  -7.668  1.00  0.00     0.009 A 
HETATM   22  C10 UNL     1     -12.453  21.966  -8.447  1.00  0.00     0.001 A 
HETATM   23  C11 UNL     1     -12.326  20.648  -8.822  1.00  0.00     0.000 A 
HETATM   24  C12 UNL     1     -13.306  19.768  -8.386  1.00  0.00     0.001 A 
HETATM   25  C13 UNL     1     -14.362  20.212  -7.606  1.00  0.00     0.009 A 
ENDBRANCH  19  20
ENDBRANCH   8  19
ENDBRANCH   1   8
BRANCH   7  26
HETATM   26  N3  UNL     1     -17.983  18.794  -6.192  1.00  0.00    -0.273 N 
BRANCH  26  27
HETATM   27  C18 UNL     1     -17.759  18.021  -5.056  1.00  0.00     0.115 C 
BRANCH  27  28
HETATM   28  C19 UNL     1     -18.866  17.955  -4.039  1.00  0.00    -0.020 A 
HETATM   29  C20 UNL     1     -20.114  17.456  -4.361  1.00  0.00     0.013 A 
HETATM   30  C21 UNL     1     -21.133  17.411  -3.412  1.00  0.00     0.001 A 
HETATM   31  C22 UNL     1     -20.951  17.856  -2.125  1.00  0.00     0.000 A 
HETATM   32  C23 UNL     1     -19.711  18.356  -1.795  1.00  0.00     0.001 A 
HETATM   33  C24 UNL     1     -18.698  18.398  -2.746  1.00  0.00     0.013 A 
ENDBRANCH  27  28
ENDBRANCH  26  27
BRANCH  26  34
HETATM   34  S2  UNL     1     -17.716  18.084  -7.698  1.00  0.00     0.266 S 
HETATM   35  O3  UNL     1     -17.653  19.177  -8.782  1.00  0.00    -0.200 OA
HETATM   36  O4  UNL     1     -16.294  17.525  -7.717  1.00  0.00    -0.200 OA
BRANCH  34  37
HETATM   37  C25 UNL     1     -18.845  16.924  -8.272  1.00  0.00     0.101 A 
HETATM   38  C26 UNL     1     -18.490  15.641  -8.556  1.00  0.00     0.027 A 
HETATM   39  C27 UNL     1     -19.398  14.720  -9.042  1.00  0.00     0.002 A 
HETATM   40  C28 UNL     1     -20.699  15.113  -9.244  1.00  0.00     0.002 A 
HETATM   41  C29 UNL     1     -21.064  16.408  -8.959  1.00  0.00     0.025 A 
HETATM   42  C30 UNL     1     -20.157  17.314  -8.477  1.00  0.00     0.057 A 
HETATM   43 CL2  UNL     1     -20.675  18.965  -8.128  1.00  0.00    -0.083 Cl
ENDBRANCH  34  37
ENDBRANCH  26  34
ENDBRANCH   7  26
TORSDOF 10
ENDMDL
