MODEL 3
REMARK VINA RESULT: -9.651411360      2.345      7.359
REMARK  10 active torsions:
REMARK  status: ('A' for Active; 'I' for Inactive)
REMARK    1  A    between atoms: S1_2  and  C1_4 
REMARK    2  A    between atoms: S1_2  and  N1_11 
REMARK    3  A    between atoms: N1_11  and  C7_12 
REMARK    4  A    between atoms: N1_11  and  C14_19 
REMARK    5  A    between atoms: C7_12  and  C8_13 
REMARK    6  A    between atoms: C17_25  and  N3_26 
REMARK    7  A    between atoms: N3_26  and  C18_27 
REMARK    8  A    between atoms: N3_26  and  S2_34 
REMARK    9  A    between atoms: C18_27  and  C19_28 
REMARK   10  A    between atoms: S2_34  and  C25_37 
ROOT
HETATM    1  C14 UNL     1     -15.079  20.496  -5.816  1.00  0.00     0.147 C 
HETATM    2  C15 UNL     1     -14.120  19.659  -5.018  1.00  0.00     0.260 C 
HETATM    3  N2  UNL     1     -14.916  18.434  -4.828  1.00  0.00    -0.071 N 
ATOM      4  H21 UNL     1     -14.493  17.712  -4.245  1.00  0.00     0.277 HD
ATOM      5  H22 UNL     1     -15.009  17.831  -5.645  1.00  0.00     0.277 HD
HETATM    6  C16 UNL     1     -16.144  19.017  -4.326  1.00  0.00     0.260 C 
HETATM    7  C17 UNL     1     -16.405  20.241  -5.160  1.00  0.00     0.152 C 
ENDROOT
BRANCH   1   8
HETATM    8  N1  UNL     1     -14.694  21.853  -5.968  1.00  0.00    -0.294 N 
BRANCH   8   9
HETATM    9  S1  UNL     1     -14.770  22.922  -4.708  1.00  0.00     0.263 S 
HETATM   10  O1  UNL     1     -15.751  24.030  -4.998  1.00  0.00    -0.200 OA
HETATM   11  O2  UNL     1     -15.189  22.345  -3.389  1.00  0.00    -0.200 OA
BRANCH   9  12
HETATM   12  C1  UNL     1     -13.205  23.708  -4.436  1.00  0.00     0.101 A 
HETATM   13  C2  UNL     1     -12.113  23.332  -5.208  1.00  0.00     0.027 A 
HETATM   14  C3  UNL     1     -10.896  23.946  -5.002  1.00  0.00     0.002 A 
HETATM   15  C4  UNL     1     -10.728  24.930  -4.042  1.00  0.00     0.002 A 
HETATM   16  C5  UNL     1     -11.793  25.310  -3.275  1.00  0.00     0.025 A 
HETATM   17  C6  UNL     1     -13.025  24.686  -3.486  1.00  0.00     0.057 A 
HETATM   18 CL1  UNL     1     -14.391  25.175  -2.492  1.00  0.00    -0.083 Cl
ENDBRANCH   9  12
ENDBRANCH   8   9
BRANCH   8  19
HETATM   19  C7  UNL     1     -14.818  22.371  -7.296  1.00  0.00     0.174 C 
BRANCH  19  20
HETATM   20  C8  UNL     1     -13.520  22.375  -7.983  1.00  0.00    -0.040 A 
HETATM   21  C9  UNL     1     -13.230  23.404  -8.849  1.00  0.00     0.009 A 
HETATM   22  C10 UNL     1     -12.016  23.443  -9.510  1.00  0.00     0.001 A 
HETATM   23  C11 UNL     1     -11.052  22.475  -9.338  1.00  0.00     0.000 A 
HETATM   24  C12 UNL     1     -11.346  21.439  -8.464  1.00  0.00     0.001 A 
HETATM   25  C13 UNL     1     -12.561  21.393  -7.799  1.00  0.00     0.009 A 
ENDBRANCH  19  20
ENDBRANCH   8  19
ENDBRANCH   1   8
BRANCH   7  26
HETATM   26  N3  UNL     1     -17.531  20.067  -5.986  1.00  0.00    -0.273 N 
BRANCH  26  27
HETATM   27  C18 UNL     1     -17.480  20.125  -7.376  1.00  0.00     0.115 C 
BRANCH  27  28
HETATM   28  C19 UNL     1     -17.621  18.828  -8.125  1.00  0.00    -0.020 A 
HETATM   29  C20 UNL     1     -16.649  17.847  -8.061  1.00  0.00     0.013 A 
HETATM   30  C21 UNL     1     -16.788  16.656  -8.770  1.00  0.00     0.001 A 
HETATM   31  C22 UNL     1     -17.884  16.400  -9.558  1.00  0.00     0.000 A 
HETATM   32  C23 UNL     1     -18.857  17.372  -9.629  1.00  0.00     0.001 A 
HETATM   33  C24 UNL     1     -18.713  18.558  -8.920  1.00  0.00     0.013 A 
ENDBRANCH  27  28
ENDBRANCH  26  27
BRANCH  26  34
HETATM   34  S2  UNL     1     -18.996  20.424  -5.231  1.00  0.00     0.266 S 
HETATM   35  O3  UNL     1     -18.895  21.788  -4.522  1.00  0.00    -0.200 OA
HETATM   36  O4  UNL     1     -20.038  20.697  -6.315  1.00  0.00    -0.200 OA
BRANCH  34  37
HETATM   37  C25 UNL     1     -19.601  19.330  -4.052  1.00  0.00     0.101 A 
HETATM   38  C26 UNL     1     -19.409  19.518  -2.718  1.00  0.00     0.027 A 
HETATM   39  C27 UNL     1     -19.877  18.622  -1.777  1.00  0.00     0.002 A 
HETATM   40  C28 UNL     1     -20.556  17.505  -2.203  1.00  0.00     0.002 A 
HETATM   41  C29 UNL     1     -20.753  17.309  -3.550  1.00  0.00     0.025 A 
HETATM   42  C30 UNL     1     -20.286  18.204  -4.476  1.00  0.00     0.057 A 
HETATM   43 CL2  UNL     1     -20.562  17.907  -6.194  1.00  0.00    -0.083 Cl
ENDBRANCH  34  37
ENDBRANCH  26  34
ENDBRANCH   7  26
TORSDOF 10
ENDMDL
