MODEL 1
REMARK VINA RESULT: -10.044814415      0.000      0.000
REMARK  10 active torsions:
REMARK  status: ('A' for Active; 'I' for Inactive)
REMARK    1  A    between atoms: S1_2  and  C1_4 
REMARK    2  A    between atoms: S1_2  and  N1_11 
REMARK    3  A    between atoms: N1_11  and  C7_12 
REMARK    4  A    between atoms: N1_11  and  C14_19 
REMARK    5  A    between atoms: C7_12  and  C8_13 
REMARK    6  A    between atoms: C17_25  and  N3_26 
REMARK    7  A    between atoms: N3_26  and  C18_27 
REMARK    8  A    between atoms: N3_26  and  S2_34 
REMARK    9  A    between atoms: C18_27  and  C19_28 
REMARK   10  A    between atoms: S2_34  and  C25_37 
ROOT
HETATM    1  C14 UNL     1     -17.698  18.319  -6.210  1.00  0.00     0.147 C 
HETATM    2  C15 UNL     1     -16.720  17.305  -5.691  1.00  0.00     0.260 C 
HETATM    3  N2  UNL     1     -16.690  17.656  -4.261  1.00  0.00    -0.071 N 
ATOM      4  H21 UNL     1     -16.031  17.133  -3.685  1.00  0.00     0.277 HD
ATOM      5  H22 UNL     1     -17.507  17.380  -3.716  1.00  0.00     0.277 HD
HETATM    6  C16 UNL     1     -16.449  19.082  -4.366  1.00  0.00     0.260 C 
HETATM    7  C17 UNL     1     -17.324  19.579  -5.484  1.00  0.00     0.152 C 
ENDROOT
BRANCH   1   8
HETATM    8  N1  UNL     1     -17.775  18.398  -7.624  1.00  0.00    -0.294 N 
BRANCH   8   9
HETATM    9  S1  UNL     1     -19.221  18.286  -8.420  1.00  0.00     0.263 S 
HETATM   10  O1  UNL     1     -20.034  19.544  -8.245  1.00  0.00    -0.200 OA
HETATM   11  O2  UNL     1     -19.134  18.063  -9.900  1.00  0.00    -0.200 OA
BRANCH   9  12
HETATM   12  C1  UNL     1     -20.211  16.965  -7.773  1.00  0.00     0.101 A 
HETATM   13  C2  UNL     1     -21.308  17.266  -6.978  1.00  0.00     0.027 A 
HETATM   14  C3  UNL     1     -22.083  16.242  -6.478  1.00  0.00     0.002 A 
HETATM   15  C4  UNL     1     -21.798  14.913  -6.746  1.00  0.00     0.002 A 
HETATM   16  C5  UNL     1     -20.721  14.602  -7.528  1.00  0.00     0.025 A 
HETATM   17  C6  UNL     1     -19.938  15.643  -8.032  1.00  0.00     0.057 A 
HETATM   18 CL1  UNL     1     -18.550  15.235  -9.032  1.00  0.00    -0.083 Cl
ENDBRANCH   9  12
ENDBRANCH   8   9
BRANCH   8  19
HETATM   19  C7  UNL     1     -16.593  17.990  -8.318  1.00  0.00     0.174 C 
BRANCH  19  20
HETATM   20  C8  UNL     1     -15.701  19.132  -8.556  1.00  0.00    -0.040 A 
HETATM   21  C9  UNL     1     -14.416  19.085  -8.067  1.00  0.00     0.009 A 
HETATM   22  C10 UNL     1     -13.547  20.140  -8.276  1.00  0.00     0.001 A 
HETATM   23  C11 UNL     1     -13.914  21.270  -8.971  1.00  0.00     0.000 A 
HETATM   24  C12 UNL     1     -15.210  21.316  -9.465  1.00  0.00     0.001 A 
HETATM   25  C13 UNL     1     -16.086  20.262  -9.258  1.00  0.00     0.009 A 
ENDBRANCH  19  20
ENDBRANCH   8  19
ENDBRANCH   1   8
BRANCH   7  26
HETATM   26  N3  UNL     1     -18.360  20.398  -4.998  1.00  0.00    -0.273 N 
BRANCH  26  27
HETATM   27  C18 UNL     1     -19.706  20.049  -5.059  1.00  0.00     0.115 C 
BRANCH  27  28
HETATM   28  C19 UNL     1     -20.281  19.315  -3.878  1.00  0.00    -0.020 A 
HETATM   29  C20 UNL     1     -19.515  19.023  -2.765  1.00  0.00     0.013 A 
HETATM   30  C21 UNL     1     -20.059  18.332  -1.685  1.00  0.00     0.001 A 
HETATM   31  C22 UNL     1     -21.366  17.910  -1.672  1.00  0.00     0.000 A 
HETATM   32  C23 UNL     1     -22.137  18.195  -2.777  1.00  0.00     0.001 A 
HETATM   33  C24 UNL     1     -21.590  18.885  -3.852  1.00  0.00     0.013 A 
ENDBRANCH  27  28
ENDBRANCH  26  27
BRANCH  26  34
HETATM   34  S2  UNL     1     -17.967  22.036  -4.937  1.00  0.00     0.266 S 
HETATM   35  O3  UNL     1     -18.446  22.732  -6.225  1.00  0.00    -0.200 OA
HETATM   36  O4  UNL     1     -18.836  22.697  -3.868  1.00  0.00    -0.200 OA
BRANCH  34  37
HETATM   37  C25 UNL     1     -16.317  22.480  -4.755  1.00  0.00     0.101 A 
HETATM   38  C26 UNL     1     -15.448  22.499  -5.802  1.00  0.00     0.027 A 
HETATM   39  C27 UNL     1     -14.117  22.832  -5.643  1.00  0.00     0.002 A 
HETATM   40  C28 UNL     1     -13.658  23.153  -4.388  1.00  0.00     0.002 A 
HETATM   41  C29 UNL     1     -14.531  23.136  -3.326  1.00  0.00     0.025 A 
HETATM   42  C30 UNL     1     -15.850  22.805  -3.493  1.00  0.00     0.057 A 
HETATM   43 CL2  UNL     1     -16.930  22.795  -2.097  1.00  0.00    -0.083 Cl
ENDBRANCH  34  37
ENDBRANCH  26  34
ENDBRANCH   7  26
TORSDOF 10
ENDMDL
