MODEL 5
REMARK VINA RESULT: -9.431157893      1.949      7.114
REMARK  10 active torsions:
REMARK  status: ('A' for Active; 'I' for Inactive)
REMARK    1  A    between atoms: S1_2  and  C1_4 
REMARK    2  A    between atoms: S1_2  and  N1_11 
REMARK    3  A    between atoms: N1_11  and  C7_12 
REMARK    4  A    between atoms: N1_11  and  C14_19 
REMARK    5  A    between atoms: C7_12  and  C8_13 
REMARK    6  A    between atoms: C17_25  and  N3_26 
REMARK    7  A    between atoms: N3_26  and  C18_27 
REMARK    8  A    between atoms: N3_26  and  S2_34 
REMARK    9  A    between atoms: C18_27  and  C19_28 
REMARK   10  A    between atoms: S2_34  and  C25_37 
ROOT
HETATM    1  C14 UNL     1     -17.257  20.975  -4.844  1.00  0.00     0.147 C 
HETATM    2  C15 UNL     1     -18.078  22.189  -4.520  1.00  0.00     0.260 C 
HETATM    3  N2  UNL     1     -19.435  21.615  -4.531  1.00  0.00    -0.071 N 
ATOM      4  H21 UNL     1     -20.201  22.274  -4.393  1.00  0.00     0.277 HD
ATOM      5  H22 UNL     1     -19.682  21.038  -3.727  1.00  0.00     0.277 HD
HETATM    6  C16 UNL     1     -19.402  20.938  -5.811  1.00  0.00     0.260 C 
HETATM    7  C17 UNL     1     -18.053  20.279  -5.909  1.00  0.00     0.152 C 
ENDROOT
BRANCH   1   8
HETATM    8  N1  UNL     1     -15.895  21.243  -5.142  1.00  0.00    -0.294 N 
BRANCH   8   9
HETATM    9  S1  UNL     1     -14.731  21.219  -3.967  1.00  0.00     0.263 S 
HETATM   10  O1  UNL     1     -15.330  20.907  -2.619  1.00  0.00    -0.200 OA
HETATM   11  O2  UNL     1     -13.630  20.221  -4.162  1.00  0.00    -0.200 OA
BRANCH   9  12
HETATM   12  C1  UNL     1     -13.949  22.802  -3.803  1.00  0.00     0.101 A 
HETATM   13  C2  UNL     1     -12.776  23.055  -4.503  1.00  0.00     0.027 A 
HETATM   14  C3  UNL     1     -12.168  24.286  -4.382  1.00  0.00     0.002 A 
HETATM   15  C4  UNL     1     -12.695  25.284  -3.578  1.00  0.00     0.002 A 
HETATM   16  C5  UNL     1     -13.849  25.049  -2.884  1.00  0.00     0.025 A 
HETATM   17  C6  UNL     1     -14.461  23.800  -3.009  1.00  0.00     0.057 A 
HETATM   18 CL1  UNL     1     -15.942  23.502  -2.108  1.00  0.00    -0.083 Cl
ENDBRANCH   9  12
ENDBRANCH   8   9
BRANCH   8  19
HETATM   19  C7  UNL     1     -15.679  22.076  -6.285  1.00  0.00     0.174 C 
BRANCH  19  20
HETATM   20  C8  UNL     1     -14.667  21.495  -7.176  1.00  0.00    -0.040 A 
HETATM   21  C9  UNL     1     -13.738  22.326  -7.758  1.00  0.00     0.009 A 
HETATM   22  C10 UNL     1     -12.768  21.813  -8.600  1.00  0.00     0.001 A 
HETATM   23  C11 UNL     1     -12.682  20.471  -8.892  1.00  0.00     0.000 A 
HETATM   24  C12 UNL     1     -13.619  19.634  -8.304  1.00  0.00     0.001 A 
HETATM   25  C13 UNL     1     -14.594  20.141  -7.461  1.00  0.00     0.009 A 
ENDBRANCH  19  20
ENDBRANCH   8  19
ENDBRANCH   1   8
BRANCH   7  26
HETATM   26  N3  UNL     1     -18.163  18.878  -5.848  1.00  0.00    -0.273 N 
BRANCH  26  27
HETATM   27  C18 UNL     1     -17.911  18.138  -4.696  1.00  0.00     0.115 C 
BRANCH  27  28
HETATM   28  C19 UNL     1     -19.023  18.033  -3.688  1.00  0.00    -0.020 A 
HETATM   29  C20 UNL     1     -18.916  18.602  -2.433  1.00  0.00     0.013 A 
HETATM   30  C21 UNL     1     -19.950  18.486  -1.506  1.00  0.00     0.001 A 
HETATM   31  C22 UNL     1     -21.111  17.808  -1.788  1.00  0.00     0.000 A 
HETATM   32  C23 UNL     1     -21.225  17.236  -3.036  1.00  0.00     0.001 A 
HETATM   33  C24 UNL     1     -20.191  17.355  -3.957  1.00  0.00     0.013 A 
ENDBRANCH  27  28
ENDBRANCH  26  27
BRANCH  26  34
HETATM   34  S2  UNL     1     -17.981  18.110  -7.339  1.00  0.00     0.266 S 
HETATM   35  O3  UNL     1     -17.742  19.163  -8.437  1.00  0.00    -0.200 OA
HETATM   36  O4  UNL     1     -16.658  17.347  -7.325  1.00  0.00    -0.200 OA
BRANCH  34  37
HETATM   37  C25 UNL     1     -19.261  17.119  -7.914  1.00  0.00     0.101 A 
HETATM   38  C26 UNL     1     -20.524  17.196  -7.413  1.00  0.00     0.027 A 
HETATM   39  C27 UNL     1     -21.542  16.379  -7.864  1.00  0.00     0.002 A 
HETATM   40  C28 UNL     1     -21.269  15.458  -8.847  1.00  0.00     0.002 A 
HETATM   41  C29 UNL     1     -19.994  15.374  -9.357  1.00  0.00     0.025 A 
HETATM   42  C30 UNL     1     -18.991  16.190  -8.905  1.00  0.00     0.057 A 
HETATM   43 CL2  UNL     1     -17.371  16.043  -9.590  1.00  0.00    -0.083 Cl
ENDBRANCH  34  37
ENDBRANCH  26  34
ENDBRANCH   7  26
TORSDOF 10
ENDMDL
