MODEL 2
REMARK VINA RESULT: -9.965831812      0.740      1.200
REMARK  10 active torsions:
REMARK  status: ('A' for Active; 'I' for Inactive)
REMARK    1  A    between atoms: S1_2  and  C1_4 
REMARK    2  A    between atoms: S1_2  and  N1_11 
REMARK    3  A    between atoms: N1_11  and  C7_12 
REMARK    4  A    between atoms: N1_11  and  C14_19 
REMARK    5  A    between atoms: C7_12  and  C8_13 
REMARK    6  A    between atoms: C17_25  and  N3_26 
REMARK    7  A    between atoms: N3_26  and  C18_27 
REMARK    8  A    between atoms: N3_26  and  S2_34 
REMARK    9  A    between atoms: C18_27  and  C19_28 
REMARK   10  A    between atoms: S2_34  and  C25_37 
ROOT
HETATM    1  C14 UNL     1     -17.649  18.456  -6.261  1.00  0.00     0.147 C 
HETATM    2  C15 UNL     1     -16.915  17.257  -5.735  1.00  0.00     0.260 C 
HETATM    3  N2  UNL     1     -16.704  17.656  -4.332  1.00  0.00    -0.071 N 
ATOM      4  H21 UNL     1     -16.155  17.012  -3.762  1.00  0.00     0.277 HD
ATOM      5  H22 UNL     1     -17.525  17.615  -3.728  1.00  0.00     0.277 HD
HETATM    6  C16 UNL     1     -16.131  18.971  -4.537  1.00  0.00     0.260 C 
HETATM    7  C17 UNL     1     -16.931  19.616  -5.635  1.00  0.00     0.152 C 
ENDROOT
BRANCH   1   8
HETATM    8  N1  UNL     1     -17.800  18.487  -7.671  1.00  0.00    -0.294 N 
BRANCH   8   9
HETATM    9  S1  UNL     1     -19.286  18.371  -8.386  1.00  0.00     0.263 S 
HETATM   10  O1  UNL     1     -20.130  19.582  -8.078  1.00  0.00    -0.200 OA
HETATM   11  O2  UNL     1     -19.283  18.249  -9.881  1.00  0.00    -0.200 OA
BRANCH   9  12
HETATM   12  C1  UNL     1     -20.188  16.973  -7.773  1.00  0.00     0.101 A 
HETATM   13  C2  UNL     1     -21.293  17.182  -6.959  1.00  0.00     0.027 A 
HETATM   14  C3  UNL     1     -22.000  16.097  -6.486  1.00  0.00     0.002 A 
HETATM   15  C4  UNL     1     -21.637  14.797  -6.798  1.00  0.00     0.002 A 
HETATM   16  C5  UNL     1     -20.551  14.576  -7.598  1.00  0.00     0.025 A 
HETATM   17  C6  UNL     1     -19.837  15.678  -8.076  1.00  0.00     0.057 A 
HETATM   18 CL1  UNL     1     -18.438  15.387  -9.100  1.00  0.00    -0.083 Cl
ENDBRANCH   9  12
ENDBRANCH   8   9
BRANCH   8  19
HETATM   19  C7  UNL     1     -16.661  18.035  -8.411  1.00  0.00     0.174 C 
BRANCH  19  20
HETATM   20  C8  UNL     1     -15.735  19.142  -8.681  1.00  0.00    -0.040 A 
HETATM   21  C9  UNL     1     -14.485  19.118  -8.108  1.00  0.00     0.009 A 
HETATM   22  C10 UNL     1     -13.585  20.141  -8.344  1.00  0.00     0.001 A 
HETATM   23  C11 UNL     1     -13.886  21.215  -9.149  1.00  0.00     0.000 A 
HETATM   24  C12 UNL     1     -15.148  21.239  -9.727  1.00  0.00     0.001 A 
HETATM   25  C13 UNL     1     -16.054  20.217  -9.495  1.00  0.00     0.009 A 
ENDBRANCH  19  20
ENDBRANCH   8  19
ENDBRANCH   1   8
BRANCH   7  26
HETATM   26  N3  UNL     1     -17.701  20.687  -5.144  1.00  0.00    -0.273 N 
BRANCH  26  27
HETATM   27  C18 UNL     1     -19.086  20.639  -5.010  1.00  0.00     0.115 C 
BRANCH  27  28
HETATM   28  C19 UNL     1     -19.645  19.704  -3.973  1.00  0.00    -0.020 A 
HETATM   29  C20 UNL     1     -20.813  18.997  -4.191  1.00  0.00     0.013 A 
HETATM   30  C21 UNL     1     -21.325  18.144  -3.216  1.00  0.00     0.001 A 
HETATM   31  C22 UNL     1     -20.703  17.965  -2.004  1.00  0.00     0.000 A 
HETATM   32  C23 UNL     1     -19.540  18.666  -1.776  1.00  0.00     0.001 A 
HETATM   33  C24 UNL     1     -19.034  19.516  -2.753  1.00  0.00     0.013 A 
ENDBRANCH  27  28
ENDBRANCH  26  27
BRANCH  26  34
HETATM   34  S2  UNL     1     -16.976  22.197  -5.336  1.00  0.00     0.266 S 
HETATM   35  O3  UNL     1     -16.155  22.216  -6.639  1.00  0.00    -0.200 OA
HETATM   36  O4  UNL     1     -18.073  23.220  -5.628  1.00  0.00    -0.200 OA
BRANCH  34  37
HETATM   37  C25 UNL     1     -15.914  22.762  -4.109  1.00  0.00     0.101 A 
HETATM   38  C26 UNL     1     -14.592  22.991  -4.339  1.00  0.00     0.027 A 
HETATM   39  C27 UNL     1     -13.739  23.420  -3.341  1.00  0.00     0.002 A 
HETATM   40  C28 UNL     1     -14.242  23.621  -2.078  1.00  0.00     0.002 A 
HETATM   41  C29 UNL     1     -15.576  23.391  -1.839  1.00  0.00     0.025 A 
HETATM   42  C30 UNL     1     -16.415  22.965  -2.835  1.00  0.00     0.057 A 
HETATM   43 CL2  UNL     1     -18.120  22.682  -2.478  1.00  0.00    -0.083 Cl
ENDBRANCH  34  37
ENDBRANCH  26  34
ENDBRANCH   7  26
TORSDOF 10
ENDMDL
