MODEL 1
REMARK VINA RESULT: -6.285310723      0.000      0.000
REMARK  6 active torsions:
REMARK  status: ('A' for Active; 'I' for Inactive)
REMARK    1  A    between atoms: C1_2  and  C2_4 
REMARK    2  A    between atoms: C2_4  and  C3_5 
REMARK    3  A    between atoms: C3_5  and  O3_6 
REMARK    4  A    between atoms: C3_5  and  C4_8 
REMARK    5  A    between atoms: C3_5  and  C6_12 
REMARK    6  A    between atoms: C4_8  and  C5_9 
ROOT
HETATM    1  C3  UNL     1      15.988  -1.228  61.787  1.00  0.00     0.164 C 
ENDROOT
BRANCH   1   2
HETATM    2  C2  UNL     1      16.943  -0.643  62.755  1.00  0.00     0.163 C 
BRANCH   2   3
HETATM    3  C1  UNL     1      17.292  -1.470  63.922  1.00  0.00     0.176 C 
HETATM    4  O1  UNL     1      16.460  -1.577  64.853  1.00  0.00    -0.648 OA
HETATM    5  O2  UNL     1      18.487  -2.154  64.081  1.00  0.00    -0.648 OA
ENDBRANCH   2   3
ENDBRANCH   1   2
BRANCH   1   6
HETATM    6  O3  UNL     1      14.696  -1.055  62.293  1.00  0.00    -0.378 OA
ATOM      7  H3  UNL     1      14.086  -1.469  61.693  1.00  0.00     0.211 HD
ENDBRANCH   1   6
BRANCH   1   8
HETATM    8  C4  UNL     1      16.195  -2.644  61.388  1.00  0.00     0.163 C 
BRANCH   8   9
HETATM    9  C5  UNL     1      15.199  -3.190  60.444  1.00  0.00     0.176 C 
HETATM   10  O4  UNL     1      15.573  -3.644  59.345  1.00  0.00    -0.648 OA
HETATM   11  O5  UNL     1      13.867  -3.171  60.828  1.00  0.00    -0.648 OA
ENDBRANCH   8   9
ENDBRANCH   1   8
BRANCH   1  12
HETATM   12  C6  UNL     1      16.091  -0.422  60.541  1.00  0.00     0.210 C 
HETATM   13  O6  UNL     1      17.209  -0.320  59.996  1.00  0.00    -0.646 OA
HETATM   14  O7  UNL     1      15.001   0.202  59.982  1.00  0.00    -0.646 OA
ENDBRANCH   1  12
TORSDOF 6
ENDMDL
