MODEL 5
REMARK VINA RESULT: -6.044789698      1.306      1.925
REMARK  6 active torsions:
REMARK  status: ('A' for Active; 'I' for Inactive)
REMARK    1  A    between atoms: C1_2  and  C2_4 
REMARK    2  A    between atoms: C2_4  and  C3_5 
REMARK    3  A    between atoms: C3_5  and  O3_6 
REMARK    4  A    between atoms: C3_5  and  C4_8 
REMARK    5  A    between atoms: C3_5  and  C6_12 
REMARK    6  A    between atoms: C4_8  and  C5_9 
ROOT
HETATM    1  C3  UNL     1      16.328  -1.739  61.423  1.00  0.00     0.164 C 
ENDROOT
BRANCH   1   2
HETATM    2  C2  UNL     1      16.867  -0.835  62.464  1.00  0.00     0.163 C 
BRANCH   2   3
HETATM    3  C1  UNL     1      17.282  -1.459  63.731  1.00  0.00     0.176 C 
HETATM    4  O1  UNL     1      18.439  -1.931  63.819  1.00  0.00    -0.648 OA
HETATM    5  O2  UNL     1      16.484  -1.571  64.859  1.00  0.00    -0.648 OA
ENDBRANCH   2   3
ENDBRANCH   1   2
BRANCH   1   6
HETATM    6  O3  UNL     1      16.121  -2.994  62.003  1.00  0.00    -0.378 OA
ATOM      7  H3  UNL     1      15.187  -3.172  61.996  1.00  0.00     0.211 HD
ENDBRANCH   1   6
BRANCH   1   8
HETATM    8  C4  UNL     1      17.106  -1.880  60.165  1.00  0.00     0.163 C 
BRANCH   8   9
HETATM    9  C5  UNL     1      16.838  -3.106  59.386  1.00  0.00     0.176 C 
HETATM   10  O4  UNL     1      17.750  -3.623  58.713  1.00  0.00    -0.648 OA
HETATM   11  O5  UNL     1      15.559  -3.637  59.440  1.00  0.00    -0.648 OA
ENDBRANCH   8   9
ENDBRANCH   1   8
BRANCH   1  12
HETATM   12  C6  UNL     1      14.996  -1.201  61.034  1.00  0.00     0.210 C 
HETATM   13  O6  UNL     1      14.958  -0.245  60.233  1.00  0.00    -0.646 OA
HETATM   14  O7  UNL     1      13.824  -1.725  61.528  1.00  0.00    -0.646 OA
ENDBRANCH   1  12
TORSDOF 6
ENDMDL
