MODEL 1
REMARK VINA RESULT: -7.163922745      0.000      0.000
REMARK  14 active torsions:
REMARK  status: ('A' for Active; 'I' for Inactive)
REMARK    1  A    between atoms: C3_3  and  O1_4 
REMARK    2  A    between atoms: C4_6  and  O2_7 
REMARK    3  A    between atoms: C5_9  and  O3_10 
REMARK    4  A    between atoms: C6_12  and  N1_13 
REMARK    5  A    between atoms: N1_13  and  C7_16 
REMARK    6  A    between atoms: C8_17  and  O4_18 
REMARK    7  A    between atoms: C9_20  and  O5_21 
REMARK    8  A    between atoms: C10_23  and  O6_24 
REMARK    9  A    between atoms: O6_24  and  C11_25 
REMARK   10  A    between atoms: C12_26  and  C13_27 
REMARK   11  A    between atoms: C13_27  and  O7_28 
REMARK   12  A    between atoms: C15_32  and  O9_33 
REMARK   13  A    between atoms: C16_35  and  O10_36 
REMARK   14  A    between atoms: C19_41  and  O12_42 
ROOT
HETATM    1  C7  UNL     1     164.299  50.052  13.529  1.00  0.00     0.246 C 
HETATM    2  C8  UNL     1     165.786  50.070  13.616  1.00  0.00     0.184 C 
HETATM    3  C9  UNL     1     166.334  49.296  12.423  1.00  0.00     0.204 C 
HETATM    4  C10 UNL     1     165.813  50.026  11.205  1.00  0.00     0.292 C 
HETATM    5  O11 UNL     1     164.447  49.711  11.139  1.00  0.00    -0.351 OA
HETATM    6  C17 UNL     1     163.733  50.262  12.174  1.00  0.00     0.154 C 
HETATM    7  C18 UNL     1     163.436  51.751  11.952  1.00  0.00     0.042 C 
ENDROOT
BRANCH   1   8
HETATM    8  N1  UNL     1     163.825  48.836  14.171  1.00  0.00    -0.057 N 
ATOM      9  H12 UNL     1     164.578  48.157  14.281  1.00  0.00     0.278 HD
ATOM     10  H11 UNL     1     163.217  48.301  13.550  1.00  0.00     0.278 HD
BRANCH   8  11
HETATM   11  C6  UNL     1     163.174  49.110  15.437  1.00  0.00     0.246 C 
HETATM   12  C5  UNL     1     163.706  48.303  16.572  1.00  0.00     0.182 C 
HETATM   13  C4  UNL     1     163.056  46.931  16.556  1.00  0.00     0.178 C 
HETATM   14  C3  UNL     1     161.655  47.107  17.101  1.00  0.00     0.155 C 
HETATM   15  C2  UNL     1     161.061  48.386  16.583  1.00  0.00     0.044 C 
HETATM   16  C1  UNL     1     161.031  49.455  17.632  1.00  0.00     0.015 C 
HETATM   17  C19 UNL     1     161.709  48.854  15.297  1.00  0.00     0.157 C 
BRANCH  12  18
HETATM   18  O3  UNL     1     165.070  48.118  16.559  1.00  0.00    -0.391 OA
ATOM     19  H3  UNL     1     165.476  48.973  16.470  1.00  0.00     0.210 HD
ENDBRANCH  12  18
BRANCH  13  20
HETATM   20  O2  UNL     1     163.813  46.055  17.326  1.00  0.00    -0.390 OA
ATOM     21  H2  UNL     1     164.744  46.240  17.269  1.00  0.00     0.210 HD
ENDBRANCH  13  20
BRANCH  14  22
HETATM   22  O1  UNL     1     160.870  45.988  16.765  1.00  0.00    -0.392 OA
ATOM     23  H1  UNL     1     161.128  45.214  17.252  1.00  0.00     0.210 HD
ENDBRANCH  14  22
BRANCH  17  24
HETATM   24  O12 UNL     1     161.005  50.000  14.892  1.00  0.00    -0.393 OA
ATOM     25  H12 UNL     1     161.657  50.671  14.724  1.00  0.00     0.210 HD
ENDBRANCH  17  24
ENDBRANCH   8  11
ENDBRANCH   1   8
BRANCH   2  26
HETATM   26  O4  UNL     1     166.263  51.372  13.565  1.00  0.00    -0.391 OA
ATOM     27  H4  UNL     1     166.774  51.511  12.776  1.00  0.00     0.210 HD
ENDBRANCH   2  26
BRANCH   3  28
HETATM   28  O5  UNL     1     165.736  48.024  12.408  1.00  0.00    -0.388 OA
ATOM     29  H5  UNL     1     166.398  47.386  12.169  1.00  0.00     0.210 HD
ENDBRANCH   3  28
BRANCH   4  30
HETATM   30  O6  UNL     1     166.452  49.686  10.046  1.00  0.00    -0.348 OA
BRANCH  30  31
HETATM   31  C11 UNL     1     166.858  50.806   9.371  1.00  0.00     0.187 C 
HETATM   32  C12 UNL     1     166.411  50.857   7.933  1.00  0.00     0.176 C 
HETATM   33  O8  UNL     1     166.711  52.070   7.375  1.00  0.00    -0.378 OA
HETATM   34  C14 UNL     1     167.449  52.922   8.149  1.00  0.00     0.202 C 
HETATM   35  C15 UNL     1     168.670  52.304   8.770  1.00  0.00     0.173 C 
HETATM   36  C16 UNL     1     168.389  50.922   9.324  1.00  0.00     0.180 C 
BRANCH  32  37
HETATM   37  C13 UNL     1     164.972  50.445   7.751  1.00  0.00     0.198 C 
BRANCH  37  38
HETATM   38  O7  UNL     1     164.188  51.328   8.494  1.00  0.00    -0.398 OA
ATOM     39  H7  UNL     1     163.999  50.909   9.325  1.00  0.00     0.209 HD
ENDBRANCH  37  38
ENDBRANCH  32  37
BRANCH  35  40
HETATM   40  O9  UNL     1     169.705  52.313   7.860  1.00  0.00    -0.391 OA
ATOM     41  H9  UNL     1     169.846  51.433   7.530  1.00  0.00     0.210 HD
ENDBRANCH  35  40
BRANCH  36  42
HETATM   42  O10 UNL     1     168.968  50.691  10.543  1.00  0.00    -0.390 OA
ATOM     43  H10 UNL     1     169.738  50.138  10.479  1.00  0.00     0.210 HD
ENDBRANCH  36  42
ENDBRANCH  30  31
ENDBRANCH   4  30
TORSDOF 14
ENDMDL
