MODEL 7
REMARK VINA RESULT: -6.290591666      1.830      8.729
REMARK  14 active torsions:
REMARK  status: ('A' for Active; 'I' for Inactive)
REMARK    1  A    between atoms: C3_3  and  O1_4 
REMARK    2  A    between atoms: C4_6  and  O2_7 
REMARK    3  A    between atoms: C5_9  and  O3_10 
REMARK    4  A    between atoms: C6_12  and  N1_13 
REMARK    5  A    between atoms: N1_13  and  C7_16 
REMARK    6  A    between atoms: C8_17  and  O4_18 
REMARK    7  A    between atoms: C9_20  and  O5_21 
REMARK    8  A    between atoms: C10_23  and  O6_24 
REMARK    9  A    between atoms: O6_24  and  C11_25 
REMARK   10  A    between atoms: C12_26  and  C13_27 
REMARK   11  A    between atoms: C13_27  and  O7_28 
REMARK   12  A    between atoms: C15_32  and  O9_33 
REMARK   13  A    between atoms: C16_35  and  O10_36 
REMARK   14  A    between atoms: C19_41  and  O12_42 
ROOT
HETATM    1  C7  UNL     1     166.078  50.721  13.352  1.00  0.00     0.246 C 
HETATM    2  C8  UNL     1     164.664  50.964  12.950  1.00  0.00     0.184 C 
HETATM    3  C9  UNL     1     163.921  49.636  13.031  1.00  0.00     0.204 C 
HETATM    4  C10 UNL     1     164.050  49.196  14.472  1.00  0.00     0.292 C 
HETATM    5  O11 UNL     1     165.383  48.780  14.616  1.00  0.00    -0.351 OA
HETATM    6  C17 UNL     1     166.269  49.824  14.516  1.00  0.00     0.154 C 
HETATM    7  C18 UNL     1     166.350  50.646  15.809  1.00  0.00     0.042 C 
ENDROOT
BRANCH   1   8
HETATM    8  N1  UNL     1     166.816  50.302  12.171  1.00  0.00    -0.057 N 
ATOM      9  H12 UNL     1     166.228  49.754  11.542  1.00  0.00     0.278 HD
ATOM     10  H11 UNL     1     167.511  49.591  12.401  1.00  0.00     0.278 HD
BRANCH   8  11
HETATM   11  C6  UNL     1     167.420  51.425  11.482  1.00  0.00     0.246 C 
HETATM   12  C5  UNL     1     167.060  51.507  10.038  1.00  0.00     0.182 C 
HETATM   13  C4  UNL     1     167.953  50.565   9.247  1.00  0.00     0.178 C 
HETATM   14  C3  UNL     1     169.303  51.239   9.135  1.00  0.00     0.155 C 
HETATM   15  C2  UNL     1     169.645  51.922  10.429  1.00  0.00     0.044 C 
HETATM   16  C1  UNL     1     169.489  53.409  10.336  1.00  0.00     0.015 C 
HETATM   17  C19 UNL     1     168.906  51.334  11.613  1.00  0.00     0.157 C 
BRANCH  12  18
HETATM   18  O3  UNL     1     165.753  51.183   9.749  1.00  0.00    -0.391 OA
ATOM     19  H3  UNL     1     165.246  51.986   9.773  1.00  0.00     0.210 HD
ENDBRANCH  12  18
BRANCH  13  20
HETATM   20  O2  UNL     1     167.379  50.326   8.003  1.00  0.00    -0.390 OA
ATOM     21  H2  UNL     1     166.467  50.069   8.071  1.00  0.00     0.210 HD
ENDBRANCH  13  20
BRANCH  14  22
HETATM   22  O1  UNL     1     170.277  50.292   8.767  1.00  0.00    -0.392 OA
ATOM     23  H1  UNL     1     171.054  50.703   8.406  1.00  0.00     0.210 HD
ENDBRANCH  14  22
BRANCH  17  24
HETATM   24  O12 UNL     1     169.380  52.008  12.751  1.00  0.00    -0.393 OA
ATOM     25  H12 UNL     1     169.056  51.526  13.503  1.00  0.00     0.210 HD
ENDBRANCH  17  24
ENDBRANCH   8  11
ENDBRANCH   1   8
BRANCH   2  26
HETATM   26  O4  UNL     1     164.059  51.869  13.812  1.00  0.00    -0.391 OA
ATOM     27  H4  UNL     1     163.180  52.075  13.517  1.00  0.00     0.210 HD
ENDBRANCH   2  26
BRANCH   3  28
HETATM   28  O5  UNL     1     164.622  48.689  12.264  1.00  0.00    -0.388 OA
ATOM     29  H5  UNL     1     164.787  49.063  11.406  1.00  0.00     0.210 HD
ENDBRANCH   3  28
BRANCH   4  30
HETATM   30  O6  UNL     1     163.184  48.199  14.822  1.00  0.00    -0.348 OA
BRANCH  30  31
HETATM   31  C11 UNL     1     162.334  48.621  15.809  1.00  0.00     0.187 C 
HETATM   32  C12 UNL     1     162.354  47.765  17.049  1.00  0.00     0.176 C 
HETATM   33  O8  UNL     1     161.609  48.337  18.045  1.00  0.00    -0.378 OA
HETATM   34  C14 UNL     1     160.906  49.458  17.701  1.00  0.00     0.202 C 
HETATM   35  C15 UNL     1     160.100  49.330  16.439  1.00  0.00     0.173 C 
HETATM   36  C16 UNL     1     160.871  48.624  15.342  1.00  0.00     0.180 C 
BRANCH  32  37
HETATM   37  C13 UNL     1     163.748  47.384  17.478  1.00  0.00     0.198 C 
BRANCH  37  38
HETATM   38  O7  UNL     1     164.012  46.115  16.957  1.00  0.00    -0.398 OA
ATOM     39  H7  UNL     1     163.618  45.481  17.544  1.00  0.00     0.209 HD
ENDBRANCH  37  38
ENDBRANCH  32  37
BRANCH  35  40
HETATM   40  O9  UNL     1     158.896  48.721  16.720  1.00  0.00    -0.391 OA
ATOM     41  H9  UNL     1     158.392  48.629  15.921  1.00  0.00     0.210 HD
ENDBRANCH  35  40
BRANCH  36  42
HETATM   42  O10 UNL     1     160.718  49.197  14.107  1.00  0.00    -0.390 OA
ATOM     43  H10 UNL     1     160.569  50.134  14.159  1.00  0.00     0.210 HD
ENDBRANCH  36  42
ENDBRANCH  30  31
ENDBRANCH   4  30
TORSDOF 14
ENDMDL
