MODEL 5
REMARK VINA RESULT: -6.374895151      1.911      8.267
REMARK  14 active torsions:
REMARK  status: ('A' for Active; 'I' for Inactive)
REMARK    1  A    between atoms: C3_3  and  O1_4 
REMARK    2  A    between atoms: C4_6  and  O2_7 
REMARK    3  A    between atoms: C5_9  and  O3_10 
REMARK    4  A    between atoms: C6_12  and  N1_13 
REMARK    5  A    between atoms: N1_13  and  C7_16 
REMARK    6  A    between atoms: C8_17  and  O4_18 
REMARK    7  A    between atoms: C9_20  and  O5_21 
REMARK    8  A    between atoms: C10_23  and  O6_24 
REMARK    9  A    between atoms: O6_24  and  C11_25 
REMARK   10  A    between atoms: C12_26  and  C13_27 
REMARK   11  A    between atoms: C13_27  and  O7_28 
REMARK   12  A    between atoms: C15_32  and  O9_33 
REMARK   13  A    between atoms: C16_35  and  O10_36 
REMARK   14  A    between atoms: C19_41  and  O12_42 
ROOT
HETATM    1  C7  UNL     1     166.762  49.988  13.008  1.00  0.00     0.246 C 
HETATM    2  C8  UNL     1     166.381  51.289  13.625  1.00  0.00     0.184 C 
HETATM    3  C9  UNL     1     165.176  51.045  14.525  1.00  0.00     0.204 C 
HETATM    4  C10 UNL     1     165.643  50.031  15.545  1.00  0.00     0.292 C 
HETATM    5  O11 UNL     1     165.725  48.814  14.851  1.00  0.00    -0.351 OA
HETATM    6  C17 UNL     1     166.728  48.814  13.914  1.00  0.00     0.154 C 
HETATM    7  C18 UNL     1     168.111  48.590  14.539  1.00  0.00     0.042 C 
ENDROOT
BRANCH   1   8
HETATM    8  N1  UNL     1     165.969  49.811  11.802  1.00  0.00    -0.057 N 
ATOM      9  H12 UNL     1     164.975  49.737  12.021  1.00  0.00     0.278 HD
ATOM     10  H11 UNL     1     166.113  48.886  11.395  1.00  0.00     0.278 HD
BRANCH   8  11
HETATM   11  C6  UNL     1     166.217  50.858  10.831  1.00  0.00     0.246 C 
HETATM   12  C5  UNL     1     164.977  51.491  10.300  1.00  0.00     0.182 C 
HETATM   13  C4  UNL     1     164.410  50.622   9.190  1.00  0.00     0.178 C 
HETATM   14  C3  UNL     1     165.271  50.860   7.969  1.00  0.00     0.155 C 
HETATM   15  C2  UNL     1     166.714  50.969   8.372  1.00  0.00     0.044 C 
HETATM   16  C1  UNL     1     167.201  52.385   8.336  1.00  0.00     0.015 C 
HETATM   17  C19 UNL     1     167.005  50.290   9.695  1.00  0.00     0.157 C 
BRANCH  12  18
HETATM   18  O3  UNL     1     163.981  51.680  11.231  1.00  0.00    -0.391 OA
ATOM     19  H3  UNL     1     164.398  51.874  12.063  1.00  0.00     0.210 HD
ENDBRANCH  12  18
BRANCH  13  20
HETATM   20  O2  UNL     1     163.080  50.967   8.972  1.00  0.00    -0.390 OA
ATOM     21  H2  UNL     1     162.854  51.798   9.373  1.00  0.00     0.210 HD
ENDBRANCH  13  20
BRANCH  14  22
HETATM   22  O1  UNL     1     165.063  49.829   7.033  1.00  0.00    -0.392 OA
ATOM     23  H1  UNL     1     164.305  49.299   7.252  1.00  0.00     0.210 HD
ENDBRANCH  14  22
BRANCH  17  24
HETATM   24  O12 UNL     1     168.390  50.400   9.901  1.00  0.00    -0.393 OA
ATOM     25  H12 UNL     1     168.547  50.157  10.807  1.00  0.00     0.210 HD
ENDBRANCH  17  24
ENDBRANCH   8  11
ENDBRANCH   1   8
BRANCH   2  26
HETATM   26  O4  UNL     1     167.422  51.790  14.394  1.00  0.00    -0.391 OA
ATOM     27  H4  UNL     1     167.233  51.689  15.320  1.00  0.00     0.210 HD
ENDBRANCH   2  26
BRANCH   3  28
HETATM   28  O5  UNL     1     164.178  50.410  13.766  1.00  0.00    -0.388 OA
ATOM     29  H5  UNL     1     163.636  49.897  14.354  1.00  0.00     0.210 HD
ENDBRANCH   3  28
BRANCH   4  30
HETATM   30  O6  UNL     1     164.819  49.924  16.630  1.00  0.00    -0.348 OA
BRANCH  30  31
HETATM   31  C11 UNL     1     164.814  48.641  17.110  1.00  0.00     0.187 C 
HETATM   32  C12 UNL     1     163.442  48.100  17.415  1.00  0.00     0.176 C 
HETATM   33  O8  UNL     1     163.504  46.770  17.731  1.00  0.00    -0.378 OA
HETATM   34  C14 UNL     1     164.757  46.236  17.838  1.00  0.00     0.202 C 
HETATM   35  C15 UNL     1     165.706  47.031  18.691  1.00  0.00     0.173 C 
HETATM   36  C16 UNL     1     165.600  48.519  18.423  1.00  0.00     0.180 C 
BRANCH  32  37
HETATM   37  C13 UNL     1     162.431  48.423  16.344  1.00  0.00     0.198 C 
BRANCH  37  38
HETATM   38  O7  UNL     1     162.971  48.012  15.124  1.00  0.00    -0.398 OA
ATOM     39  H7  UNL     1     162.248  47.889  14.521  1.00  0.00     0.209 HD
ENDBRANCH  37  38
ENDBRANCH  32  37
BRANCH  35  40
HETATM   40  O9  UNL     1     165.510  46.714  20.018  1.00  0.00    -0.391 OA
ATOM     41  H9  UNL     1     166.169  47.145  20.549  1.00  0.00     0.210 HD
ENDBRANCH  35  40
BRANCH  36  42
HETATM   42  O10 UNL     1     166.812  49.154  18.368  1.00  0.00    -0.390 OA
ATOM     43  H10 UNL     1     167.253  49.166  19.210  1.00  0.00     0.210 HD
ENDBRANCH  36  42
ENDBRANCH  30  31
ENDBRANCH   4  30
TORSDOF 14
ENDMDL
