MODEL 1
REMARK VINA RESULT: -6.950937486      0.000      0.000
REMARK  6 active torsions:
REMARK  status: ('A' for Active; 'I' for Inactive)
REMARK    1  A    between atoms: N5_13  and  C6_14 
REMARK    2  A    between atoms: C7_16  and  C8_17 
REMARK    3  A    between atoms: C8_17  and  O2_18 
REMARK    4  A    between atoms: O2_18  and  P1_19 
REMARK    5  A    between atoms: C9_23  and  O6_24 
REMARK    6  A    between atoms: C10_26  and  O7_27 
ROOT
HETATM    1  C6  UNL     1      34.171   2.116  10.556  1.00  0.00     0.262 C 
HETATM    2  O1  UNL     1      32.810   2.222  10.579  1.00  0.00    -0.353 OA
HETATM    3  C7  UNL     1      32.386   3.112   9.637  1.00  0.00     0.180 C 
HETATM    4  C9  UNL     1      33.599   3.787   9.032  1.00  0.00     0.182 C 
HETATM    5  C10 UNL     1      34.679   2.776   9.305  1.00  0.00     0.198 C 
ENDROOT
BRANCH   1   6
HETATM    6  N5  UNL     1      34.555   0.742  10.645  1.00  0.00    -0.297 N 
HETATM    7  C3  UNL     1      34.722  -0.035  11.749  1.00  0.00     0.142 A 
HETATM    8  N3  UNL     1      34.576   0.274  13.037  1.00  0.00    -0.336 N 
HETATM    9  C4  UNL     1      35.101  -1.314  11.372  1.00  0.00     0.119 A 
HETATM   10  C2  UNL     1      34.803  -0.686  13.952  1.00  0.00     0.183 A 
ATOM     11  H3  UNL     1      34.298   1.213  13.322  1.00  0.00     0.168 HD
HETATM   12  N2  UNL     1      35.176  -1.948  13.608  1.00  0.00    -0.339 N 
HETATM   13  C1  UNL     1      35.334  -2.298  12.319  1.00  0.00     0.148 A 
ATOM     14  H2  UNL     1      35.337  -2.641  14.340  1.00  0.00     0.167 HD
HETATM   15  N1  UNL     1      35.721  -3.598  11.895  1.00  0.00    -0.080 NA
HETATM   16  N4  UNL     1      35.157  -1.290  10.034  1.00  0.00    -0.346 N 
HETATM   17  C5  UNL     1      34.830  -0.061   9.602  1.00  0.00     0.188 A 
ATOM     18  H4  UNL     1      35.408  -2.080   9.440  1.00  0.00     0.167 HD
ENDBRANCH   1   6
BRANCH   5  19
HETATM   19  O7  UNL     1      35.881   3.448   9.490  1.00  0.00    -0.388 OA
ATOM     20  H7  UNL     1      36.601   3.067   9.001  1.00  0.00     0.210 HD
ENDBRANCH   5  19
BRANCH   3  21
HETATM   21  C8  UNL     1      31.716   2.353   8.492  1.00  0.00     0.217 C 
BRANCH  21  22
HETATM   22  O2  UNL     1      30.788   3.126   7.902  1.00  0.00    -0.280 OA
BRANCH  22  23
HETATM   23  P1  UNL     1      29.307   3.286   8.469  1.00  0.00     0.422 P 
HETATM   24  O3  UNL     1      28.993   4.195   9.858  1.00  0.00    -0.617 OA
HETATM   25  O4  UNL     1      28.025   2.360   7.903  1.00  0.00    -0.617 OA
HETATM   26  O5  UNL     1      28.911   4.460   7.592  1.00  0.00    -0.617 OA
ENDBRANCH  22  23
ENDBRANCH  21  22
ENDBRANCH   3  21
BRANCH   4  27
HETATM   27  O6  UNL     1      33.875   4.930   9.755  1.00  0.00    -0.390 OA
ATOM     28  H6  UNL     1      34.517   5.443   9.278  1.00  0.00     0.210 HD
ENDBRANCH   4  27
TORSDOF 6
ENDMDL
