MODEL 3
REMARK VINA RESULT: -5.973722600      4.466      6.469
REMARK  6 active torsions:
REMARK  status: ('A' for Active; 'I' for Inactive)
REMARK    1  A    between atoms: N5_13  and  C6_14 
REMARK    2  A    between atoms: C7_16  and  C8_17 
REMARK    3  A    between atoms: C8_17  and  O2_18 
REMARK    4  A    between atoms: O2_18  and  P1_19 
REMARK    5  A    between atoms: C9_23  and  O6_24 
REMARK    6  A    between atoms: C10_26  and  O7_27 
ROOT
HETATM    1  C6  UNL     1      29.183   4.420   6.453  1.00  0.00     0.262 C 
HETATM    2  O1  UNL     1      28.253   4.184   7.425  1.00  0.00    -0.353 OA
HETATM    3  C7  UNL     1      27.191   3.500   6.912  1.00  0.00     0.180 C 
HETATM    4  C9  UNL     1      27.358   3.408   5.409  1.00  0.00     0.182 C 
HETATM    5  C10 UNL     1      28.845   3.575   5.257  1.00  0.00     0.198 C 
ENDROOT
BRANCH   1   6
HETATM    6  N5  UNL     1      30.494   4.155   6.958  1.00  0.00    -0.297 N 
HETATM    7  C3  UNL     1      30.863   3.515   8.100  1.00  0.00     0.142 A 
HETATM    8  N3  UNL     1      30.106   2.966   9.051  1.00  0.00    -0.336 N 
HETATM    9  C4  UNL     1      32.245   3.482   8.197  1.00  0.00     0.119 A 
HETATM   10  C2  UNL     1      30.721   2.385  10.097  1.00  0.00     0.183 A 
ATOM     11  H3  UNL     1      29.089   2.987   8.987  1.00  0.00     0.168 HD
HETATM   12  N2  UNL     1      32.075   2.339  10.215  1.00  0.00    -0.339 N 
HETATM   13  C1  UNL     1      32.871   2.881   9.277  1.00  0.00     0.148 A 
ATOM     14  H2  UNL     1      32.493   1.886  11.028  1.00  0.00     0.167 HD
HETATM   15  N1  UNL     1      34.291   2.867   9.342  1.00  0.00    -0.080 NA
HETATM   16  N4  UNL     1      32.694   4.108   7.102  1.00  0.00    -0.346 N 
HETATM   17  C5  UNL     1      31.647   4.509   6.363  1.00  0.00     0.188 A 
ATOM     18  H4  UNL     1      33.676   4.257   6.867  1.00  0.00     0.167 HD
ENDBRANCH   1   6
BRANCH   5  19
HETATM   19  O7  UNL     1      29.100   4.211   4.048  1.00  0.00    -0.388 OA
ATOM     20  H7  UNL     1      29.708   3.736   3.496  1.00  0.00     0.210 HD
ENDBRANCH   5  19
BRANCH   3  21
HETATM   21  C8  UNL     1      27.225   2.059   7.424  1.00  0.00     0.217 C 
BRANCH  21  22
HETATM   22  O2  UNL     1      25.997   1.516   7.363  1.00  0.00    -0.280 OA
BRANCH  22  23
HETATM   23  P1  UNL     1      25.575   0.233   8.209  1.00  0.00     0.422 P 
HETATM   24  O3  UNL     1      24.057   0.129   8.946  1.00  0.00    -0.617 OA
HETATM   25  O4  UNL     1      26.678  -0.953   8.652  1.00  0.00    -0.617 OA
HETATM   26  O5  UNL     1      25.081  -0.594   7.037  1.00  0.00    -0.617 OA
ENDBRANCH  22  23
ENDBRANCH  21  22
ENDBRANCH   3  21
BRANCH   4  27
HETATM   27  O6  UNL     1      26.733   4.493   4.829  1.00  0.00    -0.390 OA
ATOM     28  H6  UNL     1      27.223   4.748   4.056  1.00  0.00     0.210 HD
ENDBRANCH   4  27
TORSDOF 6
ENDMDL
