MODEL 2
REMARK VINA RESULT: -6.020025444      7.193      9.080
REMARK  6 active torsions:
REMARK  status: ('A' for Active; 'I' for Inactive)
REMARK    1  A    between atoms: N5_13  and  C6_14 
REMARK    2  A    between atoms: C7_16  and  C8_17 
REMARK    3  A    between atoms: C8_17  and  O2_18 
REMARK    4  A    between atoms: O2_18  and  P1_19 
REMARK    5  A    between atoms: C9_23  and  O6_24 
REMARK    6  A    between atoms: C10_26  and  O7_27 
ROOT
HETATM    1  C6  UNL     1      26.922   2.047   7.519  1.00  0.00     0.262 C 
HETATM    2  O1  UNL     1      26.315   3.051   6.820  1.00  0.00    -0.353 OA
HETATM    3  C7  UNL     1      27.237   3.958   6.391  1.00  0.00     0.180 C 
HETATM    4  C9  UNL     1      28.578   3.607   7.002  1.00  0.00     0.182 C 
HETATM    5  C10 UNL     1      28.406   2.142   7.295  1.00  0.00     0.198 C 
ENDROOT
BRANCH   1   6
HETATM    6  N5  UNL     1      26.388   0.782   7.120  1.00  0.00    -0.297 N 
HETATM    7  C3  UNL     1      25.090   0.381   7.045  1.00  0.00     0.142 A 
HETATM    8  N3  UNL     1      23.974   1.056   7.322  1.00  0.00    -0.336 N 
HETATM    9  C4  UNL     1      25.027  -0.932   6.608  1.00  0.00     0.119 A 
HETATM   10  C2  UNL     1      22.795   0.426   7.165  1.00  0.00     0.183 A 
ATOM     11  H3  UNL     1      24.013   2.022   7.645  1.00  0.00     0.168 HD
HETATM   12  N2  UNL     1      22.706  -0.861   6.738  1.00  0.00    -0.339 N 
HETATM   13  C1  UNL     1      23.810  -1.574   6.449  1.00  0.00     0.148 A 
ATOM     14  H2  UNL     1      21.788  -1.294   6.635  1.00  0.00     0.167 HD
HETATM   15  N1  UNL     1      23.784  -2.922   5.999  1.00  0.00    -0.080 NA
HETATM   16  N4  UNL     1      26.299  -1.309   6.424  1.00  0.00    -0.346 N 
HETATM   17  C5  UNL     1      27.111  -0.283   6.730  1.00  0.00     0.188 A 
ATOM     18  H4  UNL     1      26.602  -2.228   6.103  1.00  0.00     0.167 HD
ENDBRANCH   1   6
BRANCH   5  19
HETATM   19  O7  UNL     1      29.150   1.823   8.424  1.00  0.00    -0.388 OA
ATOM     20  H7  UNL     1      28.684   1.264   9.033  1.00  0.00     0.210 HD
ENDBRANCH   5  19
BRANCH   3  21
HETATM   21  C8  UNL     1      27.417   3.818   4.879  1.00  0.00     0.217 C 
BRANCH  21  22
HETATM   22  O2  UNL     1      26.413   3.094   4.357  1.00  0.00    -0.280 OA
BRANCH  22  23
HETATM   23  P1  UNL     1      26.649   1.909   3.317  1.00  0.00     0.422 P 
HETATM   24  O3  UNL     1      27.261   2.208   1.771  1.00  0.00    -0.617 OA
HETATM   25  O4  UNL     1      26.059   0.358   3.575  1.00  0.00    -0.617 OA
HETATM   26  O5  UNL     1      28.031   1.518   3.807  1.00  0.00    -0.617 OA
ENDBRANCH  22  23
ENDBRANCH  21  22
ENDBRANCH   3  21
BRANCH   4  27
HETATM   27  O6  UNL     1      28.708   4.282   8.199  1.00  0.00    -0.390 OA
ATOM     28  H6  UNL     1      28.316   5.142   8.107  1.00  0.00     0.210 HD
ENDBRANCH   4  27
TORSDOF 6
ENDMDL
