MODEL 7
REMARK VINA RESULT: -4.552414440      6.711      8.825
REMARK  3 active torsions:
REMARK  status: ('A' for Active; 'I' for Inactive)
REMARK    1  A    between atoms: C1_2  and  C2_4 
REMARK    2  A    between atoms: C2_4  and  N1_5 
REMARK       I    between atoms: N1_5  and  C3_7 
REMARK    3  A    between atoms: C3_7  and  C4_9 
ROOT
HETATM    1  N1  UNL     1      39.867  51.522  13.000  1.00  0.00    -0.342 N 
ATOM      2  H1  UNL     1      40.062  50.530  13.131  1.00  0.00     0.163 HD
HETATM    3  C3  UNL     1      40.641  52.467  13.724  1.00  0.00     0.318 C 
HETATM    4  O3  UNL     1      40.359  53.680  13.527  1.00  0.00    -0.261 OA
ENDROOT
BRANCH   1   5
HETATM    5  C2  UNL     1      38.812  51.904  12.084  1.00  0.00     0.236 C 
BRANCH   5   6
HETATM    6  C1  UNL     1      39.347  52.258  10.762  1.00  0.00     0.191 C 
HETATM    7  O1  UNL     1      39.925  51.385  10.075  1.00  0.00    -0.647 OA
HETATM    8  O2  UNL     1      39.213  53.544  10.282  1.00  0.00    -0.647 OA
ENDBRANCH   5   6
ENDBRANCH   1   5
BRANCH   3   9
HETATM    9  C4  UNL     1      41.702  52.067  14.644  1.00  0.00     0.270 C 
HETATM   10  O4  UNL     1      42.460  52.886  15.199  1.00  0.00    -0.640 OA
HETATM   11  O5  UNL     1      41.869  50.720  14.907  1.00  0.00    -0.640 OA
ENDBRANCH   3   9
TORSDOF 3
ENDMDL
