MODEL 4
REMARK VINA RESULT: -4.723066253      1.811      2.551
REMARK  3 active torsions:
REMARK  status: ('A' for Active; 'I' for Inactive)
REMARK    1  A    between atoms: C1_2  and  C2_4 
REMARK    2  A    between atoms: C2_4  and  N1_5 
REMARK       I    between atoms: N1_5  and  C3_7 
REMARK    3  A    between atoms: C3_7  and  C4_9 
ROOT
HETATM    1  N1  UNL     1      45.138  54.517  18.625  1.00  0.00    -0.342 N 
ATOM      2  H1  UNL     1      44.479  55.264  18.844  1.00  0.00     0.163 HD
HETATM    3  C3  UNL     1      45.317  54.150  17.265  1.00  0.00     0.318 C 
HETATM    4  O3  UNL     1      46.143  53.221  17.049  1.00  0.00    -0.261 OA
ENDROOT
BRANCH   1   5
HETATM    5  C2  UNL     1      45.848  53.880  19.715  1.00  0.00     0.236 C 
BRANCH   5   6
HETATM    6  C1  UNL     1      46.535  54.865  20.562  1.00  0.00     0.191 C 
HETATM    7  O1  UNL     1      46.717  56.027  20.134  1.00  0.00    -0.647 OA
HETATM    8  O2  UNL     1      46.977  54.510  21.819  1.00  0.00    -0.647 OA
ENDBRANCH   5   6
ENDBRANCH   1   5
BRANCH   3   9
HETATM    9  C4  UNL     1      44.595  54.801  16.177  1.00  0.00     0.270 C 
HETATM   10  O4  UNL     1      43.384  55.086  16.244  1.00  0.00    -0.640 OA
HETATM   11  O5  UNL     1      45.290  55.113  15.022  1.00  0.00    -0.640 OA
ENDBRANCH   3   9
TORSDOF 3
ENDMDL
