MODEL 10
REMARK VINA RESULT: -4.435316641      2.723      4.348
REMARK  3 active torsions:
REMARK  status: ('A' for Active; 'I' for Inactive)
REMARK    1  A    between atoms: C1_2  and  C2_4 
REMARK    2  A    between atoms: C2_4  and  N1_5 
REMARK       I    between atoms: N1_5  and  C3_7 
REMARK    3  A    between atoms: C3_7  and  C4_9 
ROOT
HETATM    1  N1  UNL     1      42.899  53.711  17.048  1.00  0.00    -0.342 N 
ATOM      2  H1  UNL     1      42.778  53.432  18.021  1.00  0.00     0.163 HD
HETATM    3  C3  UNL     1      44.200  54.070  16.604  1.00  0.00     0.318 C 
HETATM    4  O3  UNL     1      44.296  54.409  15.393  1.00  0.00    -0.261 OA
ENDROOT
BRANCH   1   5
HETATM    5  C2  UNL     1      41.739  53.725  16.182  1.00  0.00     0.236 C 
BRANCH   5   6
HETATM    6  C1  UNL     1      41.021  55.005  16.259  1.00  0.00     0.191 C 
HETATM    7  O1  UNL     1      41.017  55.647  17.334  1.00  0.00    -0.647 OA
HETATM    8  O2  UNL     1      40.356  55.494  15.155  1.00  0.00    -0.647 OA
ENDBRANCH   5   6
ENDBRANCH   1   5
BRANCH   3   9
HETATM    9  C4  UNL     1      45.361  54.052  17.488  1.00  0.00     0.270 C 
HETATM   10  O4  UNL     1      46.108  53.061  17.604  1.00  0.00    -0.640 OA
HETATM   11  O5  UNL     1      45.640  55.186  18.228  1.00  0.00    -0.640 OA
ENDBRANCH   3   9
TORSDOF 3
ENDMDL
