MODEL 5
REMARK VINA RESULT: -4.718512237      1.408      1.913
REMARK  3 active torsions:
REMARK  status: ('A' for Active; 'I' for Inactive)
REMARK    1  A    between atoms: C1_2  and  C2_4 
REMARK    2  A    between atoms: C2_4  and  N1_5 
REMARK       I    between atoms: N1_5  and  C3_7 
REMARK    3  A    between atoms: C3_7  and  C4_9 
ROOT
HETATM    1  N1  UNL     1      45.426  55.344  18.149  1.00  0.00    -0.342 N 
ATOM      2  H1  UNL     1      44.985  56.236  17.925  1.00  0.00     0.163 HD
HETATM    3  C3  UNL     1      45.456  54.333  17.151  1.00  0.00     0.318 C 
HETATM    4  O3  UNL     1      46.011  53.250  17.479  1.00  0.00    -0.261 OA
ENDROOT
BRANCH   1   5
HETATM    5  C2  UNL     1      45.993  55.165  19.469  1.00  0.00     0.236 C 
BRANCH   5   6
HETATM    6  C1  UNL     1      45.969  56.415  20.242  1.00  0.00     0.191 C 
HETATM    7  O1  UNL     1      45.922  56.368  21.492  1.00  0.00    -0.647 OA
HETATM    8  O2  UNL     1      45.996  57.631  19.592  1.00  0.00    -0.647 OA
ENDBRANCH   5   6
ENDBRANCH   1   5
BRANCH   3   9
HETATM    9  C4  UNL     1      44.880  54.528  15.824  1.00  0.00     0.270 C 
HETATM   10  O4  UNL     1      45.422  55.229  14.948  1.00  0.00    -0.640 OA
HETATM   11  O5  UNL     1      43.680  53.905  15.531  1.00  0.00    -0.640 OA
ENDBRANCH   3   9
TORSDOF 3
ENDMDL
