MODEL 9
REMARK VINA RESULT: -4.438302527      1.139      4.527
REMARK  3 active torsions:
REMARK  status: ('A' for Active; 'I' for Inactive)
REMARK    1  A    between atoms: C1_2  and  C2_4 
REMARK    2  A    between atoms: C2_4  and  N1_5 
REMARK       I    between atoms: N1_5  and  C3_7 
REMARK    3  A    between atoms: C3_7  and  C4_9 
ROOT
HETATM    1  N1  UNL     1      45.626  55.523  18.167  1.00  0.00    -0.342 N 
ATOM      2  H1  UNL     1      46.428  56.124  17.976  1.00  0.00     0.163 HD
HETATM    3  C3  UNL     1      44.774  55.857  19.253  1.00  0.00     0.318 C 
HETATM    4  O3  UNL     1      43.798  55.082  19.447  1.00  0.00    -0.261 OA
ENDROOT
BRANCH   1   5
HETATM    5  C2  UNL     1      45.408  54.370  17.319  1.00  0.00     0.236 C 
BRANCH   5   6
HETATM    6  C1  UNL     1      44.690  54.731  16.089  1.00  0.00     0.191 C 
HETATM    7  O1  UNL     1      43.441  54.660  16.059  1.00  0.00    -0.647 OA
HETATM    8  O2  UNL     1      45.389  55.145  14.974  1.00  0.00    -0.647 OA
ENDBRANCH   5   6
ENDBRANCH   1   5
BRANCH   3   9
HETATM    9  C4  UNL     1      45.005  57.023  20.099  1.00  0.00     0.270 C 
HETATM   10  O4  UNL     1      44.175  57.944  20.224  1.00  0.00    -0.640 OA
HETATM   11  O5  UNL     1      46.201  57.105  20.791  1.00  0.00    -0.640 OA
ENDBRANCH   3   9
TORSDOF 3
ENDMDL
