MODEL 2
REMARK VINA RESULT: -8.466982731      5.419      7.662
REMARK  6 active torsions:
REMARK  status: ('A' for Active; 'I' for Inactive)
REMARK    1  A    between atoms: C4_6  and  C5_7 
REMARK    2  A    between atoms: C5_7  and  N2_8 
REMARK    3  A    between atoms: C7_11  and  C8_12 
REMARK    4  A    between atoms: C8_12  and  C9_13 
REMARK    5  A    between atoms: C9_13  and  O1_14 
REMARK    6  A    between atoms: O1_14  and  P1_15 
ROOT
HETATM    1  N2  UNL     1       7.339  49.974 111.390  1.00  0.00    -0.349 N 
HETATM    2  C6  UNL     1       8.596  50.006 110.926  1.00  0.00     0.141 A 
HETATM    3  S1  UNL     1       9.030  51.650 111.045  1.00  0.00    -0.087 SA
HETATM    4  C7  UNL     1       7.572  52.240 111.691  1.00  0.00     0.008 A 
HETATM    5  C10 UNL     1       6.808  51.116 111.785  1.00  0.00     0.021 A 
HETATM    6  C11 UNL     1       5.402  51.213 112.360  1.00  0.00     0.069 C 
ENDROOT
BRANCH   1   7
HETATM    7  C5  UNL     1       6.605  48.681 111.458  1.00  0.00     0.172 C 
BRANCH   7   8
HETATM    8  C4  UNL     1       7.385  47.587 110.850  1.00  0.00     0.017 A 
HETATM    9  C3  UNL     1       7.729  47.680 109.490  1.00  0.00     0.101 A 
HETATM   10  N1  UNL     1       8.447  46.715 108.908  1.00  0.00    -0.355 N 
HETATM   11  C2  UNL     1       8.882  45.617 109.550  1.00  0.00     0.078 A 
ATOM     12  H1  UNL     1       8.679  46.816 107.920  1.00  0.00     0.166 HD
HETATM   13  C1  UNL     1       9.683  44.576 108.848  1.00  0.00     0.089 C 
HETATM   14  N4  UNL     1       8.551  45.528 110.841  1.00  0.00    -0.334 N 
HETATM   15  C12 UNL     1       7.829  46.462 111.501  1.00  0.00     0.127 A 
ATOM     16  H4  UNL     1       8.863  44.708 111.360  1.00  0.00     0.168 HD
HETATM   17  N3  UNL     1       7.497  46.287 112.864  1.00  0.00    -0.082 NA
ENDBRANCH   7   8
ENDBRANCH   1   7
BRANCH   4  18
HETATM   18  C8  UNL     1       7.275  53.659 112.024  1.00  0.00     0.075 C 
BRANCH  18  19
HETATM   19  C9  UNL     1       8.191  54.592 111.314  1.00  0.00     0.187 C 
BRANCH  19  20
HETATM   20  O1  UNL     1       9.194  55.151 112.054  1.00  0.00    -0.282 OA
BRANCH  20  21
HETATM   21  P1  UNL     1      10.397  55.676 110.981  1.00  0.00     0.422 P 
HETATM   22  O2  UNL     1      10.092  57.072 110.455  1.00  0.00    -0.617 OA
HETATM   23  O3  UNL     1      11.867  55.773 111.811  1.00  0.00    -0.617 OA
HETATM   24  O4  UNL     1      10.536  54.647 109.659  1.00  0.00    -0.617 OA
ENDBRANCH  20  21
ENDBRANCH  19  20
ENDBRANCH  18  19
ENDBRANCH   4  18
TORSDOF 6
ENDMDL
