MODEL 1
REMARK VINA RESULT: -8.528739591      0.000      0.000
REMARK  6 active torsions:
REMARK  status: ('A' for Active; 'I' for Inactive)
REMARK    1  A    between atoms: C4_6  and  C5_7 
REMARK    2  A    between atoms: C5_7  and  N2_8 
REMARK    3  A    between atoms: C7_11  and  C8_12 
REMARK    4  A    between atoms: C8_12  and  C9_13 
REMARK    5  A    between atoms: C9_13  and  O1_14 
REMARK    6  A    between atoms: O1_14  and  P1_15 
ROOT
HETATM    1  N2  UNL     1       7.945  48.886 110.187  1.00  0.00    -0.349 N 
HETATM    2  C6  UNL     1       7.584  49.265 108.954  1.00  0.00     0.141 A 
HETATM    3  S1  UNL     1       7.735  47.839 108.032  1.00  0.00    -0.087 SA
HETATM    4  C7  UNL     1       8.260  46.802 109.273  1.00  0.00     0.008 A 
HETATM    5  C10 UNL     1       8.292  47.625 110.359  1.00  0.00     0.021 A 
HETATM    6  C11 UNL     1       8.694  47.059 111.714  1.00  0.00     0.069 C 
ENDROOT
BRANCH   1   7
HETATM    7  C5  UNL     1       7.930  49.873 111.302  1.00  0.00     0.172 C 
BRANCH   7   8
HETATM    8  C4  UNL     1       6.583  49.999 111.890  1.00  0.00     0.017 A 
HETATM    9  C3  UNL     1       5.982  48.857 112.448  1.00  0.00     0.101 A 
HETATM   10  N1  UNL     1       4.768  48.936 113.003  1.00  0.00    -0.355 N 
HETATM   11  C2  UNL     1       4.050  50.070 113.070  1.00  0.00     0.078 A 
ATOM     12  H1  UNL     1       4.364  48.087 113.398  1.00  0.00     0.166 HD
HETATM   13  C1  UNL     1       2.703  50.096 113.706  1.00  0.00     0.089 C 
HETATM   14  N4  UNL     1       4.621  51.153 112.537  1.00  0.00    -0.334 N 
HETATM   15  C12 UNL     1       5.844  51.155 111.959  1.00  0.00     0.127 A 
ATOM     16  H4  UNL     1       4.105  52.032 112.568  1.00  0.00     0.168 HD
HETATM   17  N3  UNL     1       6.373  52.337 111.393  1.00  0.00    -0.082 NA
ENDBRANCH   7   8
ENDBRANCH   1   7
BRANCH   4  18
HETATM   18  C8  UNL     1       8.602  45.362 109.123  1.00  0.00     0.075 C 
BRANCH  18  19
HETATM   19  C9  UNL     1       9.738  45.164 108.183  1.00  0.00     0.187 C 
BRANCH  19  20
HETATM   20  O1  UNL     1       9.421  44.961 106.869  1.00  0.00    -0.282 OA
BRANCH  20  21
HETATM   21  P1  UNL     1      10.741  45.470 105.935  1.00  0.00     0.422 P 
HETATM   22  O2  UNL     1      10.757  44.772 104.582  1.00  0.00    -0.617 OA
HETATM   23  O3  UNL     1      10.590  47.127 105.632  1.00  0.00    -0.617 OA
HETATM   24  O4  UNL     1      12.201  45.144 106.701  1.00  0.00    -0.617 OA
ENDBRANCH  20  21
ENDBRANCH  19  20
ENDBRANCH  18  19
ENDBRANCH   4  18
TORSDOF 6
ENDMDL
