MODEL 5
REMARK VINA RESULT: -8.401403726      5.432      7.618
REMARK  6 active torsions:
REMARK  status: ('A' for Active; 'I' for Inactive)
REMARK    1  A    between atoms: C4_6  and  C5_7 
REMARK    2  A    between atoms: C5_7  and  N2_8 
REMARK    3  A    between atoms: C7_11  and  C8_12 
REMARK    4  A    between atoms: C8_12  and  C9_13 
REMARK    5  A    between atoms: C9_13  and  O1_14 
REMARK    6  A    between atoms: O1_14  and  P1_15 
ROOT
HETATM    1  N2  UNL     1       7.397  50.158 111.207  1.00  0.00    -0.349 N 
HETATM    2  C6  UNL     1       8.680  50.190 110.822  1.00  0.00     0.141 A 
HETATM    3  S1  UNL     1       9.144  51.808 111.090  1.00  0.00    -0.087 SA
HETATM    4  C7  UNL     1       7.663  52.389 111.691  1.00  0.00     0.008 A 
HETATM    5  C10 UNL     1       6.869  51.282 111.654  1.00  0.00     0.021 A 
HETATM    6  C11 UNL     1       5.432  51.375 112.150  1.00  0.00     0.069 C 
ENDROOT
BRANCH   1   7
HETATM    7  C5  UNL     1       6.631  48.884 111.134  1.00  0.00     0.172 C 
BRANCH   7   8
HETATM    8  C4  UNL     1       7.498  47.756 110.744  1.00  0.00     0.017 A 
HETATM    9  C3  UNL     1       8.051  46.952 111.755  1.00  0.00     0.101 A 
HETATM   10  N1  UNL     1       8.830  45.912 111.439  1.00  0.00    -0.355 N 
HETATM   11  C2  UNL     1       9.137  45.565 110.177  1.00  0.00     0.078 A 
ATOM     12  H1  UNL     1       9.214  45.351 112.199  1.00  0.00     0.166 HD
HETATM   13  C1  UNL     1      10.007  44.391 109.888  1.00  0.00     0.089 C 
HETATM   14  N4  UNL     1       8.612  46.332 109.218  1.00  0.00    -0.334 N 
HETATM   15  C12 UNL     1       7.815  47.399 109.456  1.00  0.00     0.127 A 
ATOM     16  H4  UNL     1       8.824  46.099 108.249  1.00  0.00     0.168 HD
HETATM   17  N3  UNL     1       7.316  48.179 108.389  1.00  0.00    -0.082 NA
ENDBRANCH   7   8
ENDBRANCH   1   7
BRANCH   4  18
HETATM   18  C8  UNL     1       7.378  53.787 112.111  1.00  0.00     0.075 C 
BRANCH  18  19
HETATM   19  C9  UNL     1       8.258  54.760 111.410  1.00  0.00     0.187 C 
BRANCH  19  20
HETATM   20  O1  UNL     1       9.350  55.208 112.097  1.00  0.00    -0.282 OA
BRANCH  20  21
HETATM   21  P1  UNL     1      10.492  55.740 110.963  1.00  0.00     0.422 P 
HETATM   22  O2  UNL     1      10.124  57.112 110.415  1.00  0.00    -0.617 OA
HETATM   23  O3  UNL     1      11.991  55.902 111.729  1.00  0.00    -0.617 OA
HETATM   24  O4  UNL     1      10.609  54.680 109.663  1.00  0.00    -0.617 OA
ENDBRANCH  20  21
ENDBRANCH  19  20
ENDBRANCH  18  19
ENDBRANCH   4  18
TORSDOF 6
ENDMDL
