MODEL 4
REMARK VINA RESULT: -8.419971396      1.845      3.190
REMARK  6 active torsions:
REMARK  status: ('A' for Active; 'I' for Inactive)
REMARK    1  A    between atoms: C4_6  and  C5_7 
REMARK    2  A    between atoms: C5_7  and  N2_8 
REMARK    3  A    between atoms: C7_11  and  C8_12 
REMARK    4  A    between atoms: C8_12  and  C9_13 
REMARK    5  A    between atoms: C9_13  and  O1_14 
REMARK    6  A    between atoms: O1_14  and  P1_15 
ROOT
HETATM    1  N2  UNL     1       7.462  48.934 110.359  1.00  0.00    -0.349 N 
HETATM    2  C6  UNL     1       7.372  49.329 109.082  1.00  0.00     0.141 A 
HETATM    3  S1  UNL     1       7.941  47.985 108.202  1.00  0.00    -0.087 SA
HETATM    4  C7  UNL     1       8.277  46.958 109.515  1.00  0.00     0.008 A 
HETATM    5  C10 UNL     1       7.924  47.719 110.589  1.00  0.00     0.021 A 
HETATM    6  C11 UNL     1       8.048  47.138 111.991  1.00  0.00     0.069 C 
ENDROOT
BRANCH   1   7
HETATM    7  C5  UNL     1       7.035  49.850 111.452  1.00  0.00     0.172 C 
BRANCH   7   8
HETATM    8  C4  UNL     1       7.648  51.184 111.307  1.00  0.00     0.017 A 
HETATM    9  C3  UNL     1       8.899  51.284 110.674  1.00  0.00     0.101 A 
HETATM   10  N1  UNL     1       9.479  52.478 110.512  1.00  0.00    -0.355 N 
HETATM   11  C2  UNL     1       8.934  53.635 110.925  1.00  0.00     0.078 A 
ATOM     12  H1  UNL     1      10.387  52.513 110.048  1.00  0.00     0.166 HD
HETATM   13  C1  UNL     1       9.628  54.936 110.712  1.00  0.00     0.089 C 
HETATM   14  N4  UNL     1       7.747  53.537 111.528  1.00  0.00    -0.334 N 
HETATM   15  C12 UNL     1       7.096  52.368 111.729  1.00  0.00     0.127 A 
ATOM     16  H4  UNL     1       7.304  54.395 111.857  1.00  0.00     0.168 HD
HETATM   17  N3  UNL     1       5.852  52.341 112.399  1.00  0.00    -0.082 NA
ENDBRANCH   7   8
ENDBRANCH   1   7
BRANCH   4  18
HETATM   18  C8  UNL     1       8.838  45.584 109.429  1.00  0.00     0.075 C 
BRANCH  18  19
HETATM   19  C9  UNL     1       8.962  45.130 108.017  1.00  0.00     0.187 C 
BRANCH  19  20
HETATM   20  O1  UNL     1      10.223  45.090 107.492  1.00  0.00    -0.282 OA
BRANCH  20  21
HETATM   21  P1  UNL     1      10.115  45.518 105.855  1.00  0.00     0.422 P 
HETATM   22  O2  UNL     1      11.021  44.644 104.999  1.00  0.00    -0.617 OA
HETATM   23  O3  UNL     1       8.531  45.255 105.324  1.00  0.00    -0.617 OA
HETATM   24  O4  UNL     1      10.560  47.120 105.607  1.00  0.00    -0.617 OA
ENDBRANCH  20  21
ENDBRANCH  19  20
ENDBRANCH  18  19
ENDBRANCH   4  18
TORSDOF 6
ENDMDL
