MODEL 3
REMARK VINA RESULT: -8.465979107      1.611      2.886
REMARK  6 active torsions:
REMARK  status: ('A' for Active; 'I' for Inactive)
REMARK    1  A    between atoms: C4_6  and  C5_7 
REMARK    2  A    between atoms: C5_7  and  N2_8 
REMARK    3  A    between atoms: C7_11  and  C8_12 
REMARK    4  A    between atoms: C8_12  and  C9_13 
REMARK    5  A    between atoms: C9_13  and  O1_14 
REMARK    6  A    between atoms: O1_14  and  P1_15 
ROOT
HETATM    1  N2  UNL     1       7.720  48.383 109.936  1.00  0.00    -0.349 N 
HETATM    2  C6  UNL     1       7.557  49.146 108.848  1.00  0.00     0.141 A 
HETATM    3  S1  UNL     1       8.055  48.137 107.567  1.00  0.00    -0.087 SA
HETATM    4  C7  UNL     1       8.457  46.762 108.484  1.00  0.00     0.008 A 
HETATM    5  C10 UNL     1       8.180  47.159 109.758  1.00  0.00     0.021 A 
HETATM    6  C11 UNL     1       8.382  46.180 110.906  1.00  0.00     0.069 C 
ENDROOT
BRANCH   1   7
HETATM    7  C5  UNL     1       7.370  48.920 111.280  1.00  0.00     0.172 C 
BRANCH   7   8
HETATM    8  C4  UNL     1       7.577  50.379 111.346  1.00  0.00     0.017 A 
HETATM    9  C3  UNL     1       8.883  50.881 111.214  1.00  0.00     0.101 A 
HETATM   10  N1  UNL     1       9.107  52.199 111.254  1.00  0.00    -0.355 N 
HETATM   11  C2  UNL     1       8.138  53.116 111.418  1.00  0.00     0.078 A 
ATOM     12  H1  UNL     1      10.068  52.527 111.155  1.00  0.00     0.166 HD
HETATM   13  C1  UNL     1       8.450  54.572 111.450  1.00  0.00     0.089 C 
HETATM   14  N4  UNL     1       6.898  52.637 111.546  1.00  0.00    -0.334 N 
HETATM   15  C12 UNL     1       6.591  51.320 111.515  1.00  0.00     0.127 A 
ATOM     16  H4  UNL     1       6.138  53.304 111.673  1.00  0.00     0.168 HD
HETATM   17  N3  UNL     1       5.256  50.887 111.682  1.00  0.00    -0.082 NA
ENDBRANCH   7   8
ENDBRANCH   1   7
BRANCH   4  18
HETATM   18  C8  UNL     1       8.996  45.483 107.950  1.00  0.00     0.075 C 
BRANCH  18  19
HETATM   19  C9  UNL     1       9.332  45.591 106.504  1.00  0.00     0.187 C 
BRANCH  19  20
HETATM   20  O1  UNL     1      10.398  44.858 106.064  1.00  0.00    -0.282 OA
BRANCH  20  21
HETATM   21  P1  UNL     1      11.575  45.942 105.505  1.00  0.00     0.422 P 
HETATM   22  O2  UNL     1      11.065  47.375 105.545  1.00  0.00    -0.617 OA
HETATM   23  O3  UNL     1      12.918  45.868 106.530  1.00  0.00    -0.617 OA
HETATM   24  O4  UNL     1      12.025  45.599 103.922  1.00  0.00    -0.617 OA
ENDBRANCH  20  21
ENDBRANCH  19  20
ENDBRANCH  18  19
ENDBRANCH   4  18
TORSDOF 6
ENDMDL
