MODEL 2
REMARK VINA RESULT: -5.932045542      3.481      6.157
REMARK  5 active torsions:
REMARK  status: ('A' for Active; 'I' for Inactive)
REMARK    1  A    between atoms: S1_2  and  C2_3 
REMARK    2  A    between atoms: C2_3  and  C3_4 
REMARK    3  A    between atoms: C4_6  and  N1_7 
REMARK    4  A    between atoms: C11_19  and  O2_20 
REMARK    5  A    between atoms: C12_22  and  O3_23 
ROOT
HETATM    1  C3  UNL     1      16.401  -0.783  -2.079  1.00  0.00     0.165 C 
HETATM    2  O1  UNL     1      15.099  -1.068  -1.724  1.00  0.00    -0.355 OA
HETATM    3  C4  UNL     1      14.586   0.204  -1.463  1.00  0.00     0.261 C 
HETATM    4  C11 UNL     1      15.597   0.715  -0.456  1.00  0.00     0.198 C 
HETATM    5  C12 UNL     1      16.898   0.305  -1.152  1.00  0.00     0.180 C 
ENDROOT
BRANCH   3   6
HETATM    6  N1  UNL     1      13.249   0.176  -0.961  1.00  0.00    -0.312 N 
HETATM    7  C5  UNL     1      12.283   1.041  -1.342  1.00  0.00     0.096 A 
HETATM    8  C6  UNL     1      11.091   0.775  -0.692  1.00  0.00     0.036 A 
HETATM    9  C7  UNL     1      11.340  -0.305   0.129  1.00  0.00     0.051 A 
HETATM   10  C8  UNL     1      10.517  -0.978   0.989  1.00  0.00     0.131 A 
HETATM   11  C10 UNL     1      12.663  -0.633  -0.068  1.00  0.00     0.124 A 
HETATM   12  N2  UNL     1       9.168  -0.578   1.135  1.00  0.00    -0.082 NA
HETATM   13  N3  UNL     1      11.062  -2.014   1.668  1.00  0.00    -0.340 N 
HETATM   14  C9  UNL     1      12.345  -2.341   1.484  1.00  0.00     0.183 A 
ATOM     15  H3  UNL     1      10.492  -2.549   2.323  1.00  0.00     0.167 HD
HETATM   16  N4  UNL     1      13.164  -1.667   0.623  1.00  0.00    -0.338 N 
ATOM     17  H4  UNL     1      14.139  -1.944   0.509  1.00  0.00     0.168 HD
ENDBRANCH   3   6
BRANCH   4  18
HETATM   18  O2  UNL     1      15.521   2.081  -0.284  1.00  0.00    -0.388 OA
ATOM     19  H2  UNL     1      15.989   2.557  -0.960  1.00  0.00     0.210 HD
ENDBRANCH   4  18
BRANCH   1  20
HETATM   20  C2  UNL     1      17.318  -1.976  -2.027  1.00  0.00     0.108 C 
BRANCH  20  21
HETATM   21  S1  UNL     1      18.098  -2.183  -0.417  1.00  0.00    -0.171 SA
HETATM   22  C1  UNL     1      16.862  -2.908   0.708  1.00  0.00     0.089 C 
ENDBRANCH  20  21
ENDBRANCH   1  20
BRANCH   5  23
HETATM   23  O3  UNL     1      17.323   1.391  -1.934  1.00  0.00    -0.390 OA
ATOM     24  H3  UNL     1      17.368   2.160  -1.378  1.00  0.00     0.210 HD
ENDBRANCH   5  23
TORSDOF 5
ENDMDL
