MODEL 3
REMARK VINA RESULT: -5.837169703      3.539      5.968
REMARK  5 active torsions:
REMARK  status: ('A' for Active; 'I' for Inactive)
REMARK    1  A    between atoms: S1_2  and  C2_3 
REMARK    2  A    between atoms: C2_3  and  C3_4 
REMARK    3  A    between atoms: C4_6  and  N1_7 
REMARK    4  A    between atoms: C11_19  and  O2_20 
REMARK    5  A    between atoms: C12_22  and  O3_23 
ROOT
HETATM    1  C3  UNL     1      16.370  -0.657  -2.372  1.00  0.00     0.165 C 
HETATM    2  O1  UNL     1      15.076  -0.961  -2.002  1.00  0.00    -0.355 OA
HETATM    3  C4  UNL     1      14.590   0.286  -1.603  1.00  0.00     0.261 C 
HETATM    4  C11 UNL     1      15.641   0.686  -0.586  1.00  0.00     0.198 C 
HETATM    5  C12 UNL     1      16.912   0.330  -1.361  1.00  0.00     0.180 C 
ENDROOT
BRANCH   3   6
HETATM    6  N1  UNL     1      13.270   0.226  -1.062  1.00  0.00    -0.312 N 
HETATM    7  C5  UNL     1      12.280   1.083  -1.393  1.00  0.00     0.096 A 
HETATM    8  C6  UNL     1      11.112   0.783  -0.714  1.00  0.00     0.036 A 
HETATM    9  C7  UNL     1      11.403  -0.311   0.073  1.00  0.00     0.051 A 
HETATM   10  C8  UNL     1      10.617  -1.017   0.942  1.00  0.00     0.131 A 
HETATM   11  C10 UNL     1      12.724  -0.614  -0.171  1.00  0.00     0.124 A 
HETATM   12  N2  UNL     1       9.267  -0.642   1.138  1.00  0.00    -0.082 NA
HETATM   13  N3  UNL     1      11.198  -2.060   1.579  1.00  0.00    -0.340 N 
HETATM   14  C9  UNL     1      12.479  -2.361   1.349  1.00  0.00     0.183 A 
ATOM     15  H3  UNL     1      10.656  -2.619   2.239  1.00  0.00     0.167 HD
HETATM   16  N4  UNL     1      13.262  -1.654   0.480  1.00  0.00    -0.338 N 
ATOM     17  H4  UNL     1      14.236  -1.914   0.330  1.00  0.00     0.168 HD
ENDBRANCH   3   6
BRANCH   4  18
HETATM   18  O2  UNL     1      15.591   2.030  -0.281  1.00  0.00    -0.388 OA
ATOM     19  H2  UNL     1      16.380   2.490  -0.544  1.00  0.00     0.210 HD
ENDBRANCH   4  18
BRANCH   1  20
HETATM   20  C2  UNL     1      17.271  -1.860  -2.465  1.00  0.00     0.108 C 
BRANCH  20  21
HETATM   21  S1  UNL     1      17.628  -2.330  -4.166  1.00  0.00    -0.171 SA
HETATM   22  C1  UNL     1      16.164  -1.928  -5.173  1.00  0.00     0.089 C 
ENDBRANCH  20  21
ENDBRANCH   1  20
BRANCH   5  23
HETATM   23  O3  UNL     1      17.328   1.481  -2.050  1.00  0.00    -0.390 OA
ATOM     24  H3  UNL     1      17.602   1.224  -2.923  1.00  0.00     0.210 HD
ENDBRANCH   5  23
TORSDOF 5
ENDMDL
