MODEL 1
REMARK VINA RESULT: -6.350689869      0.000      0.000
REMARK  5 active torsions:
REMARK  status: ('A' for Active; 'I' for Inactive)
REMARK    1  A    between atoms: S1_2  and  C2_3 
REMARK    2  A    between atoms: C2_3  and  C3_4 
REMARK    3  A    between atoms: C4_6  and  N1_7 
REMARK    4  A    between atoms: C11_19  and  O2_20 
REMARK    5  A    between atoms: C12_22  and  O3_23 
ROOT
HETATM    1  C3  UNL     1      10.262  -0.524  -0.431  1.00  0.00     0.165 C 
HETATM    2  O1  UNL     1      11.488  -1.141  -0.562  1.00  0.00    -0.355 OA
HETATM    3  C4  UNL     1      11.519  -1.965   0.565  1.00  0.00     0.261 C 
HETATM    4  C11 UNL     1      11.244  -0.954   1.661  1.00  0.00     0.198 C 
HETATM    5  C12 UNL     1      10.074  -0.191   1.033  1.00  0.00     0.180 C 
ENDROOT
BRANCH   3   6
HETATM    6  N1  UNL     1      12.761  -2.651   0.724  1.00  0.00    -0.312 N 
HETATM    7  C5  UNL     1      12.867  -3.932   1.142  1.00  0.00     0.096 A 
HETATM    8  C6  UNL     1      14.190  -4.330   1.201  1.00  0.00     0.036 A 
HETATM    9  C7  UNL     1      14.932  -3.238   0.800  1.00  0.00     0.051 A 
HETATM   10  C8  UNL     1      16.284  -3.079   0.673  1.00  0.00     0.131 A 
HETATM   11  C10 UNL     1      14.022  -2.243   0.522  1.00  0.00     0.124 A 
HETATM   12  N2  UNL     1      17.155  -4.151   0.980  1.00  0.00    -0.082 NA
HETATM   13  N3  UNL     1      16.718  -1.868   0.250  1.00  0.00    -0.340 N 
HETATM   14  C9  UNL     1      15.842  -0.897  -0.023  1.00  0.00     0.183 A 
ATOM     15  H3  UNL     1      17.717  -1.697   0.139  1.00  0.00     0.167 HD
HETATM   16  N4  UNL     1      14.492  -1.059   0.105  1.00  0.00    -0.338 N 
ATOM     17  H4  UNL     1      13.853  -0.294  -0.113  1.00  0.00     0.168 HD
ENDBRANCH   3   6
BRANCH   4  18
HETATM   18  O2  UNL     1      10.882  -1.554   2.848  1.00  0.00    -0.388 OA
ATOM     19  H2  UNL     1       9.952  -1.743   2.888  1.00  0.00     0.210 HD
ENDBRANCH   4  18
BRANCH   1  20
HETATM   20  C2  UNL     1      10.115   0.715  -1.273  1.00  0.00     0.108 C 
BRANCH  20  21
HETATM   21  S1  UNL     1      11.203   0.714  -2.708  1.00  0.00    -0.171 SA
HETATM   22  C1  UNL     1      10.196   0.301  -4.169  1.00  0.00     0.089 C 
ENDBRANCH  20  21
ENDBRANCH   1  20
BRANCH   5  23
HETATM   23  O3  UNL     1       8.886  -0.796   1.473  1.00  0.00    -0.390 OA
ATOM     24  H3  UNL     1       8.550  -0.295   2.208  1.00  0.00     0.210 HD
ENDBRANCH   5  23
TORSDOF 5
ENDMDL
