MODEL 1
REMARK VINA RESULT: -7.568265889      0.000      0.000
REMARK  7 active torsions:
REMARK  status: ('A' for Active; 'I' for Inactive)
REMARK    1  A    between atoms: C1_2  and  C2_4 
REMARK    2  A    between atoms: N1_8  and  C6_9 
REMARK    3  A    between atoms: C7_11  and  C8_12 
REMARK    4  A    between atoms: C8_12  and  O4_13 
REMARK    5  A    between atoms: O4_13  and  P1_14 
REMARK    6  A    between atoms: C9_18  and  O8_19 
REMARK    7  A    between atoms: C10_21  and  O9_22 
ROOT
HETATM    1  C6  UNL     1      20.786 -30.764  15.206  1.00  0.00     0.255 C 
HETATM    2  O3  UNL     1      21.250 -30.889  16.556  1.00  0.00    -0.354 OA
HETATM    3  C7  UNL     1      20.550 -29.914  17.152  1.00  0.00     0.180 C 
HETATM    4  C9  UNL     1      19.097 -30.061  16.534  1.00  0.00     0.182 C 
HETATM    5  C10 UNL     1      19.364 -31.138  15.454  1.00  0.00     0.198 C 
ENDROOT
BRANCH   1   6
HETATM    6  N1  UNL     1      21.576 -31.484  14.310  1.00  0.00    -0.357 N 
HETATM    7  C5  UNL     1      22.972 -31.236  14.170  1.00  0.00     0.088 C 
HETATM    8  C4  UNL     1      23.819 -32.201  13.866  1.00  0.00     0.018 C 
HETATM    9  C3  UNL     1      23.271 -33.527  13.639  1.00  0.00     0.017 C 
HETATM   10  C2  UNL     1      21.993 -33.760  13.678  1.00  0.00     0.036 C 
HETATM   11  C11 UNL     1      20.992 -32.636  13.621  1.00  0.00     0.170 C 
BRANCH  10  12
HETATM   12  C1  UNL     1      21.494 -35.138  13.494  1.00  0.00     0.206 C 
HETATM   13  O1  UNL     1      20.291 -35.437  13.375  1.00  0.00    -0.644 OA
HETATM   14  O2  UNL     1      22.484 -36.139  13.465  1.00  0.00    -0.644 OA
ENDBRANCH  10  12
ENDBRANCH   1   6
BRANCH   5  15
HETATM   15  O9  UNL     1      18.542 -30.877  14.360  1.00  0.00    -0.388 OA
ATOM     16  H9  UNL     1      17.622 -30.836  14.595  1.00  0.00     0.210 HD
ENDBRANCH   5  15
BRANCH   3  17
HETATM   17  C8  UNL     1      20.257 -30.172  18.690  1.00  0.00     0.217 C 
BRANCH  17  18
HETATM   18  O4  UNL     1      21.292 -30.940  19.056  1.00  0.00    -0.280 OA
BRANCH  18  19
HETATM   19  P1  UNL     1      22.439 -30.580  20.110  1.00  0.00     0.422 P 
HETATM   20  O5  UNL     1      23.160 -29.143  20.191  1.00  0.00    -0.617 OA
HETATM   21  O6  UNL     1      21.217 -30.218  21.067  1.00  0.00    -0.617 OA
HETATM   22  O7  UNL     1      23.460 -31.299  19.288  1.00  0.00    -0.617 OA
ENDBRANCH  18  19
ENDBRANCH  17  18
ENDBRANCH   3  17
BRANCH   4  23
HETATM   23  O8  UNL     1      18.641 -28.945  15.942  1.00  0.00    -0.390 OA
ATOM     24  H8  UNL     1      17.693 -28.890  15.899  1.00  0.00     0.210 HD
ENDBRANCH   4  23
TORSDOF 7
ENDMDL
