MODEL 2
REMARK VINA RESULT: -7.461425122      0.844      1.071
REMARK  7 active torsions:
REMARK  status: ('A' for Active; 'I' for Inactive)
REMARK    1  A    between atoms: C1_2  and  C2_4 
REMARK    2  A    between atoms: N1_8  and  C6_9 
REMARK    3  A    between atoms: C7_11  and  C8_12 
REMARK    4  A    between atoms: C8_12  and  O4_13 
REMARK    5  A    between atoms: O4_13  and  P1_14 
REMARK    6  A    between atoms: C9_18  and  O8_19 
REMARK    7  A    between atoms: C10_21  and  O9_22 
ROOT
HETATM    1  C6  UNL     1      21.319 -31.034  14.680  1.00  0.00     0.255 C 
HETATM    2  O3  UNL     1      21.523 -31.258  16.080  1.00  0.00    -0.354 OA
HETATM    3  C7  UNL     1      21.156 -30.071  16.580  1.00  0.00     0.180 C 
HETATM    4  C9  UNL     1      19.845 -29.707  15.766  1.00  0.00     0.182 C 
HETATM    5  C10 UNL     1      19.839 -30.854  14.726  1.00  0.00     0.198 C 
ENDROOT
BRANCH   1   6
HETATM    6  N1  UNL     1      21.901 -32.031  13.898  1.00  0.00    -0.357 N 
HETATM    7  C5  UNL     1      23.312 -32.121  13.720  1.00  0.00     0.088 C 
HETATM    8  C4  UNL     1      23.917 -33.282  13.559  1.00  0.00     0.018 C 
HETATM    9  C3  UNL     1      23.084 -34.472  13.529  1.00  0.00     0.017 C 
HETATM   10  C2  UNL     1      21.789 -34.409  13.604  1.00  0.00     0.036 C 
HETATM   11  C11 UNL     1      21.056 -33.110  13.385  1.00  0.00     0.170 C 
BRANCH  10  12
HETATM   12  C1  UNL     1      20.994 -35.654  13.624  1.00  0.00     0.206 C 
HETATM   13  O1  UNL     1      21.298 -36.668  14.279  1.00  0.00    -0.644 OA
HETATM   14  O2  UNL     1      19.832 -35.640  12.829  1.00  0.00    -0.644 OA
ENDBRANCH  10  12
ENDBRANCH   1   6
BRANCH   5  15
HETATM   15  O9  UNL     1      19.322 -30.361  13.530  1.00  0.00    -0.388 OA
ATOM     16  H9  UNL     1      19.641 -29.491  13.325  1.00  0.00     0.210 HD
ENDBRANCH   5  15
BRANCH   3  17
HETATM   17  C8  UNL     1      20.590 -30.136  18.061  1.00  0.00     0.217 C 
BRANCH  17  18
HETATM   18  O4  UNL     1      21.417 -31.011  18.648  1.00  0.00    -0.280 OA
BRANCH  18  19
HETATM   19  P1  UNL     1      22.378 -30.746  19.897  1.00  0.00     0.422 P 
HETATM   20  O5  UNL     1      23.037 -29.315  20.231  1.00  0.00    -0.617 OA
HETATM   21  O6  UNL     1      21.014 -30.499  20.685  1.00  0.00    -0.617 OA
HETATM   22  O7  UNL     1      23.534 -31.363  19.177  1.00  0.00    -0.617 OA
ENDBRANCH  18  19
ENDBRANCH  17  18
ENDBRANCH   3  17
BRANCH   4  23
HETATM   23  O8  UNL     1      19.911 -28.529  15.124  1.00  0.00    -0.390 OA
ATOM     24  H8  UNL     1      19.089 -28.053  15.104  1.00  0.00     0.210 HD
ENDBRANCH   4  23
TORSDOF 7
ENDMDL
