MODEL 3
REMARK VINA RESULT: -7.355233828      2.557      4.063
REMARK  7 active torsions:
REMARK  status: ('A' for Active; 'I' for Inactive)
REMARK    1  A    between atoms: C1_2  and  C2_4 
REMARK    2  A    between atoms: N1_8  and  C6_9 
REMARK    3  A    between atoms: C7_11  and  C8_12 
REMARK    4  A    between atoms: C8_12  and  O4_13 
REMARK    5  A    between atoms: O4_13  and  P1_14 
REMARK    6  A    between atoms: C9_18  and  O8_19 
REMARK    7  A    between atoms: C10_21  and  O9_22 
ROOT
HETATM    1  C6  UNL     1      21.142 -31.711  18.228  1.00  0.00     0.255 C 
HETATM    2  O3  UNL     1      20.284 -31.001  19.129  1.00  0.00    -0.354 OA
HETATM    3  C7  UNL     1      20.487 -31.688  20.261  1.00  0.00     0.180 C 
HETATM    4  C9  UNL     1      22.054 -31.921  20.285  1.00  0.00     0.182 C 
HETATM    5  C10 UNL     1      22.437 -31.376  18.887  1.00  0.00     0.198 C 
ENDROOT
BRANCH   1   6
HETATM    6  N1  UNL     1      20.901 -31.372  16.896  1.00  0.00    -0.357 N 
HETATM    7  C5  UNL     1      20.708 -30.021  16.485  1.00  0.00     0.088 C 
HETATM    8  C4  UNL     1      21.089 -29.599  15.296  1.00  0.00     0.018 C 
HETATM    9  C3  UNL     1      21.680 -30.575  14.396  1.00  0.00     0.017 C 
HETATM   10  C2  UNL     1      21.789 -31.829  14.715  1.00  0.00     0.036 C 
HETATM   11  C11 UNL     1      21.016 -32.411  15.871  1.00  0.00     0.170 C 
BRANCH  10  12
HETATM   12  C1  UNL     1      22.448 -32.768  13.785  1.00  0.00     0.206 C 
HETATM   13  O1  UNL     1      21.871 -33.718  13.224  1.00  0.00    -0.644 OA
HETATM   14  O2  UNL     1      23.818 -32.531  13.559  1.00  0.00    -0.644 OA
ENDBRANCH  10  12
ENDBRANCH   1   6
BRANCH   5  15
HETATM   15  O9  UNL     1      23.500 -32.130  18.396  1.00  0.00    -0.388 OA
ATOM     16  H9  UNL     1      24.317 -31.946  18.845  1.00  0.00     0.210 HD
ENDBRANCH   5  15
BRANCH   3  17
HETATM   17  C8  UNL     1      20.282 -30.835  21.584  1.00  0.00     0.217 C 
BRANCH  17  18
HETATM   18  O4  UNL     1      21.220 -31.336  22.397  1.00  0.00    -0.280 OA
BRANCH  18  19
HETATM   19  P1  UNL     1      20.993 -32.239  23.697  1.00  0.00     0.422 P 
HETATM   20  O5  UNL     1      21.213 -31.709  25.202  1.00  0.00    -0.617 OA
HETATM   21  O6  UNL     1      19.478 -31.760  23.563  1.00  0.00    -0.617 OA
HETATM   22  O7  UNL     1      22.314 -32.909  23.499  1.00  0.00    -0.617 OA
ENDBRANCH  18  19
ENDBRANCH  17  18
ENDBRANCH   3  17
BRANCH   4  23
HETATM   23  O8  UNL     1      22.412 -33.214  20.368  1.00  0.00    -0.390 OA
ATOM     24  H8  UNL     1      23.160 -33.372  20.932  1.00  0.00     0.210 HD
ENDBRANCH   4  23
TORSDOF 7
ENDMDL
