MODEL 5
REMARK VINA RESULT: -5.389441860      3.502      5.510
REMARK  5 active torsions:
REMARK  status: ('A' for Active; 'I' for Inactive)
REMARK    1  A    between atoms: C4_9  and  C5_10 
REMARK    2  A    between atoms: C6_12  and  C7_13 
REMARK    3  A    between atoms: C7_13  and  O2_14 
REMARK    4  A    between atoms: C8_16  and  O3_17 
REMARK    5  A    between atoms: C9_19  and  O4_20 
ROOT
HETATM    1  N1  UNL     1     -26.433 -14.507 -21.043  1.00  0.00    -0.080 NA
HETATM    2  C1  UNL     1     -25.408 -15.021 -21.872  1.00  0.00     0.147 A 
HETATM    3  N2  UNL     1     -25.131 -14.554 -23.107  1.00  0.00    -0.339 N 
ATOM      4  H2  UNL     1     -25.669 -13.755 -23.442  1.00  0.00     0.167 HD
HETATM    5  C2  UNL     1     -24.202 -15.063 -23.927  1.00  0.00     0.182 A 
HETATM    6  N3  UNL     1     -23.449 -16.128 -23.528  1.00  0.00    -0.349 N 
ATOM      7  H3  UNL     1     -22.737 -16.532 -24.138  1.00  0.00     0.167 HD
HETATM    8  C3  UNL     1     -23.683 -16.628 -22.294  1.00  0.00     0.091 A 
HETATM    9  C4  UNL     1     -23.002 -17.661 -21.660  1.00  0.00     0.086 A 
HETATM   10  N4  UNL     1     -23.566 -17.734 -20.424  1.00  0.00    -0.299 N 
ATOM     11  H4  UNL     1     -23.292 -18.392 -19.696  1.00  0.00     0.186 HD
HETATM   12  N5  UNL     1     -24.538 -16.813 -20.303  1.00  0.00    -0.295 N 
ATOM     13  H5  UNL     1     -25.112 -16.671 -19.471  1.00  0.00     0.187 HD
HETATM   14  C10 UNL     1     -24.640 -16.098 -21.462  1.00  0.00     0.118 A 
ENDROOT
BRANCH   9  15
HETATM   15  C5  UNL     1     -22.061 -18.587 -22.251  1.00  0.00     0.207 C 
HETATM   16  O1  UNL     1     -21.029 -17.801 -22.889  1.00  0.00    -0.367 OA
HETATM   17  C6  UNL     1     -20.387 -18.535 -23.821  1.00  0.00     0.177 C 
HETATM   18  C8  UNL     1     -21.147 -19.885 -23.903  1.00  0.00     0.180 C 
HETATM   19  C9  UNL     1     -22.533 -19.309 -23.520  1.00  0.00     0.184 C 
BRANCH  17  20
HETATM   20  C7  UNL     1     -20.347 -17.980 -25.221  1.00  0.00     0.198 C 
BRANCH  20  21
HETATM   21  O2  UNL     1     -19.177 -17.320 -25.549  1.00  0.00    -0.398 OA
ATOM     22  H2  UNL     1     -18.565 -17.829 -26.067  1.00  0.00     0.209 HD
ENDBRANCH  20  21
ENDBRANCH  17  20
BRANCH  18  23
HETATM   23  O3  UNL     1     -20.652 -20.631 -22.827  1.00  0.00    -0.390 OA
ATOM     24  H3  UNL     1     -21.426 -20.886 -22.340  1.00  0.00     0.210 HD
ENDBRANCH  18  23
BRANCH  19  25
HETATM   25  O4  UNL     1     -23.372 -20.389 -23.189  1.00  0.00    -0.390 OA
ATOM     26  H4  UNL     1     -23.702 -20.807 -23.976  1.00  0.00     0.210 HD
ENDBRANCH  19  25
ENDBRANCH   9  15
TORSDOF 5
ENDMDL
