MODEL 7
REMARK VINA RESULT: -5.300644552      3.404      6.050
REMARK  5 active torsions:
REMARK  status: ('A' for Active; 'I' for Inactive)
REMARK    1  A    between atoms: C4_9  and  C5_10 
REMARK    2  A    between atoms: C6_12  and  C7_13 
REMARK    3  A    between atoms: C7_13  and  O2_14 
REMARK    4  A    between atoms: C8_16  and  O3_17 
REMARK    5  A    between atoms: C9_19  and  O4_20 
ROOT
HETATM    1  N1  UNL     1     -22.571 -19.022 -16.756  1.00  0.00    -0.080 NA
HETATM    2  C1  UNL     1     -23.069 -18.821 -18.066  1.00  0.00     0.147 A 
HETATM    3  N2  UNL     1     -24.312 -18.371 -18.339  1.00  0.00    -0.339 N 
ATOM      4  H2  UNL     1     -24.909 -18.123 -17.551  1.00  0.00     0.167 HD
HETATM    5  C2  UNL     1     -24.818 -18.226 -19.571  1.00  0.00     0.182 A 
HETATM    6  N3  UNL     1     -24.061 -18.536 -20.662  1.00  0.00    -0.349 N 
ATOM      7  H3  UNL     1     -24.428 -18.435 -21.608  1.00  0.00     0.167 HD
HETATM    8  C3  UNL     1     -22.805 -18.983 -20.440  1.00  0.00     0.091 A 
HETATM    9  C4  UNL     1     -21.842 -19.299 -21.392  1.00  0.00     0.086 A 
HETATM   10  N4  UNL     1     -20.740 -19.629 -20.666  1.00  0.00    -0.299 N 
ATOM     11  H4  UNL     1     -19.843 -19.909 -21.062  1.00  0.00     0.186 HD
HETATM   12  N5  UNL     1     -21.004 -19.534 -19.352  1.00  0.00    -0.295 N 
ATOM     13  H5  UNL     1     -20.339 -19.733 -18.603  1.00  0.00     0.187 HD
HETATM   14  C10 UNL     1     -22.296 -19.130 -19.171  1.00  0.00     0.118 A 
ENDROOT
BRANCH   9  15
HETATM   15  C5  UNL     1     -22.032 -19.451 -22.818  1.00  0.00     0.207 C 
HETATM   16  O1  UNL     1     -20.744 -19.774 -23.390  1.00  0.00    -0.367 OA
HETATM   17  C6  UNL     1     -20.730 -19.491 -24.709  1.00  0.00     0.177 C 
HETATM   18  C8  UNL     1     -22.082 -18.793 -25.013  1.00  0.00     0.180 C 
HETATM   19  C9  UNL     1     -22.248 -18.155 -23.611  1.00  0.00     0.184 C 
BRANCH  17  20
HETATM   20  C7  UNL     1     -19.649 -18.562 -25.198  1.00  0.00     0.198 C 
BRANCH  20  21
HETATM   21  O2  UNL     1     -19.693 -18.285 -26.551  1.00  0.00    -0.398 OA
ATOM     22  H2  UNL     1     -18.890 -18.473 -27.022  1.00  0.00     0.209 HD
ENDBRANCH  20  21
ENDBRANCH  17  20
BRANCH  18  23
HETATM   23  O3  UNL     1     -22.997 -19.845 -25.144  1.00  0.00    -0.390 OA
ATOM     24  H3  UNL     1     -23.826 -19.417 -25.320  1.00  0.00     0.210 HD
ENDBRANCH  18  23
BRANCH  19  25
HETATM   25  O4  UNL     1     -23.582 -17.721 -23.490  1.00  0.00    -0.390 OA
ATOM     26  H4  UNL     1     -23.685 -17.174 -22.720  1.00  0.00     0.210 HD
ENDBRANCH  19  25
ENDBRANCH   9  15
TORSDOF 5
ENDMDL
