MODEL 1
REMARK VINA RESULT: -7.812010477      0.000      0.000
REMARK  5 active torsions:
REMARK  status: ('A' for Active; 'I' for Inactive)
REMARK    1  A    between atoms: C4_9  and  C5_10 
REMARK    2  A    between atoms: C6_12  and  C7_13 
REMARK    3  A    between atoms: C7_13  and  O2_14 
REMARK    4  A    between atoms: C8_16  and  O3_17 
REMARK    5  A    between atoms: C9_19  and  O4_20 
ROOT
HETATM    1  N1  UNL     1     -20.161 -20.088 -27.632  1.00  0.00    -0.080 NA
HETATM    2  C1  UNL     1     -20.241 -19.452 -26.370  1.00  0.00     0.147 A 
HETATM    3  N2  UNL     1     -19.336 -18.560 -25.917  1.00  0.00    -0.339 N 
ATOM      4  H2  UNL     1     -18.573 -18.301 -26.542  1.00  0.00     0.167 HD
HETATM    5  C2  UNL     1     -19.366 -17.990 -24.705  1.00  0.00     0.182 A 
HETATM    6  N3  UNL     1     -20.367 -18.295 -23.830  1.00  0.00    -0.349 N 
ATOM      7  H3  UNL     1     -20.407 -17.874 -22.903  1.00  0.00     0.167 HD
HETATM    8  C3  UNL     1     -21.303 -19.179 -24.242  1.00  0.00     0.091 A 
HETATM    9  C4  UNL     1     -22.438 -19.590 -23.550  1.00  0.00     0.086 A 
HETATM   10  N4  UNL     1     -23.081 -20.423 -24.411  1.00  0.00    -0.299 N 
ATOM     11  H4  UNL     1     -23.961 -20.898 -24.215  1.00  0.00     0.186 HD
HETATM   12  N5  UNL     1     -22.388 -20.529 -25.559  1.00  0.00    -0.295 N 
ATOM     13  H5  UNL     1     -22.662 -21.098 -26.360  1.00  0.00     0.187 HD
HETATM   14  C10 UNL     1     -21.262 -19.760 -25.488  1.00  0.00     0.118 A 
ENDROOT
BRANCH   9  15
HETATM   15  C5  UNL     1     -22.750 -19.357 -22.156  1.00  0.00     0.207 C 
HETATM   16  O1  UNL     1     -23.792 -18.355 -22.112  1.00  0.00    -0.367 OA
HETATM   17  C6  UNL     1     -23.823 -17.762 -20.901  1.00  0.00     0.177 C 
HETATM   18  C8  UNL     1     -22.608 -18.324 -20.116  1.00  0.00     0.180 C 
HETATM   19  C9  UNL     1     -21.712 -18.556 -21.358  1.00  0.00     0.184 C 
BRANCH  17  20
HETATM   20  C7  UNL     1     -23.695 -16.261 -20.872  1.00  0.00     0.198 C 
BRANCH  20  21
HETATM   21  O2  UNL     1     -24.065 -15.625 -22.042  1.00  0.00    -0.398 OA
ATOM     22  H2  UNL     1     -23.354 -15.197 -22.504  1.00  0.00     0.209 HD
ENDBRANCH  20  21
ENDBRANCH  17  20
BRANCH  18  23
HETATM   23  O3  UNL     1     -23.046 -19.562 -19.634  1.00  0.00    -0.390 OA
ATOM     24  H3  UNL     1     -22.258 -20.092 -19.589  1.00  0.00     0.210 HD
ENDBRANCH  18  23
BRANCH  19  25
HETATM   25  O4  UNL     1     -20.643 -19.386 -20.969  1.00  0.00    -0.390 OA
ATOM     26  H4  UNL     1     -20.489 -20.058 -21.623  1.00  0.00     0.210 HD
ENDBRANCH  19  25
ENDBRANCH   9  15
TORSDOF 5
ENDMDL
