MODEL 4
REMARK VINA RESULT: -5.413984751      4.020      6.296
REMARK  5 active torsions:
REMARK  status: ('A' for Active; 'I' for Inactive)
REMARK    1  A    between atoms: C4_9  and  C5_10 
REMARK    2  A    between atoms: C6_12  and  C7_13 
REMARK    3  A    between atoms: C7_13  and  O2_14 
REMARK    4  A    between atoms: C8_16  and  O3_17 
REMARK    5  A    between atoms: C9_19  and  O4_20 
ROOT
HETATM    1  N1  UNL     1     -22.079 -19.797 -15.170  1.00  0.00    -0.080 NA
HETATM    2  C1  UNL     1     -21.879 -19.793 -16.571  1.00  0.00     0.147 A 
HETATM    3  N2  UNL     1     -20.823 -20.368 -17.184  1.00  0.00    -0.339 N 
ATOM      4  H2  UNL     1     -20.153 -20.869 -16.601  1.00  0.00     0.167 HD
HETATM    5  C2  UNL     1     -20.590 -20.328 -18.503  1.00  0.00     0.182 A 
HETATM    6  N3  UNL     1     -21.456 -19.676 -19.331  1.00  0.00    -0.349 N 
ATOM      7  H3  UNL     1     -21.296 -19.632 -20.337  1.00  0.00     0.167 HD
HETATM    8  C3  UNL     1     -22.535 -19.091 -18.764  1.00  0.00     0.091 A 
HETATM    9  C4  UNL     1     -23.573 -18.431 -19.412  1.00  0.00     0.086 A 
HETATM   10  N4  UNL     1     -24.435 -18.089 -18.417  1.00  0.00    -0.299 N 
ATOM     11  H4  UNL     1     -25.314 -17.591 -18.553  1.00  0.00     0.186 HD
HETATM   12  N5  UNL     1     -23.959 -18.502 -17.229  1.00  0.00    -0.295 N 
ATOM     13  H5  UNL     1     -24.422 -18.362 -16.331  1.00  0.00     0.187 HD
HETATM   14  C10 UNL     1     -22.764 -19.137 -17.409  1.00  0.00     0.118 A 
ENDROOT
BRANCH   9  15
HETATM   15  C5  UNL     1     -23.620 -18.012 -20.797  1.00  0.00     0.207 C 
HETATM   16  O1  UNL     1     -23.393 -19.187 -21.608  1.00  0.00    -0.367 OA
HETATM   17  C6  UNL     1     -22.976 -18.834 -22.841  1.00  0.00     0.177 C 
HETATM   18  C8  UNL     1     -22.781 -17.295 -22.805  1.00  0.00     0.180 C 
HETATM   19  C9  UNL     1     -22.408 -17.219 -21.303  1.00  0.00     0.184 C 
BRANCH  17  20
HETATM   20  C7  UNL     1     -21.672 -19.420 -23.316  1.00  0.00     0.198 C 
BRANCH  20  21
HETATM   21  O2  UNL     1     -20.863 -19.921 -22.314  1.00  0.00    -0.398 OA
ATOM     22  H2  UNL     1     -20.833 -20.869 -22.263  1.00  0.00     0.209 HD
ENDBRANCH  20  21
ENDBRANCH  17  20
BRANCH  18  23
HETATM   23  O3  UNL     1     -24.069 -16.775 -22.979  1.00  0.00    -0.390 OA
ATOM     24  H3  UNL     1     -24.203 -16.217 -22.222  1.00  0.00     0.210 HD
ENDBRANCH  18  23
BRANCH  19  25
HETATM   25  O4  UNL     1     -22.498 -15.873 -20.904  1.00  0.00    -0.390 OA
ATOM     26  H4  UNL     1     -23.044 -15.791 -20.131  1.00  0.00     0.210 HD
ENDBRANCH  19  25
ENDBRANCH   9  15
TORSDOF 5
ENDMDL
