MODEL 9
REMARK VINA RESULT: -9.439528281      3.962     14.284
REMARK  8 active torsions:
REMARK  status: ('A' for Active; 'I' for Inactive)
REMARK       I    between atoms: N1_2  and  C2_4 
REMARK    1  A    between atoms: C2_4  and  C3_6 
REMARK    2  A    between atoms: C5_8  and  O2_9 
REMARK    3  A    between atoms: O2_9  and  C6_10 
REMARK    4  A    between atoms: C10_15  and  N2_16 
REMARK    5  A    between atoms: N2_16  and  C11_18 
REMARK    6  A    between atoms: C15_23  and  O4_24 
REMARK    7  A    between atoms: O4_24  and  C16_25 
REMARK    8  A    between atoms: C16_25  and  C17_26 
ROOT
HETATM    1  C6  UNL     1      38.379  32.017  13.536  1.00  0.00     0.078 A 
HETATM    2  C7  UNL     1      38.584  32.019  12.175  1.00  0.00     0.040 A 
HETATM    3  C8  UNL     1      39.149  30.895  11.621  1.00  0.00     0.042 A 
HETATM    4  C9  UNL     1      39.497  29.807  12.389  1.00  0.00     0.106 A 
HETATM    5  O3  UNL     1      40.031  28.649  12.140  1.00  0.00    -0.277 OA
HETATM    6  C10 UNL     1      40.186  27.911  13.196  1.00  0.00     0.230 A 
HETATM    7  N4  UNL     1      39.705  28.670  14.230  1.00  0.00    -0.319 N 
ATOM      8  H4  UNL     1      39.676  28.392  15.210  1.00  0.00     0.169 HD
HETATM    9  C23 UNL     1      39.287  29.821  13.744  1.00  0.00     0.072 A 
HETATM   10  C24 UNL     1      38.713  30.955  14.331  1.00  0.00     0.069 A 
ENDROOT
BRANCH   6  11
HETATM   11  N2  UNL     1      40.719  26.610  13.359  1.00  0.00    -0.322 N 
ATOM     12  H2  UNL     1      40.474  25.894  12.675  1.00  0.00     0.169 HD
BRANCH  11  13
HETATM   13  C11 UNL     1      41.570  26.258  14.421  1.00  0.00     0.038 A 
HETATM   14  C12 UNL     1      41.565  26.930  15.606  1.00  0.00     0.031 A 
HETATM   15  C13 UNL     1      42.439  26.528  16.607  1.00  0.00     0.029 A 
HETATM   16  C14 UNL     1      43.302  25.466  16.412  1.00  0.00     0.067 A 
HETATM   17 CL1  UNL     1      44.362  25.044  17.741  1.00  0.00    -0.081 Cl
HETATM   18  C15 UNL     1      43.325  24.775  15.228  1.00  0.00     0.092 A 
HETATM   19  C22 UNL     1      42.461  25.176  14.245  1.00  0.00     0.068 A 
BRANCH  18  20
HETATM   20  O4  UNL     1      44.174  23.733  15.040  1.00  0.00    -0.347 OA
BRANCH  20  21
HETATM   21  C16 UNL     1      43.865  22.376  15.136  1.00  0.00     0.211 C 
BRANCH  21  22
HETATM   22  C17 UNL     1      45.075  21.673  15.722  1.00  0.00     0.246 C 
HETATM   23  C18 UNL     1      46.292  22.588  15.707  1.00  0.00     0.040 C 
HETATM   24  C19 UNL     1      47.411  21.716  15.195  1.00  0.00     0.032 C 
HETATM   25  C20 UNL     1      46.854  20.325  15.418  1.00  0.00     0.272 C 
HETATM   26  N3  UNL     1      45.459  20.505  14.988  1.00  0.00     0.090 N 
HETATM   27  C21 UNL     1      44.711  19.356  15.466  1.00  0.00     0.310 C 
ENDBRANCH  21  22
ENDBRANCH  20  21
ENDBRANCH  18  20
ENDBRANCH  11  13
ENDBRANCH   6  11
BRANCH   1  28
HETATM   28  O2  UNL     1      37.806  33.133  14.167  1.00  0.00    -0.311 OA
BRANCH  28  29
HETATM   29  C5  UNL     1      36.941  33.900  13.414  1.00  0.00     0.079 A 
HETATM   30  C4  UNL     1      37.402  35.108  12.916  1.00  0.00     0.072 A 
HETATM   31  C3  UNL     1      36.619  35.945  12.157  1.00  0.00     0.103 A 
HETATM   32  N5  UNL     1      35.356  35.564  11.893  1.00  0.00    -0.361 N 
HETATM   33  C26 UNL     1      34.867  34.391  12.362  1.00  0.00     0.091 A 
ATOM     34  H5  UNL     1      34.757  36.168  11.330  1.00  0.00     0.165 HD
HETATM   35  C25 UNL     1      35.650  33.539  13.131  1.00  0.00     0.054 A 
BRANCH  31  36
HETATM   36  C2  UNL     1      37.130  37.209  11.645  1.00  0.00     0.267 C 
HETATM   37  N1  UNL     1      36.754  38.460  12.160  1.00  0.00    -0.360 N 
HETATM   38  C1  UNL     1      37.247  39.734  11.670  1.00  0.00     0.149 C 
ATOM     39  H1  UNL     1      36.087  38.474  12.931  1.00  0.00     0.162 HD
HETATM   40  O1  UNL     1      37.949  37.166  10.694  1.00  0.00    -0.266 OA
ENDBRANCH  31  36
ENDBRANCH  28  29
ENDBRANCH   1  28
TORSDOF 8
ENDMDL
