MODEL 2
REMARK VINA RESULT: -10.768907711      0.828      1.276
REMARK  8 active torsions:
REMARK  status: ('A' for Active; 'I' for Inactive)
REMARK       I    between atoms: N1_2  and  C2_4 
REMARK    1  A    between atoms: C2_4  and  C3_6 
REMARK    2  A    between atoms: C5_8  and  O2_9 
REMARK    3  A    between atoms: O2_9  and  C6_10 
REMARK    4  A    between atoms: C10_15  and  N2_16 
REMARK    5  A    between atoms: N2_16  and  C11_18 
REMARK    6  A    between atoms: C15_23  and  O4_24 
REMARK    7  A    between atoms: O4_24  and  C16_25 
REMARK    8  A    between atoms: C16_25  and  C17_26 
ROOT
HETATM    1  C6  UNL     1      37.914  31.663  14.000  1.00  0.00     0.078 A 
HETATM    2  C7  UNL     1      36.656  31.292  13.586  1.00  0.00     0.040 A 
HETATM    3  C8  UNL     1      35.868  32.263  13.014  1.00  0.00     0.042 A 
HETATM    4  C9  UNL     1      36.314  33.555  12.859  1.00  0.00     0.106 A 
HETATM    5  O3  UNL     1      35.799  34.643  12.368  1.00  0.00    -0.277 OA
HETATM    6  C10 UNL     1      36.597  35.666  12.425  1.00  0.00     0.230 A 
HETATM    7  N4  UNL     1      37.738  35.190  13.013  1.00  0.00    -0.319 N 
ATOM      8  H4  UNL     1      38.577  35.733  13.212  1.00  0.00     0.169 HD
HETATM    9  C23 UNL     1      37.570  33.910  13.277  1.00  0.00     0.072 A 
HETATM   10  C24 UNL     1      38.390  32.939  13.863  1.00  0.00     0.069 A 
ENDROOT
BRANCH   6  11
HETATM   11  N2  UNL     1      36.429  37.009  12.009  1.00  0.00    -0.322 N 
ATOM     12  H2  UNL     1      35.506  37.433  12.096  1.00  0.00     0.169 HD
BRANCH  11  13
HETATM   13  C11 UNL     1      37.476  37.783  11.482  1.00  0.00     0.038 A 
HETATM   14  C12 UNL     1      38.425  37.256  10.659  1.00  0.00     0.031 A 
HETATM   15  C13 UNL     1      39.433  38.082  10.182  1.00  0.00     0.029 A 
HETATM   16  C14 UNL     1      39.480  39.419  10.532  1.00  0.00     0.067 A 
HETATM   17 CL1  UNL     1      40.794  40.370   9.873  1.00  0.00    -0.081 Cl
HETATM   18  C15 UNL     1      38.537  39.972  11.358  1.00  0.00     0.092 A 
HETATM   19  C22 UNL     1      37.546  39.152  11.826  1.00  0.00     0.068 A 
BRANCH  18  20
HETATM   20  O4  UNL     1      38.587  41.285  11.700  1.00  0.00    -0.347 OA
BRANCH  20  21
HETATM   21  C16 UNL     1      38.615  41.811  12.992  1.00  0.00     0.211 C 
BRANCH  21  22
HETATM   22  C17 UNL     1      37.535  42.874  13.074  1.00  0.00     0.246 C 
HETATM   23  C18 UNL     1      36.168  42.241  13.287  1.00  0.00     0.040 C 
HETATM   24  C19 UNL     1      35.264  42.966  12.321  1.00  0.00     0.032 C 
HETATM   25  C20 UNL     1      36.066  44.213  12.014  1.00  0.00     0.272 C 
HETATM   26  N3  UNL     1      37.420  43.654  11.879  1.00  0.00     0.090 N 
HETATM   27  C21 UNL     1      38.351  44.768  11.926  1.00  0.00     0.310 C 
ENDBRANCH  21  22
ENDBRANCH  20  21
ENDBRANCH  18  20
ENDBRANCH  11  13
ENDBRANCH   6  11
BRANCH   1  28
HETATM   28  O2  UNL     1      38.771  30.722  14.593  1.00  0.00    -0.311 OA
BRANCH  28  29
HETATM   29  C5  UNL     1      39.364  29.801  13.752  1.00  0.00     0.079 A 
HETATM   30  C4  UNL     1      40.076  28.758  14.323  1.00  0.00     0.072 A 
HETATM   31  C3  UNL     1      40.703  27.791  13.573  1.00  0.00     0.103 A 
HETATM   32  N5  UNL     1      40.614  27.871  12.233  1.00  0.00    -0.361 N 
HETATM   33  C26 UNL     1      39.929  28.877  11.637  1.00  0.00     0.091 A 
ATOM     34  H5  UNL     1      41.070  27.165  11.657  1.00  0.00     0.165 HD
HETATM   35  C25 UNL     1      39.292  29.858  12.386  1.00  0.00     0.054 A 
BRANCH  31  36
HETATM   36  C2  UNL     1      41.445  26.705  14.199  1.00  0.00     0.267 C 
HETATM   37  N1  UNL     1      42.231  25.791  13.481  1.00  0.00    -0.360 N 
HETATM   38  C1  UNL     1      42.980  24.701  14.079  1.00  0.00     0.149 C 
ATOM     39  H1  UNL     1      42.280  25.901  12.468  1.00  0.00     0.162 HD
HETATM   40  O1  UNL     1      41.368  26.590  15.447  1.00  0.00    -0.266 OA
ENDBRANCH  31  36
ENDBRANCH  28  29
ENDBRANCH   1  28
TORSDOF 8
ENDMDL
