MODEL 1
REMARK VINA RESULT: -10.904987791      0.000      0.000
REMARK  8 active torsions:
REMARK  status: ('A' for Active; 'I' for Inactive)
REMARK       I    between atoms: N1_2  and  C2_4 
REMARK    1  A    between atoms: C2_4  and  C3_6 
REMARK    2  A    between atoms: C5_8  and  O2_9 
REMARK    3  A    between atoms: O2_9  and  C6_10 
REMARK    4  A    between atoms: C10_15  and  N2_16 
REMARK    5  A    between atoms: N2_16  and  C11_18 
REMARK    6  A    between atoms: C15_23  and  O4_24 
REMARK    7  A    between atoms: O4_24  and  C16_25 
REMARK    8  A    between atoms: C16_25  and  C17_26 
ROOT
HETATM    1  C6  UNL     1      38.161  31.477  13.973  1.00  0.00     0.078 A 
HETATM    2  C7  UNL     1      36.902  31.028  13.643  1.00  0.00     0.040 A 
HETATM    3  C8  UNL     1      36.032  31.939  13.092  1.00  0.00     0.042 A 
HETATM    4  C9  UNL     1      36.398  33.248  12.876  1.00  0.00     0.106 A 
HETATM    5  O3  UNL     1      35.798  34.293  12.388  1.00  0.00    -0.277 OA
HETATM    6  C10 UNL     1      36.541  35.357  12.371  1.00  0.00     0.230 A 
HETATM    7  N4  UNL     1      37.739  34.958  12.903  1.00  0.00    -0.319 N 
ATOM      8  H4  UNL     1      38.557  35.551  13.038  1.00  0.00     0.169 HD
HETATM    9  C23 UNL     1      37.655  33.680  13.210  1.00  0.00     0.072 A 
HETATM   10  C24 UNL     1      38.558  32.771  13.773  1.00  0.00     0.069 A 
ENDROOT
BRANCH   6  11
HETATM   11  N2  UNL     1      36.278  36.676  11.930  1.00  0.00    -0.322 N 
ATOM     12  H2  UNL     1      35.307  36.968  11.821  1.00  0.00     0.169 HD
BRANCH  11  13
HETATM   13  C11 UNL     1      37.293  37.601  11.634  1.00  0.00     0.038 A 
HETATM   14  C12 UNL     1      38.351  37.287  10.835  1.00  0.00     0.031 A 
HETATM   15  C13 UNL     1      39.318  38.252  10.593  1.00  0.00     0.029 A 
HETATM   16  C14 UNL     1      39.218  39.513  11.150  1.00  0.00     0.067 A 
HETATM   17 CL1  UNL     1      40.494  40.654  10.779  1.00  0.00    -0.081 Cl
HETATM   18  C15 UNL     1      38.163  39.853  11.957  1.00  0.00     0.092 A 
HETATM   19  C22 UNL     1      37.213  38.897  12.192  1.00  0.00     0.068 A 
BRANCH  18  20
HETATM   20  O4  UNL     1      38.068  41.092  12.503  1.00  0.00    -0.347 OA
BRANCH  20  21
HETATM   21  C16 UNL     1      36.986  41.967  12.405  1.00  0.00     0.211 C 
BRANCH  21  22
HETATM   22  C17 UNL     1      37.518  43.296  11.901  1.00  0.00     0.246 C 
HETATM   23  C18 UNL     1      37.752  43.249  10.398  1.00  0.00     0.040 C 
HETATM   24  C19 UNL     1      39.104  43.891  10.209  1.00  0.00     0.032 C 
HETATM   25  C20 UNL     1      39.281  44.642  11.512  1.00  0.00     0.272 C 
HETATM   26  N3  UNL     1      38.777  43.655  12.479  1.00  0.00     0.090 N 
HETATM   27  C21 UNL     1      38.561  44.355  13.733  1.00  0.00     0.310 C 
ENDBRANCH  21  22
ENDBRANCH  20  21
ENDBRANCH  18  20
ENDBRANCH  11  13
ENDBRANCH   6  11
BRANCH   1  28
HETATM   28  O2  UNL     1      39.100  30.599  14.539  1.00  0.00    -0.311 OA
BRANCH  28  29
HETATM   29  C5  UNL     1      39.608  29.615  13.717  1.00  0.00     0.079 A 
HETATM   30  C4  UNL     1      40.315  28.576  14.301  1.00  0.00     0.072 A 
HETATM   31  C3  UNL     1      40.863  27.548  13.570  1.00  0.00     0.103 A 
HETATM   32  N5  UNL     1      40.698  27.562  12.234  1.00  0.00    -0.361 N 
HETATM   33  C26 UNL     1      40.014  28.561  11.625  1.00  0.00     0.091 A 
ATOM     34  H5  UNL     1      41.094  26.809  11.672  1.00  0.00     0.165 HD
HETATM   35  C25 UNL     1      39.458  29.604  12.355  1.00  0.00     0.054 A 
BRANCH  31  36
HETATM   36  C2  UNL     1      41.601  26.468  14.210  1.00  0.00     0.267 C 
HETATM   37  N1  UNL     1      42.400  25.555  13.506  1.00  0.00    -0.360 N 
HETATM   38  C1  UNL     1      43.146  24.470  14.118  1.00  0.00     0.149 C 
ATOM     39  H1  UNL     1      42.462  25.660  12.493  1.00  0.00     0.162 HD
HETATM   40  O1  UNL     1      41.508  26.357  15.458  1.00  0.00    -0.266 OA
ENDBRANCH  31  36
ENDBRANCH  28  29
ENDBRANCH   1  28
TORSDOF 8
ENDMDL
