MODEL 7
REMARK VINA RESULT: -9.664718963      4.525     12.219
REMARK  8 active torsions:
REMARK  status: ('A' for Active; 'I' for Inactive)
REMARK       I    between atoms: N1_2  and  C2_4 
REMARK    1  A    between atoms: C2_4  and  C3_6 
REMARK    2  A    between atoms: C5_8  and  O2_9 
REMARK    3  A    between atoms: O2_9  and  C6_10 
REMARK    4  A    between atoms: C10_15  and  N2_16 
REMARK    5  A    between atoms: N2_16  and  C11_18 
REMARK    6  A    between atoms: C15_23  and  O4_24 
REMARK    7  A    between atoms: O4_24  and  C16_25 
REMARK    8  A    between atoms: C16_25  and  C17_26 
ROOT
HETATM    1  C6  UNL     1      38.338  31.930  13.687  1.00  0.00     0.078 A 
HETATM    2  C7  UNL     1      38.636  31.979  12.345  1.00  0.00     0.040 A 
HETATM    3  C8  UNL     1      39.239  30.873  11.793  1.00  0.00     0.042 A 
HETATM    4  C9  UNL     1      39.535  29.760  12.547  1.00  0.00     0.106 A 
HETATM    5  O3  UNL     1      40.086  28.610  12.295  1.00  0.00    -0.277 OA
HETATM    6  C10 UNL     1      40.169  27.836  13.335  1.00  0.00     0.230 A 
HETATM    7  N4  UNL     1      39.617  28.560  14.357  1.00  0.00    -0.319 N 
ATOM      8  H4  UNL     1      39.520  28.249  15.323  1.00  0.00     0.169 HD
HETATM    9  C23 UNL     1      39.231  29.727  13.883  1.00  0.00     0.072 A 
HETATM   10  C24 UNL     1      38.617  30.842  14.467  1.00  0.00     0.069 A 
ENDROOT
BRANCH   6  11
HETATM   11  N2  UNL     1      40.690  26.530  13.490  1.00  0.00    -0.322 N 
ATOM     12  H2  UNL     1      40.347  25.792  12.874  1.00  0.00     0.169 HD
BRANCH  11  13
HETATM   13  C11 UNL     1      41.660  26.202  14.452  1.00  0.00     0.038 A 
HETATM   14  C12 UNL     1      42.414  25.070  14.366  1.00  0.00     0.031 A 
HETATM   15  C13 UNL     1      43.348  24.810  15.358  1.00  0.00     0.029 A 
HETATM   16  C14 UNL     1      43.517  25.679  16.420  1.00  0.00     0.067 A 
HETATM   17 CL1  UNL     1      44.724  25.254  17.615  1.00  0.00    -0.081 Cl
HETATM   18  C15 UNL     1      42.771  26.823  16.528  1.00  0.00     0.092 A 
HETATM   19  C22 UNL     1      41.851  27.074  15.547  1.00  0.00     0.068 A 
BRANCH  18  20
HETATM   20  O4  UNL     1      42.940  27.674  17.572  1.00  0.00    -0.347 OA
BRANCH  20  21
HETATM   21  C16 UNL     1      44.071  28.444  17.848  1.00  0.00     0.211 C 
BRANCH  21  22
HETATM   22  C17 UNL     1      43.855  29.103  19.198  1.00  0.00     0.246 C 
HETATM   23  C18 UNL     1      44.390  30.528  19.195  1.00  0.00     0.040 C 
HETATM   24  C19 UNL     1      45.149  30.645  20.494  1.00  0.00     0.032 C 
HETATM   25  C20 UNL     1      44.589  29.487  21.293  1.00  0.00     0.272 C 
HETATM   26  N3  UNL     1      44.534  28.435  20.266  1.00  0.00     0.090 N 
HETATM   27  C21 UNL     1      43.699  27.368  20.789  1.00  0.00     0.310 C 
ENDBRANCH  21  22
ENDBRANCH  20  21
ENDBRANCH  18  20
ENDBRANCH  11  13
ENDBRANCH   6  11
BRANCH   1  28
HETATM   28  O2  UNL     1      37.721  33.025  14.315  1.00  0.00    -0.311 OA
BRANCH  28  29
HETATM   29  C5  UNL     1      36.955  33.851  13.518  1.00  0.00     0.079 A 
HETATM   30  C4  UNL     1      37.500  35.060  13.115  1.00  0.00     0.072 A 
HETATM   31  C3  UNL     1      36.819  35.953  12.322  1.00  0.00     0.103 A 
HETATM   32  N5  UNL     1      35.574  35.629  11.928  1.00  0.00    -0.361 N 
HETATM   33  C26 UNL     1      35.005  34.457  12.302  1.00  0.00     0.091 A 
ATOM     34  H5  UNL     1      35.050  36.275  11.338  1.00  0.00     0.165 HD
HETATM   35  C25 UNL     1      35.686  33.549  13.103  1.00  0.00     0.054 A 
BRANCH  31  36
HETATM   36  C2  UNL     1      37.416  37.217  11.912  1.00  0.00     0.267 C 
HETATM   37  N1  UNL     1      36.769  38.455  12.041  1.00  0.00    -0.360 N 
HETATM   38  C1  UNL     1      37.341  39.728  11.642  1.00  0.00     0.149 C 
ATOM     39  H1  UNL     1      35.832  38.462  12.444  1.00  0.00     0.162 HD
HETATM   40  O1  UNL     1      38.570  37.183  11.419  1.00  0.00    -0.266 OA
ENDBRANCH  31  36
ENDBRANCH  28  29
ENDBRANCH   1  28
TORSDOF 8
ENDMDL
