MODEL 4
REMARK VINA RESULT: -10.391348327      1.205      1.355
REMARK  8 active torsions:
REMARK  status: ('A' for Active; 'I' for Inactive)
REMARK       I    between atoms: N1_2  and  C2_4 
REMARK    1  A    between atoms: C2_4  and  C3_6 
REMARK    2  A    between atoms: C5_8  and  O2_9 
REMARK    3  A    between atoms: O2_9  and  C6_10 
REMARK    4  A    between atoms: C10_15  and  N2_16 
REMARK    5  A    between atoms: N2_16  and  C11_18 
REMARK    6  A    between atoms: C15_23  and  O4_24 
REMARK    7  A    between atoms: O4_24  and  C16_25 
REMARK    8  A    between atoms: C16_25  and  C17_26 
ROOT
HETATM    1  C6  UNL     1      38.852  30.792  13.695  1.00  0.00     0.078 A 
HETATM    2  C7  UNL     1      39.066  30.799  12.336  1.00  0.00     0.040 A 
HETATM    3  C8  UNL     1      38.742  31.947  11.653  1.00  0.00     0.042 A 
HETATM    4  C9  UNL     1      38.225  33.049  12.295  1.00  0.00     0.106 A 
HETATM    5  O3  UNL     1      37.840  34.230  11.912  1.00  0.00    -0.277 OA
HETATM    6  C10 UNL     1      37.405  34.974  12.883  1.00  0.00     0.230 A 
HETATM    7  N4  UNL     1      37.520  34.194  14.003  1.00  0.00    -0.319 N 
ATOM      8  H4  UNL     1      37.265  34.471  14.950  1.00  0.00     0.169 HD
HETATM    9  C23 UNL     1      38.017  33.026  13.650  1.00  0.00     0.072 A 
HETATM   10  C24 UNL     1      38.339  31.868  14.367  1.00  0.00     0.069 A 
ENDROOT
BRANCH   6  11
HETATM   11  N2  UNL     1      36.903  36.297  12.895  1.00  0.00    -0.322 N 
ATOM     12  H2  UNL     1      36.095  36.506  13.481  1.00  0.00     0.169 HD
BRANCH  11  13
HETATM   13  C11 UNL     1      37.467  37.337  12.137  1.00  0.00     0.038 A 
HETATM   14  C12 UNL     1      38.513  37.130  11.288  1.00  0.00     0.031 A 
HETATM   15  C13 UNL     1      39.021  38.208  10.576  1.00  0.00     0.029 A 
HETATM   16  C14 UNL     1      38.482  39.472  10.721  1.00  0.00     0.067 A 
HETATM   17 CL1  UNL     1      39.200  40.760   9.775  1.00  0.00    -0.081 Cl
HETATM   18  C15 UNL     1      37.430  39.705  11.568  1.00  0.00     0.092 A 
HETATM   19  C22 UNL     1      36.933  38.638  12.267  1.00  0.00     0.068 A 
BRANCH  18  20
HETATM   20  O4  UNL     1      36.903  40.948  11.708  1.00  0.00    -0.347 OA
BRANCH  20  21
HETATM   21  C16 UNL     1      36.670  41.627  12.904  1.00  0.00     0.211 C 
BRANCH  21  22
HETATM   22  C17 UNL     1      37.294  43.004  12.776  1.00  0.00     0.246 C 
HETATM   23  C18 UNL     1      36.532  43.851  11.766  1.00  0.00     0.040 C 
HETATM   24  C19 UNL     1      37.609  44.495  10.929  1.00  0.00     0.032 C 
HETATM   25  C20 UNL     1      38.830  44.341  11.812  1.00  0.00     0.272 C 
HETATM   26  N3  UNL     1      38.647  42.969  12.310  1.00  0.00     0.090 N 
HETATM   27  C21 UNL     1      39.550  42.797  13.435  1.00  0.00     0.310 C 
ENDBRANCH  21  22
ENDBRANCH  20  21
ENDBRANCH  18  20
ENDBRANCH  11  13
ENDBRANCH   6  11
BRANCH   1  28
HETATM   28  O2  UNL     1      39.161  29.652  14.455  1.00  0.00    -0.311 OA
BRANCH  28  29
HETATM   29  C5  UNL     1      39.916  28.676  13.836  1.00  0.00     0.079 A 
HETATM   30  C4  UNL     1      40.659  27.821  14.634  1.00  0.00     0.072 A 
HETATM   31  C3  UNL     1      41.444  26.818  14.115  1.00  0.00     0.103 A 
HETATM   32  N5  UNL     1      41.482  26.669  12.779  1.00  0.00    -0.361 N 
HETATM   33  C26 UNL     1      40.770  27.486  11.965  1.00  0.00     0.091 A 
ATOM     34  H5  UNL     1      42.055  25.931  12.372  1.00  0.00     0.165 HD
HETATM   35  C25 UNL     1      39.975  28.502  12.479  1.00  0.00     0.054 A 
BRANCH  31  36
HETATM   36  C2  UNL     1      42.215  25.933  14.978  1.00  0.00     0.267 C 
HETATM   37  N1  UNL     1      43.056  24.920  14.491  1.00  0.00    -0.360 N 
HETATM   38  C1  UNL     1      43.836  24.025  15.327  1.00  0.00     0.149 C 
ATOM     39  H1  UNL     1      43.124  24.804  13.480  1.00  0.00     0.162 HD
HETATM   40  O1  UNL     1      42.114  26.094  16.219  1.00  0.00    -0.266 OA
ENDBRANCH  31  36
ENDBRANCH  28  29
ENDBRANCH   1  28
TORSDOF 8
ENDMDL
