MODEL 3
REMARK VINA RESULT: -10.438738870      0.890      1.163
REMARK  8 active torsions:
REMARK  status: ('A' for Active; 'I' for Inactive)
REMARK       I    between atoms: N1_2  and  C2_4 
REMARK    1  A    between atoms: C2_4  and  C3_6 
REMARK    2  A    between atoms: C5_8  and  O2_9 
REMARK    3  A    between atoms: O2_9  and  C6_10 
REMARK    4  A    between atoms: C10_15  and  N2_16 
REMARK    5  A    between atoms: N2_16  and  C11_18 
REMARK    6  A    between atoms: C15_23  and  O4_24 
REMARK    7  A    between atoms: O4_24  and  C16_25 
REMARK    8  A    between atoms: C16_25  and  C17_26 
ROOT
HETATM    1  C6  UNL     1      38.208  31.216  13.574  1.00  0.00     0.078 A 
HETATM    2  C7  UNL     1      39.016  31.902  14.451  1.00  0.00     0.040 A 
HETATM    3  C8  UNL     1      39.065  33.270  14.325  1.00  0.00     0.042 A 
HETATM    4  C9  UNL     1      38.337  33.933  13.363  1.00  0.00     0.106 A 
HETATM    5  O3  UNL     1      38.197  35.181  13.025  1.00  0.00    -0.277 OA
HETATM    6  C10 UNL     1      37.386  35.360  12.028  1.00  0.00     0.230 A 
HETATM    7  N4  UNL     1      36.962  34.103  11.689  1.00  0.00    -0.319 N 
ATOM      8  H4  UNL     1      36.310  33.876  10.938  1.00  0.00     0.169 HD
HETATM    9  C23 UNL     1      37.537  33.236  12.496  1.00  0.00     0.072 A 
HETATM   10  C24 UNL     1      37.471  31.841  12.605  1.00  0.00     0.069 A 
ENDROOT
BRANCH   6  11
HETATM   11  N2  UNL     1      36.965  36.537  11.363  1.00  0.00    -0.322 N 
ATOM     12  H2  UNL     1      36.014  36.577  10.999  1.00  0.00     0.169 HD
BRANCH  11  13
HETATM   13  C11 UNL     1      37.799  37.654  11.183  1.00  0.00     0.038 A 
HETATM   14  C12 UNL     1      38.853  37.640  10.319  1.00  0.00     0.031 A 
HETATM   15  C13 UNL     1      39.636  38.779  10.199  1.00  0.00     0.029 A 
HETATM   16  C14 UNL     1      39.359  39.913  10.940  1.00  0.00     0.067 A 
HETATM   17 CL1  UNL     1      40.410  41.294  10.710  1.00  0.00    -0.081 Cl
HETATM   18  C15 UNL     1      38.304  39.951  11.815  1.00  0.00     0.092 A 
HETATM   19  C22 UNL     1      37.536  38.824  11.929  1.00  0.00     0.068 A 
BRANCH  18  20
HETATM   20  O4  UNL     1      38.036  41.066  12.541  1.00  0.00    -0.347 OA
BRANCH  20  21
HETATM   21  C16 UNL     1      36.840  41.783  12.557  1.00  0.00     0.211 C 
BRANCH  21  22
HETATM   22  C17 UNL     1      37.155  43.204  12.127  1.00  0.00     0.246 C 
HETATM   23  C18 UNL     1      37.191  43.315  10.610  1.00  0.00     0.040 C 
HETATM   24  C19 UNL     1      38.430  44.126  10.322  1.00  0.00     0.032 C 
HETATM   25  C20 UNL     1      38.697  44.779  11.662  1.00  0.00     0.272 C 
HETATM   26  N3  UNL     1      38.434  43.660  12.580  1.00  0.00     0.090 N 
HETATM   27  C21 UNL     1      38.313  44.219  13.915  1.00  0.00     0.310 C 
ENDBRANCH  21  22
ENDBRANCH  20  21
ENDBRANCH  18  20
ENDBRANCH  11  13
ENDBRANCH   6  11
BRANCH   1  28
HETATM   28  O2  UNL     1      38.111  29.817  13.647  1.00  0.00    -0.311 OA
BRANCH  28  29
HETATM   29  C5  UNL     1      39.150  29.090  13.101  1.00  0.00     0.079 A 
HETATM   30  C4  UNL     1      39.841  28.218  13.927  1.00  0.00     0.072 A 
HETATM   31  C3  UNL     1      40.892  27.451  13.480  1.00  0.00     0.103 A 
HETATM   32  N5  UNL     1      41.252  27.559  12.189  1.00  0.00    -0.361 N 
HETATM   33  C26 UNL     1      40.602  28.401  11.350  1.00  0.00     0.091 A 
ATOM     34  H5  UNL     1      42.027  26.999  11.835  1.00  0.00     0.165 HD
HETATM   35  C25 UNL     1      39.540  29.181  11.792  1.00  0.00     0.054 A 
BRANCH  31  36
HETATM   36  C2  UNL     1      41.601  26.541  14.370  1.00  0.00     0.267 C 
HETATM   37  N1  UNL     1      42.397  25.479  13.915  1.00  0.00    -0.360 N 
HETATM   38  C1  UNL     1      43.115  24.559  14.778  1.00  0.00     0.149 C 
ATOM     39  H1  UNL     1      42.477  25.343  12.907  1.00  0.00     0.162 HD
HETATM   40  O1  UNL     1      41.487  26.727  15.607  1.00  0.00    -0.266 OA
ENDBRANCH  31  36
ENDBRANCH  28  29
ENDBRANCH   1  28
TORSDOF 8
ENDMDL
