MODEL 8
REMARK VINA RESULT: -9.453759579      3.920     14.112
REMARK  8 active torsions:
REMARK  status: ('A' for Active; 'I' for Inactive)
REMARK       I    between atoms: N1_2  and  C2_4 
REMARK    1  A    between atoms: C2_4  and  C3_6 
REMARK    2  A    between atoms: C5_8  and  O2_9 
REMARK    3  A    between atoms: O2_9  and  C6_10 
REMARK    4  A    between atoms: C10_15  and  N2_16 
REMARK    5  A    between atoms: N2_16  and  C11_18 
REMARK    6  A    between atoms: C15_23  and  O4_24 
REMARK    7  A    between atoms: O4_24  and  C16_25 
REMARK    8  A    between atoms: C16_25  and  C17_26 
ROOT
HETATM    1  C6  UNL     1      38.164  31.777  13.679  1.00  0.00     0.078 A 
HETATM    2  C7  UNL     1      38.446  31.863  12.335  1.00  0.00     0.040 A 
HETATM    3  C8  UNL     1      39.119  30.808  11.765  1.00  0.00     0.042 A 
HETATM    4  C9  UNL     1      39.498  29.709  12.501  1.00  0.00     0.106 A 
HETATM    5  O3  UNL     1      40.125  28.603  12.231  1.00  0.00    -0.277 OA
HETATM    6  C10 UNL     1      40.271  27.824  13.259  1.00  0.00     0.230 A 
HETATM    7  N4  UNL     1      39.679  28.496  14.295  1.00  0.00    -0.319 N 
ATOM      8  H4  UNL     1      39.612  28.167  15.258  1.00  0.00     0.169 HD
HETATM    9  C23 UNL     1      39.209  29.639  13.839  1.00  0.00     0.072 A 
HETATM   10  C24 UNL     1      38.525  30.701  14.443  1.00  0.00     0.069 A 
ENDROOT
BRANCH   6  11
HETATM   11  N2  UNL     1      40.883  26.555  13.393  1.00  0.00    -0.322 N 
ATOM     12  H2  UNL     1      40.713  25.854  12.672  1.00  0.00     0.169 HD
BRANCH  11  13
HETATM   13  C11 UNL     1      41.714  26.217  14.474  1.00  0.00     0.038 A 
HETATM   14  C12 UNL     1      41.739  26.945  15.625  1.00  0.00     0.031 A 
HETATM   15  C13 UNL     1      42.591  26.553  16.648  1.00  0.00     0.029 A 
HETATM   16  C14 UNL     1      43.403  25.443  16.509  1.00  0.00     0.067 A 
HETATM   17 CL1  UNL     1      44.439  25.037  17.862  1.00  0.00    -0.081 Cl
HETATM   18  C15 UNL     1      43.395  24.694  15.361  1.00  0.00     0.092 A 
HETATM   19  C22 UNL     1      42.554  25.086  14.356  1.00  0.00     0.068 A 
BRANCH  18  20
HETATM   20  O4  UNL     1      44.195  23.605  15.228  1.00  0.00    -0.347 OA
BRANCH  20  21
HETATM   21  C16 UNL     1      43.804  22.326  14.832  1.00  0.00     0.211 C 
BRANCH  21  22
HETATM   22  C17 UNL     1      43.775  21.454  16.074  1.00  0.00     0.246 C 
HETATM   23  C18 UNL     1      42.505  21.697  16.876  1.00  0.00     0.040 C 
HETATM   24  C19 UNL     1      42.978  21.803  18.304  1.00  0.00     0.032 C 
HETATM   25  C20 UNL     1      44.345  21.156  18.233  1.00  0.00     0.272 C 
HETATM   26  N3  UNL     1      44.858  21.716  16.972  1.00  0.00     0.090 N 
HETATM   27  C21 UNL     1      46.016  20.926  16.592  1.00  0.00     0.310 C 
ENDBRANCH  21  22
ENDBRANCH  20  21
ENDBRANCH  18  20
ENDBRANCH  11  13
ENDBRANCH   6  11
BRANCH   1  28
HETATM   28  O2  UNL     1      37.478  32.819  14.326  1.00  0.00    -0.311 OA
BRANCH  28  29
HETATM   29  C5  UNL     1      36.759  33.683  13.526  1.00  0.00     0.079 A 
HETATM   30  C4  UNL     1      37.355  34.877  13.153  1.00  0.00     0.072 A 
HETATM   31  C3  UNL     1      36.722  35.805  12.360  1.00  0.00     0.103 A 
HETATM   32  N5  UNL     1      35.475  35.532  11.935  1.00  0.00    -0.361 N 
HETATM   33  C26 UNL     1      34.858  34.376  12.280  1.00  0.00     0.091 A 
ATOM     34  H5  UNL     1      34.987  36.205  11.345  1.00  0.00     0.165 HD
HETATM   35  C25 UNL     1      35.488  33.432  13.081  1.00  0.00     0.054 A 
BRANCH  31  36
HETATM   36  C2  UNL     1      37.372  37.053  11.982  1.00  0.00     0.267 C 
HETATM   37  N1  UNL     1      36.738  38.303  12.038  1.00  0.00    -0.360 N 
HETATM   38  C1  UNL     1      37.362  39.560  11.668  1.00  0.00     0.149 C 
ATOM     39  H1  UNL     1      35.771  38.331  12.361  1.00  0.00     0.162 HD
HETATM   40  O1  UNL     1      38.563  36.993  11.586  1.00  0.00    -0.266 OA
ENDBRANCH  31  36
ENDBRANCH  28  29
ENDBRANCH   1  28
TORSDOF 8
ENDMDL
