MODEL 5
REMARK VINA RESULT: -10.156837815      1.183      1.280
REMARK  8 active torsions:
REMARK  status: ('A' for Active; 'I' for Inactive)
REMARK       I    between atoms: N1_2  and  C2_4 
REMARK    1  A    between atoms: C2_4  and  C3_6 
REMARK    2  A    between atoms: C5_8  and  O2_9 
REMARK    3  A    between atoms: O2_9  and  C6_10 
REMARK    4  A    between atoms: C10_15  and  N2_16 
REMARK    5  A    between atoms: N2_16  and  C11_18 
REMARK    6  A    between atoms: C15_23  and  O4_24 
REMARK    7  A    between atoms: O4_24  and  C16_25 
REMARK    8  A    between atoms: C16_25  and  C17_26 
ROOT
HETATM    1  C6  UNL     1      37.738  32.251  13.881  1.00  0.00     0.078 A 
HETATM    2  C7  UNL     1      36.364  32.186  13.838  1.00  0.00     0.040 A 
HETATM    3  C8  UNL     1      35.704  33.213  13.205  1.00  0.00     0.042 A 
HETATM    4  C9  UNL     1      36.382  34.266  12.636  1.00  0.00     0.106 A 
HETATM    5  O3  UNL     1      36.027  35.339  11.995  1.00  0.00    -0.277 OA
HETATM    6  C10 UNL     1      37.028  36.079  11.626  1.00  0.00     0.230 A 
HETATM    7  N4  UNL     1      38.139  35.417  12.075  1.00  0.00    -0.319 N 
ATOM      8  H4  UNL     1      39.104  35.723  11.956  1.00  0.00     0.169 HD
HETATM    9  C23 UNL     1      37.751  34.317  12.688  1.00  0.00     0.072 A 
HETATM   10  C24 UNL     1      38.445  33.283  13.327  1.00  0.00     0.069 A 
ENDROOT
BRANCH   6  11
HETATM   11  N2  UNL     1      37.075  37.306  10.921  1.00  0.00    -0.322 N 
ATOM     12  H2  UNL     1      36.589  37.373  10.028  1.00  0.00     0.169 HD
BRANCH  11  13
HETATM   13  C11 UNL     1      37.763  38.436  11.397  1.00  0.00     0.038 A 
HETATM   14  C12 UNL     1      39.108  38.584  11.242  1.00  0.00     0.031 A 
HETATM   15  C13 UNL     1      39.718  39.725  11.743  1.00  0.00     0.029 A 
HETATM   16  C14 UNL     1      38.981  40.699  12.390  1.00  0.00     0.067 A 
HETATM   17 CL1  UNL     1      39.851  42.098  12.983  1.00  0.00    -0.081 Cl
HETATM   18  C15 UNL     1      37.626  40.572  12.558  1.00  0.00     0.092 A 
HETATM   19  C22 UNL     1      37.030  39.444  12.062  1.00  0.00     0.068 A 
BRANCH  18  20
HETATM   20  O4  UNL     1      36.905  41.530  13.195  1.00  0.00    -0.347 OA
BRANCH  20  21
HETATM   21  C16 UNL     1      35.725  42.122  12.746  1.00  0.00     0.211 C 
BRANCH  21  22
HETATM   22  C17 UNL     1      36.101  43.416  12.047  1.00  0.00     0.246 C 
HETATM   23  C18 UNL     1      36.684  43.136  10.670  1.00  0.00     0.040 C 
HETATM   24  C19 UNL     1      37.898  44.028  10.588  1.00  0.00     0.032 C 
HETATM   25  C20 UNL     1      37.622  45.036  11.683  1.00  0.00     0.272 C 
HETATM   26  N3  UNL     1      37.100  44.165  12.747  1.00  0.00     0.090 N 
HETATM   27  C21 UNL     1      36.470  45.023  13.734  1.00  0.00     0.310 C 
ENDBRANCH  21  22
ENDBRANCH  20  21
ENDBRANCH  18  20
ENDBRANCH  11  13
ENDBRANCH   6  11
BRANCH   1  28
HETATM   28  O2  UNL     1      38.475  31.236  14.512  1.00  0.00    -0.311 OA
BRANCH  28  29
HETATM   29  C5  UNL     1      39.073  30.299  13.693  1.00  0.00     0.079 A 
HETATM   30  C4  UNL     1      39.785  29.271  14.289  1.00  0.00     0.072 A 
HETATM   31  C3  UNL     1      40.418  28.289  13.563  1.00  0.00     0.103 A 
HETATM   32  N5  UNL     1      40.333  28.339  12.221  1.00  0.00    -0.361 N 
HETATM   33  C26 UNL     1      39.647  29.329  11.601  1.00  0.00     0.091 A 
ATOM     34  H5  UNL     1      40.793  27.621  11.662  1.00  0.00     0.165 HD
HETATM   35  C25 UNL     1      39.005  30.325  12.326  1.00  0.00     0.054 A 
BRANCH  31  36
HETATM   36  C2  UNL     1      41.160  27.219  14.215  1.00  0.00     0.267 C 
HETATM   37  N1  UNL     1      41.830  26.204  13.515  1.00  0.00    -0.360 N 
HETATM   38  C1  UNL     1      42.577  25.127  14.139  1.00  0.00     0.149 C 
ATOM     39  H1  UNL     1      41.790  26.225  12.495  1.00  0.00     0.162 HD
HETATM   40  O1  UNL     1      41.194  27.213  15.471  1.00  0.00    -0.266 OA
ENDBRANCH  31  36
ENDBRANCH  28  29
ENDBRANCH   1  28
TORSDOF 8
ENDMDL
