MODEL 2
REMARK VINA RESULT: -4.892084769      5.986      7.767
REMARK  6 active torsions:
REMARK  status: ('A' for Active; 'I' for Inactive)
REMARK    1  A    between atoms: O1_2  and  C2_3 
REMARK    2  A    between atoms: C3_4  and  O2_5 
REMARK    3  A    between atoms: C4_7  and  O3_8 
REMARK    4  A    between atoms: C5_11  and  C6_12 
REMARK    5  A    between atoms: C6_12  and  O5_13 
REMARK    6  A    between atoms: C7_15  and  O6_16 
ROOT
HETATM    1  C2  UNL     1      -3.653  14.936 -17.261  1.00  0.00     0.185 C 
HETATM    2  C3  UNL     1      -4.405  14.412 -18.489  1.00  0.00     0.204 C 
HETATM    3  C4  UNL     1      -3.541  13.311 -19.062  1.00  0.00     0.288 C 
HETATM    4  O4  UNL     1      -3.511  12.285 -18.109  1.00  0.00    -0.349 OA
HETATM    5  C5  UNL     1      -2.676  12.722 -17.086  1.00  0.00     0.179 C 
HETATM    6  C7  UNL     1      -3.386  13.793 -16.289  1.00  0.00     0.180 C 
ENDROOT
BRANCH   5   7
HETATM    7  C6  UNL     1      -2.197  11.582 -16.225  1.00  0.00     0.198 C 
BRANCH   7   8
HETATM    8  O5  UNL     1      -0.814  11.674 -16.103  1.00  0.00    -0.398 OA
ATOM      9  H5  UNL     1      -0.593  11.679 -15.180  1.00  0.00     0.209 HD
ENDBRANCH   7   8
ENDBRANCH   5   7
BRANCH   6  10
HETATM   10  O6  UNL     1      -2.525  14.249 -15.315  1.00  0.00    -0.390 OA
ATOM     11  H6  UNL     1      -2.854  13.964 -14.471  1.00  0.00     0.210 HD
ENDBRANCH   6  10
BRANCH   3  12
HETATM   12  O3  UNL     1      -3.972  12.884 -20.300  1.00  0.00    -0.369 OA
ATOM     13  H3  UNL     1      -3.883  11.946 -20.418  1.00  0.00     0.212 HD
ENDBRANCH   3  12
BRANCH   1  14
HETATM   14  O1  UNL     1      -4.353  15.970 -16.650  1.00  0.00    -0.385 OA
HETATM   15  C1  UNL     1      -3.538  17.102 -16.673  1.00  0.00     0.202 C 
ENDBRANCH   1  14
BRANCH   2  16
HETATM   16  O2  UNL     1      -4.481  15.462 -19.387  1.00  0.00    -0.388 OA
ATOM     17  H2  UNL     1      -5.402  15.590 -19.581  1.00  0.00     0.210 HD
ENDBRANCH   2  16
TORSDOF 6
ENDMDL
