MODEL 3
REMARK VINA RESULT: -4.664106531      3.204      3.541
REMARK  6 active torsions:
REMARK  status: ('A' for Active; 'I' for Inactive)
REMARK    1  A    between atoms: O1_2  and  C2_3 
REMARK    2  A    between atoms: C3_4  and  O2_5 
REMARK    3  A    between atoms: C4_7  and  O3_8 
REMARK    4  A    between atoms: C5_11  and  C6_12 
REMARK    5  A    between atoms: C6_12  and  O5_13 
REMARK    6  A    between atoms: C7_15  and  O6_16 
ROOT
HETATM    1  C2  UNL     1      -4.254  19.219 -16.399  1.00  0.00     0.185 C 
HETATM    2  C3  UNL     1      -3.484  18.177 -15.581  1.00  0.00     0.204 C 
HETATM    3  C4  UNL     1      -4.156  16.852 -15.864  1.00  0.00     0.288 C 
HETATM    4  O4  UNL     1      -3.943  16.575 -17.221  1.00  0.00    -0.349 OA
HETATM    5  C5  UNL     1      -4.790  17.418 -17.932  1.00  0.00     0.179 C 
HETATM    6  C7  UNL     1      -4.252  18.829 -17.871  1.00  0.00     0.180 C 
ENDROOT
BRANCH   5   7
HETATM    7  C6  UNL     1      -5.002  16.940 -19.346  1.00  0.00     0.198 C 
BRANCH   7   8
HETATM    8  O5  UNL     1      -4.115  17.618 -20.177  1.00  0.00    -0.398 OA
ATOM      9  H5  UNL     1      -3.295  17.733 -19.711  1.00  0.00     0.209 HD
ENDBRANCH   7   8
ENDBRANCH   5   7
BRANCH   6  10
HETATM   10  O6  UNL     1      -5.130  19.657 -18.536  1.00  0.00    -0.390 OA
ATOM     11  H6  UNL     1      -5.812  19.118 -18.919  1.00  0.00     0.210 HD
ENDBRANCH   6  10
BRANCH   3  12
HETATM   12  O3  UNL     1      -3.719  15.844 -15.033  1.00  0.00    -0.369 OA
ATOM     13  H3  UNL     1      -4.401  15.215 -14.827  1.00  0.00     0.212 HD
ENDBRANCH   3  12
BRANCH   1  14
HETATM   14  O1  UNL     1      -3.728  20.492 -16.209  1.00  0.00    -0.385 OA
HETATM   15  C1  UNL     1      -2.470  20.522 -16.811  1.00  0.00     0.202 C 
ENDBRANCH   1  14
BRANCH   2  16
HETATM   16  O2  UNL     1      -3.652  18.512 -14.249  1.00  0.00    -0.388 OA
ATOM     17  H2  UNL     1      -4.569  18.734 -14.137  1.00  0.00     0.210 HD
ENDBRANCH   2  16
TORSDOF 6
ENDMDL
