MODEL 3
REMARK VINA RESULT: -6.441931351      1.667      1.899
REMARK  10 active torsions:
REMARK  status: ('A' for Active; 'I' for Inactive)
REMARK       I    between atoms: C2_2  and  N1_4 
REMARK    1  A    between atoms: N1_4  and  C3_6 
REMARK    2  A    between atoms: C4_7  and  O2_8 
REMARK    3  A    between atoms: C6_11  and  O3_12 
REMARK    4  A    between atoms: C6_11  and  C7_14 
REMARK    5  A    between atoms: C8_18  and  C9_19 
REMARK    6  A    between atoms: C9_19  and  O7_20 
REMARK    7  A    between atoms: C9_19  and  C10_22 
REMARK    8  A    between atoms: C10_22  and  O8_23 
REMARK    9  A    between atoms: C10_22  and  C11_25 
REMARK   10  A    between atoms: C11_25  and  O9_26 
ROOT
HETATM    1  C3  UNL     1      25.309  18.271  63.162  1.00  0.00     0.145 C 
HETATM    2  C4  UNL     1      24.409  17.088  63.516  1.00  0.00     0.149 C 
HETATM    3  C5  UNL     1      24.005  16.483  62.194  1.00  0.00     0.114 C 
HETATM    4  C6  UNL     1      25.255  16.031  61.490  1.00  0.00     0.256 C 
HETATM    5  O6  UNL     1      26.264  16.966  61.437  1.00  0.00    -0.336 OA
HETATM    6  C8  UNL     1      26.573  17.610  62.597  1.00  0.00     0.182 C 
ENDROOT
BRANCH   6   7
HETATM    7  C9  UNL     1      27.633  18.642  62.306  1.00  0.00     0.180 C 
BRANCH   7   8
HETATM    8  O7  UNL     1      27.203  19.564  61.346  1.00  0.00    -0.390 OA
ATOM      9  H7  UNL     1      27.498  20.444  61.550  1.00  0.00     0.210 HD
ENDBRANCH   7   8
BRANCH   7  10
HETATM   10  C10 UNL     1      28.823  17.906  61.727  1.00  0.00     0.173 C 
BRANCH  10  11
HETATM   11  O8  UNL     1      28.838  16.593  62.181  1.00  0.00    -0.391 OA
ATOM     12  H8  UNL     1      29.716  16.352  62.450  1.00  0.00     0.210 HD
ENDBRANCH  10  11
BRANCH  10  13
HETATM   13  C11 UNL     1      30.107  18.635  62.118  1.00  0.00     0.198 C 
BRANCH  13  14
HETATM   14  O9  UNL     1      29.755  19.956  62.408  1.00  0.00    -0.398 OA
ATOM     15  H9  UNL     1      29.926  20.468  61.626  1.00  0.00     0.209 HD
ENDBRANCH  13  14
ENDBRANCH  10  13
ENDBRANCH   7  10
ENDBRANCH   6   7
BRANCH   1  16
HETATM   16  N1  UNL     1      25.589  19.105  64.289  1.00  0.00    -0.352 N 
HETATM   17  C2  UNL     1      25.489  20.514  64.253  1.00  0.00     0.214 C 
HETATM   18  C1  UNL     1      25.777  21.386  65.414  1.00  0.00     0.117 C 
HETATM   19  O1  UNL     1      25.135  21.072  63.181  1.00  0.00    -0.274 OA
ATOM     20  H1  UNL     1      25.876  18.662  65.162  1.00  0.00     0.163 HD
ENDBRANCH   1  16
BRANCH   2  21
HETATM   21  O2  UNL     1      23.311  17.498  64.263  1.00  0.00    -0.393 OA
ATOM     22  H2  UNL     1      23.572  18.085  64.963  1.00  0.00     0.210 HD
ENDBRANCH   2  21
BRANCH   4  23
HETATM   23  O3  UNL     1      24.858  15.843  60.137  1.00  0.00    -0.357 OA
ATOM     24  H3  UNL     1      23.970  16.179  60.099  1.00  0.00     0.213 HD
ENDBRANCH   4  23
BRANCH   4  25
HETATM   25  C7  UNL     1      25.667  14.731  62.014  1.00  0.00     0.238 C 
HETATM   26  O4  UNL     1      24.847  13.776  62.032  1.00  0.00    -0.644 OA
HETATM   27  O5  UNL     1      26.929  14.446  62.513  1.00  0.00    -0.644 OA
ENDBRANCH   4  25
TORSDOF 10
ENDMDL
