MODEL 1
REMARK VINA RESULT: -6.986032512      0.000      0.000
REMARK  10 active torsions:
REMARK  status: ('A' for Active; 'I' for Inactive)
REMARK       I    between atoms: C2_2  and  N1_4 
REMARK    1  A    between atoms: N1_4  and  C3_6 
REMARK    2  A    between atoms: C4_7  and  O2_8 
REMARK    3  A    between atoms: C6_11  and  O3_12 
REMARK    4  A    between atoms: C6_11  and  C7_14 
REMARK    5  A    between atoms: C8_18  and  C9_19 
REMARK    6  A    between atoms: C9_19  and  O7_20 
REMARK    7  A    between atoms: C9_19  and  C10_22 
REMARK    8  A    between atoms: C10_22  and  O8_23 
REMARK    9  A    between atoms: C10_22  and  C11_25 
REMARK   10  A    between atoms: C11_25  and  O9_26 
ROOT
HETATM    1  C3  UNL     1      25.204  17.485  63.002  1.00  0.00     0.145 C 
HETATM    2  C4  UNL     1      24.785  16.072  62.599  1.00  0.00     0.149 C 
HETATM    3  C5  UNL     1      24.693  16.096  61.093  1.00  0.00     0.114 C 
HETATM    4  C6  UNL     1      26.052  16.443  60.550  1.00  0.00     0.256 C 
HETATM    5  O6  UNL     1      26.648  17.539  61.131  1.00  0.00    -0.336 OA
HETATM    6  C8  UNL     1      26.646  17.597  62.493  1.00  0.00     0.182 C 
ENDROOT
BRANCH   6   7
HETATM    7  C9  UNL     1      27.266  18.903  62.920  1.00  0.00     0.180 C 
BRANCH   7   8
HETATM    8  O7  UNL     1      26.484  19.995  62.528  1.00  0.00    -0.390 OA
ATOM      9  H7  UNL     1      27.013  20.680  62.136  1.00  0.00     0.210 HD
ENDBRANCH   7   8
BRANCH   7  10
HETATM   10  C10 UNL     1      28.596  19.019  62.205  1.00  0.00     0.173 C 
BRANCH  10  11
HETATM   11  O8  UNL     1      29.176  17.763  62.073  1.00  0.00    -0.391 OA
ATOM     12  H8  UNL     1      29.081  17.453  61.181  1.00  0.00     0.210 HD
ENDBRANCH  10  11
BRANCH  10  13
HETATM   13  C11 UNL     1      29.507  19.964  62.985  1.00  0.00     0.198 C 
BRANCH  13  14
HETATM   14  O9  UNL     1      29.096  21.266  62.689  1.00  0.00    -0.398 OA
ATOM     15  H9  UNL     1      29.858  21.827  62.782  1.00  0.00     0.209 HD
ENDBRANCH  13  14
ENDBRANCH  10  13
ENDBRANCH   7  10
ENDBRANCH   6   7
BRANCH   1  16
HETATM   16  N1  UNL     1      25.107  17.706  64.412  1.00  0.00    -0.352 N 
HETATM   17  C2  UNL     1      23.958  18.245  65.032  1.00  0.00     0.214 C 
HETATM   18  C1  UNL     1      23.848  18.478  66.491  1.00  0.00     0.117 C 
HETATM   19  O1  UNL     1      22.966  18.549  64.319  1.00  0.00    -0.274 OA
ATOM     20  H1  UNL     1      25.906  17.462  64.998  1.00  0.00     0.163 HD
ENDBRANCH   1  16
BRANCH   2  21
HETATM   21  O2  UNL     1      23.581  15.715  63.194  1.00  0.00    -0.393 OA
ATOM     22  H2  UNL     1      23.037  15.216  62.596  1.00  0.00     0.210 HD
ENDBRANCH   2  21
BRANCH   4  23
HETATM   23  O3  UNL     1      25.814  16.828  59.202  1.00  0.00    -0.357 OA
ATOM     24  H3  UNL     1      26.628  16.640  58.751  1.00  0.00     0.213 HD
ENDBRANCH   4  23
BRANCH   4  25
HETATM   25  C7  UNL     1      26.888  15.245  60.527  1.00  0.00     0.238 C 
HETATM   26  O4  UNL     1      26.447  14.186  60.011  1.00  0.00    -0.644 OA
HETATM   27  O5  UNL     1      28.172  15.170  61.045  1.00  0.00    -0.644 OA
ENDBRANCH   4  25
TORSDOF 10
ENDMDL
