MODEL 2
REMARK VINA RESULT: -6.687740882      2.301      3.634
REMARK  10 active torsions:
REMARK  status: ('A' for Active; 'I' for Inactive)
REMARK       I    between atoms: C2_2  and  N1_4 
REMARK    1  A    between atoms: N1_4  and  C3_6 
REMARK    2  A    between atoms: C4_7  and  O2_8 
REMARK    3  A    between atoms: C6_11  and  O3_12 
REMARK    4  A    between atoms: C6_11  and  C7_14 
REMARK    5  A    between atoms: C8_18  and  C9_19 
REMARK    6  A    between atoms: C9_19  and  O7_20 
REMARK    7  A    between atoms: C9_19  and  C10_22 
REMARK    8  A    between atoms: C10_22  and  O8_23 
REMARK    9  A    between atoms: C10_22  and  C11_25 
REMARK   10  A    between atoms: C11_25  and  O9_26 
ROOT
HETATM    1  C3  UNL     1      25.761  18.756  64.270  1.00  0.00     0.145 C 
HETATM    2  C4  UNL     1      26.820  17.741  63.841  1.00  0.00     0.149 C 
HETATM    3  C5  UNL     1      27.012  17.964  62.361  1.00  0.00     0.114 C 
HETATM    4  C6  UNL     1      27.492  19.376  62.163  1.00  0.00     0.256 C 
HETATM    5  O6  UNL     1      26.761  20.337  62.824  1.00  0.00    -0.336 OA
HETATM    6  C8  UNL     1      26.476  20.106  64.137  1.00  0.00     0.182 C 
ENDROOT
BRANCH   6   7
HETATM    7  C9  UNL     1      25.605  21.228  64.644  1.00  0.00     0.180 C 
BRANCH   7   8
HETATM    8  O7  UNL     1      24.840  21.788  63.616  1.00  0.00    -0.390 OA
ATOM      9  H7  UNL     1      25.200  22.619  63.327  1.00  0.00     0.210 HD
ENDBRANCH   7   8
BRANCH   7  10
HETATM   10  C10 UNL     1      26.528  22.309  65.164  1.00  0.00     0.173 C 
BRANCH  10  11
HETATM   11  O8  UNL     1      26.844  23.197  64.143  1.00  0.00    -0.391 OA
ATOM     12  H8  UNL     1      26.420  22.930  63.336  1.00  0.00     0.210 HD
ENDBRANCH  10  11
BRANCH  10  13
HETATM   13  C11 UNL     1      27.788  21.664  65.737  1.00  0.00     0.198 C 
BRANCH  13  14
HETATM   14  O9  UNL     1      28.878  22.384  65.242  1.00  0.00    -0.398 OA
ATOM     15  H9  UNL     1      29.536  22.400  65.928  1.00  0.00     0.209 HD
ENDBRANCH  13  14
ENDBRANCH  10  13
ENDBRANCH   7  10
ENDBRANCH   6   7
BRANCH   1  16
HETATM   16  N1  UNL     1      25.282  18.523  65.598  1.00  0.00    -0.352 N 
HETATM   17  C2  UNL     1      23.914  18.561  65.943  1.00  0.00     0.214 C 
HETATM   18  C1  UNL     1      23.408  18.322  67.314  1.00  0.00     0.117 C 
HETATM   19  O1  UNL     1      23.065  18.810  65.046  1.00  0.00    -0.274 OA
ATOM     20  H1  UNL     1      25.963  18.321  66.330  1.00  0.00     0.163 HD
ENDBRANCH   1  16
BRANCH   2  21
HETATM   21  O2  UNL     1      26.417  16.442  64.129  1.00  0.00    -0.393 OA
ATOM     22  H2  UNL     1      26.629  15.851  63.416  1.00  0.00     0.210 HD
ENDBRANCH   2  21
BRANCH   4  23
HETATM   23  O3  UNL     1      27.279  19.639  60.782  1.00  0.00    -0.357 OA
ATOM     24  H3  UNL     1      26.784  18.890  60.469  1.00  0.00     0.213 HD
ENDBRANCH   4  23
BRANCH   4  25
HETATM   25  C7  UNL     1      28.931  19.441  62.409  1.00  0.00     0.238 C 
HETATM   26  O4  UNL     1      29.671  18.494  62.037  1.00  0.00    -0.644 OA
HETATM   27  O5  UNL     1      29.576  20.494  63.040  1.00  0.00    -0.644 OA
ENDBRANCH   4  25
TORSDOF 10
ENDMDL
