MODEL 12
REMARK VINA RESULT: -5.971299959      1.963      4.648
REMARK  10 active torsions:
REMARK  status: ('A' for Active; 'I' for Inactive)
REMARK       I    between atoms: C2_2  and  N1_4 
REMARK    1  A    between atoms: N1_4  and  C3_6 
REMARK    2  A    between atoms: C4_7  and  O2_8 
REMARK    3  A    between atoms: C6_11  and  O3_12 
REMARK    4  A    between atoms: C6_11  and  C7_14 
REMARK    5  A    between atoms: C8_18  and  C9_19 
REMARK    6  A    between atoms: C9_19  and  O7_20 
REMARK    7  A    between atoms: C9_19  and  C10_22 
REMARK    8  A    between atoms: C10_22  and  O8_23 
REMARK    9  A    between atoms: C10_22  and  C11_25 
REMARK   10  A    between atoms: C11_25  and  O9_26 
ROOT
HETATM    1  C3  UNL     1      25.836  17.033  63.075  1.00  0.00     0.145 C 
HETATM    2  C4  UNL     1      24.403  17.411  63.451  1.00  0.00     0.149 C 
HETATM    3  C5  UNL     1      24.486  17.937  64.862  1.00  0.00     0.114 C 
HETATM    4  C6  UNL     1      25.389  19.141  64.857  1.00  0.00     0.256 C 
HETATM    5  O6  UNL     1      26.592  18.962  64.214  1.00  0.00    -0.336 OA
HETATM    6  C8  UNL     1      26.556  18.384  62.980  1.00  0.00     0.182 C 
ENDROOT
BRANCH   6   7
HETATM    7  C9  UNL     1      27.971  18.205  62.491  1.00  0.00     0.180 C 
BRANCH   7   8
HETATM    8  O7  UNL     1      28.549  17.040  63.007  1.00  0.00    -0.390 OA
ATOM      9  H7  UNL     1      29.178  16.665  62.403  1.00  0.00     0.210 HD
ENDBRANCH   7   8
BRANCH   7  10
HETATM   10  C10 UNL     1      28.773  19.378  63.012  1.00  0.00     0.173 C 
BRANCH  10  11
HETATM   11  O8  UNL     1      28.374  20.547  62.376  1.00  0.00    -0.391 OA
ATOM     12  H8  UNL     1      28.819  21.294  62.760  1.00  0.00     0.210 HD
ENDBRANCH  10  11
BRANCH  10  13
HETATM   13  C11 UNL     1      30.260  19.112  62.787  1.00  0.00     0.198 C 
BRANCH  13  14
HETATM   14  O9  UNL     1      30.389  18.560  61.510  1.00  0.00    -0.398 OA
ATOM     15  H9  UNL     1      31.314  18.390  61.373  1.00  0.00     0.209 HD
ENDBRANCH  13  14
ENDBRANCH  10  13
ENDBRANCH   7  10
ENDBRANCH   6   7
BRANCH   1  16
HETATM   16  N1  UNL     1      25.906  16.293  61.853  1.00  0.00    -0.352 N 
HETATM   17  C2  UNL     1      26.444  14.990  61.769  1.00  0.00     0.214 C 
HETATM   18  C1  UNL     1      26.522  14.215  60.509  1.00  0.00     0.117 C 
HETATM   19  O1  UNL     1      26.884  14.443  62.815  1.00  0.00    -0.274 OA
ATOM     20  H1  UNL     1      25.551  16.727  61.001  1.00  0.00     0.163 HD
ENDBRANCH   1  16
BRANCH   2  21
HETATM   21  O2  UNL     1      23.551  16.318  63.346  1.00  0.00    -0.393 OA
ATOM     22  H2  UNL     1      23.920  15.648  62.784  1.00  0.00     0.210 HD
ENDBRANCH   2  21
BRANCH   4  23
HETATM   23  O3  UNL     1      25.730  19.340  66.223  1.00  0.00    -0.357 OA
ATOM     24  H3  UNL     1      26.125  20.204  66.249  1.00  0.00     0.213 HD
ENDBRANCH   4  23
BRANCH   4  25
HETATM   25  C7  UNL     1      24.637  20.312  64.413  1.00  0.00     0.238 C 
HETATM   26  O4  UNL     1      23.449  20.474  64.795  1.00  0.00    -0.644 OA
HETATM   27  O5  UNL     1      25.136  21.298  63.575  1.00  0.00    -0.644 OA
ENDBRANCH   4  25
TORSDOF 10
ENDMDL
