MODEL 3
REMARK VINA RESULT: -6.288585249      1.817      3.297
REMARK  9 active torsions:
REMARK  status: ('A' for Active; 'I' for Inactive)
REMARK       I    between atoms: C2_2  and  N1_4 
REMARK    1  A    between atoms: N1_4  and  C3_6 
REMARK    2  A    between atoms: C4_7  and  O2_8 
REMARK    3  A    between atoms: C6_11  and  C7_12 
REMARK    4  A    between atoms: C8_16  and  C9_17 
REMARK    5  A    between atoms: C9_17  and  O6_18 
REMARK    6  A    between atoms: C9_17  and  C10_20 
REMARK    7  A    between atoms: C10_20  and  O7_21 
REMARK    8  A    between atoms: C10_20  and  C11_23 
REMARK    9  A    between atoms: C11_23  and  O8_24 
ROOT
HETATM    1  C3  UNL     1      25.275  17.589  63.198  1.00  0.00     0.149 C 
HETATM    2  C4  UNL     1      24.923  16.147  62.942  1.00  0.00     0.169 C 
HETATM    3  C5  UNL     1      25.295  15.835  61.546  1.00  0.00     0.050 C 
HETATM    4  C6  UNL     1      26.277  16.479  60.954  1.00  0.00     0.144 C 
HETATM    5  O5  UNL     1      26.998  17.461  61.594  1.00  0.00    -0.335 OA
HETATM    6  C8  UNL     1      26.746  17.873  62.915  1.00  0.00     0.186 C 
ENDROOT
BRANCH   6   7
HETATM    7  C9  UNL     1      26.922  19.339  63.126  1.00  0.00     0.180 C 
BRANCH   7   8
HETATM    8  O6  UNL     1      25.951  20.052  62.444  1.00  0.00    -0.390 OA
ATOM      9  H6  UNL     1      26.348  20.701  61.876  1.00  0.00     0.210 HD
ENDBRANCH   7   8
BRANCH   7  10
HETATM   10  C10 UNL     1      28.284  19.861  62.838  1.00  0.00     0.173 C 
BRANCH  10  11
HETATM   11  O7  UNL     1      29.182  18.780  63.004  1.00  0.00    -0.391 OA
ATOM     12  H7  UNL     1      29.831  18.853  62.315  1.00  0.00     0.210 HD
ENDBRANCH  10  11
BRANCH  10  13
HETATM   13  C11 UNL     1      28.733  20.908  63.848  1.00  0.00     0.198 C 
BRANCH  13  14
HETATM   14  O8  UNL     1      27.737  21.862  64.034  1.00  0.00    -0.398 OA
ATOM     15  H8  UNL     1      27.008  21.698  63.447  1.00  0.00     0.209 HD
ENDBRANCH  13  14
ENDBRANCH  10  13
ENDBRANCH   7  10
ENDBRANCH   6   7
BRANCH   1  16
HETATM   16  N1  UNL     1      25.062  17.860  64.605  1.00  0.00    -0.351 N 
HETATM   17  C2  UNL     1      23.869  18.421  65.124  1.00  0.00     0.214 C 
HETATM   18  C1  UNL     1      23.699  18.682  66.594  1.00  0.00     0.117 C 
HETATM   19  O1  UNL     1      22.947  18.699  64.325  1.00  0.00    -0.274 OA
ATOM     20  H1  UNL     1      25.811  17.634  65.258  1.00  0.00     0.163 HD
ENDBRANCH   1  16
BRANCH   2  21
HETATM   21  O2  UNL     1      23.538  16.033  63.057  1.00  0.00    -0.389 OA
ATOM     22  H2  UNL     1      23.203  16.890  63.291  1.00  0.00     0.210 HD
ENDBRANCH   2  21
BRANCH   4  23
HETATM   23  C7  UNL     1      26.601  16.121  59.558  1.00  0.00     0.233 C 
HETATM   24  O3  UNL     1      26.823  14.949  59.219  1.00  0.00    -0.642 OA
HETATM   25  O4  UNL     1      26.665  17.101  58.575  1.00  0.00    -0.642 OA
ENDBRANCH   4  23
TORSDOF 9
ENDMDL
