MODEL 1
REMARK VINA RESULT: -6.606625923      0.000      0.000
REMARK  9 active torsions:
REMARK  status: ('A' for Active; 'I' for Inactive)
REMARK       I    between atoms: C2_2  and  N1_4 
REMARK    1  A    between atoms: N1_4  and  C3_6 
REMARK    2  A    between atoms: C4_7  and  O2_8 
REMARK    3  A    between atoms: C6_11  and  C7_12 
REMARK    4  A    between atoms: C8_16  and  C9_17 
REMARK    5  A    between atoms: C9_17  and  O6_18 
REMARK    6  A    between atoms: C9_17  and  C10_20 
REMARK    7  A    between atoms: C10_20  and  O7_21 
REMARK    8  A    between atoms: C10_20  and  C11_23 
REMARK    9  A    between atoms: C11_23  and  O8_24 
ROOT
HETATM    1  C3  UNL     1      25.359  18.878  63.628  1.00  0.00     0.149 C 
HETATM    2  C4  UNL     1      24.340  18.122  64.441  1.00  0.00     0.169 C 
HETATM    3  C5  UNL     1      23.814  17.029  63.596  1.00  0.00     0.050 C 
HETATM    4  C6  UNL     1      24.556  16.498  62.649  1.00  0.00     0.144 C 
HETATM    5  O5  UNL     1      25.840  16.925  62.399  1.00  0.00    -0.335 OA
HETATM    6  C8  UNL     1      26.464  17.965  63.112  1.00  0.00     0.186 C 
ENDROOT
BRANCH   6   7
HETATM    7  C9  UNL     1      27.337  18.827  62.264  1.00  0.00     0.180 C 
BRANCH   7   8
HETATM    8  O6  UNL     1      26.596  19.819  61.647  1.00  0.00    -0.390 OA
ATOM      9  H6  UNL     1      26.238  19.509  60.825  1.00  0.00     0.210 HD
ENDBRANCH   7   8
BRANCH   7  10
HETATM   10  C10 UNL     1      28.191  18.100  61.289  1.00  0.00     0.173 C 
BRANCH  10  11
HETATM   11  O7  UNL     1      29.462  18.723  61.310  1.00  0.00    -0.391 OA
ATOM     12  H7  UNL     1      29.749  18.794  60.408  1.00  0.00     0.210 HD
ENDBRANCH  10  11
BRANCH  10  13
HETATM   13  C11 UNL     1      27.700  18.251  59.856  1.00  0.00     0.198 C 
BRANCH  13  14
HETATM   14  O8  UNL     1      26.565  17.472  59.648  1.00  0.00    -0.398 OA
ATOM     15  H8  UNL     1      26.393  17.380  58.718  1.00  0.00     0.209 HD
ENDBRANCH  13  14
ENDBRANCH  10  13
ENDBRANCH   7  10
ENDBRANCH   6   7
BRANCH   1  16
HETATM   16  N1  UNL     1      25.992  19.850  64.496  1.00  0.00    -0.351 N 
HETATM   17  C2  UNL     1      25.684  21.233  64.484  1.00  0.00     0.214 C 
HETATM   18  C1  UNL     1      26.372  22.198  65.408  1.00  0.00     0.117 C 
HETATM   19  O1  UNL     1      24.815  21.640  63.681  1.00  0.00    -0.274 OA
ATOM     20  H1  UNL     1      26.700  19.520  65.152  1.00  0.00     0.163 HD
ENDBRANCH   1  16
BRANCH   2  21
HETATM   21  O2  UNL     1      23.293  19.001  64.714  1.00  0.00    -0.389 OA
ATOM     22  H2  UNL     1      22.979  18.804  65.588  1.00  0.00     0.210 HD
ENDBRANCH   2  21
BRANCH   4  23
HETATM   23  C7  UNL     1      23.973  15.409  61.839  1.00  0.00     0.233 C 
HETATM   24  O3  UNL     1      23.766  15.539  60.624  1.00  0.00    -0.642 OA
HETATM   25  O4  UNL     1      23.638  14.194  62.426  1.00  0.00    -0.642 OA
ENDBRANCH   4  23
TORSDOF 9
ENDMDL
