MODEL 2
REMARK VINA RESULT: -6.411363670      2.308      4.624
REMARK  9 active torsions:
REMARK  status: ('A' for Active; 'I' for Inactive)
REMARK       I    between atoms: C2_2  and  N1_4 
REMARK    1  A    between atoms: N1_4  and  C3_6 
REMARK    2  A    between atoms: C4_7  and  O2_8 
REMARK    3  A    between atoms: C6_11  and  C7_12 
REMARK    4  A    between atoms: C8_16  and  C9_17 
REMARK    5  A    between atoms: C9_17  and  O6_18 
REMARK    6  A    between atoms: C9_17  and  C10_20 
REMARK    7  A    between atoms: C10_20  and  O7_21 
REMARK    8  A    between atoms: C10_20  and  C11_23 
REMARK    9  A    between atoms: C11_23  and  O8_24 
ROOT
HETATM    1  C3  UNL     1      25.543  16.507  62.594  1.00  0.00     0.149 C 
HETATM    2  C4  UNL     1      24.047  16.389  62.464  1.00  0.00     0.169 C 
HETATM    3  C5  UNL     1      23.439  17.150  63.576  1.00  0.00     0.050 C 
HETATM    4  C6  UNL     1      24.063  18.181  64.103  1.00  0.00     0.144 C 
HETATM    5  O5  UNL     1      25.295  18.597  63.654  1.00  0.00    -0.335 OA
HETATM    6  C8  UNL     1      25.999  17.961  62.615  1.00  0.00     0.186 C 
ENDROOT
BRANCH   6   7
HETATM    7  C9  UNL     1      27.473  17.919  62.834  1.00  0.00     0.180 C 
BRANCH   7   8
HETATM    8  O6  UNL     1      27.791  17.054  63.866  1.00  0.00    -0.390 OA
ATOM      9  H6  UNL     1      28.476  16.452  63.602  1.00  0.00     0.210 HD
ENDBRANCH   7   8
BRANCH   7  10
HETATM   10  C10 UNL     1      28.126  19.243  63.012  1.00  0.00     0.173 C 
BRANCH  10  11
HETATM   11  O7  UNL     1      27.535  20.121  62.072  1.00  0.00    -0.391 OA
ATOM     12  H7  UNL     1      27.215  19.585  61.358  1.00  0.00     0.210 HD
ENDBRANCH  10  11
BRANCH  10  13
HETATM   13  C11 UNL     1      29.605  19.218  62.657  1.00  0.00     0.198 C 
BRANCH  13  14
HETATM   14  O8  UNL     1      29.785  18.737  61.362  1.00  0.00    -0.398 OA
ATOM     15  H8  UNL     1      29.598  19.418  60.728  1.00  0.00     0.209 HD
ENDBRANCH  13  14
ENDBRANCH  10  13
ENDBRANCH   7  10
ENDBRANCH   6   7
BRANCH   1  16
HETATM   16  N1  UNL     1      26.143  15.899  61.424  1.00  0.00    -0.351 N 
HETATM   17  C2  UNL     1      26.988  14.763  61.475  1.00  0.00     0.214 C 
HETATM   18  C1  UNL     1      27.585  14.172  60.229  1.00  0.00     0.117 C 
HETATM   19  O1  UNL     1      27.230  14.253  62.592  1.00  0.00    -0.274 OA
ATOM     20  H1  UNL     1      25.947  16.312  60.512  1.00  0.00     0.163 HD
ENDBRANCH   1  16
BRANCH   2  21
HETATM   21  O2  UNL     1      23.721  15.044  62.631  1.00  0.00    -0.389 OA
ATOM     22  H2  UNL     1      22.802  15.003  62.866  1.00  0.00     0.210 HD
ENDBRANCH   2  21
BRANCH   4  23
HETATM   23  C7  UNL     1      23.403  18.899  65.212  1.00  0.00     0.233 C 
HETATM   24  O3  UNL     1      22.787  19.960  65.027  1.00  0.00    -0.642 OA
HETATM   25  O4  UNL     1      23.455  18.400  66.508  1.00  0.00    -0.642 OA
ENDBRANCH   4  23
TORSDOF 9
ENDMDL
