MODEL 5
REMARK VINA RESULT: -6.124459999      1.860      3.854
REMARK  9 active torsions:
REMARK  status: ('A' for Active; 'I' for Inactive)
REMARK       I    between atoms: C2_2  and  N1_4 
REMARK    1  A    between atoms: N1_4  and  C3_6 
REMARK    2  A    between atoms: C4_7  and  O2_8 
REMARK    3  A    between atoms: C6_11  and  C7_12 
REMARK    4  A    between atoms: C8_16  and  C9_17 
REMARK    5  A    between atoms: C9_17  and  O6_18 
REMARK    6  A    between atoms: C9_17  and  C10_20 
REMARK    7  A    between atoms: C10_20  and  O7_21 
REMARK    8  A    between atoms: C10_20  and  C11_23 
REMARK    9  A    between atoms: C11_23  and  O8_24 
ROOT
HETATM    1  C3  UNL     1      25.065  18.347  63.979  1.00  0.00     0.149 C 
HETATM    2  C4  UNL     1      25.017  16.913  63.519  1.00  0.00     0.169 C 
HETATM    3  C5  UNL     1      25.612  16.855  62.167  1.00  0.00     0.050 C 
HETATM    4  C6  UNL     1      26.527  17.726  61.800  1.00  0.00     0.144 C 
HETATM    5  O5  UNL     1      26.970  18.720  62.642  1.00  0.00    -0.335 OA
HETATM    6  C8  UNL     1      26.483  18.906  63.948  1.00  0.00     0.186 C 
ENDROOT
BRANCH   6   7
HETATM    7  C9  UNL     1      26.361  20.339  64.340  1.00  0.00     0.180 C 
BRANCH   7   8
HETATM    8  O6  UNL     1      25.396  20.975  63.579  1.00  0.00    -0.390 OA
ATOM      9  H6  UNL     1      25.797  21.558  62.946  1.00  0.00     0.210 HD
ENDBRANCH   7   8
BRANCH   7  10
HETATM   10  C10 UNL     1      27.636  21.104  64.351  1.00  0.00     0.173 C 
BRANCH  10  11
HETATM   11  O7  UNL     1      28.643  20.216  64.800  1.00  0.00    -0.391 OA
ATOM     12  H7  UNL     1      29.183  20.009  64.046  1.00  0.00     0.210 HD
ENDBRANCH  10  11
BRANCH  10  13
HETATM   13  C11 UNL     1      27.627  22.239  65.366  1.00  0.00     0.198 C 
BRANCH  13  14
HETATM   14  O8  UNL     1      26.857  23.300  64.901  1.00  0.00    -0.398 OA
ATOM     15  H8  UNL     1      26.305  23.638  65.595  1.00  0.00     0.209 HD
ENDBRANCH  13  14
ENDBRANCH  10  13
ENDBRANCH   7  10
ENDBRANCH   6   7
BRANCH   1  16
HETATM   16  N1  UNL     1      24.631  18.390  65.360  1.00  0.00    -0.351 N 
HETATM   17  C2  UNL     1      23.522  19.147  65.811  1.00  0.00     0.214 C 
HETATM   18  C1  UNL     1      23.113  19.155  67.257  1.00  0.00     0.117 C 
HETATM   19  O1  UNL     1      22.879  19.816  64.972  1.00  0.00    -0.274 OA
ATOM     20  H1  UNL     1      25.152  17.844  66.046  1.00  0.00     0.163 HD
ENDBRANCH   1  16
BRANCH   2  21
HETATM   21  O2  UNL     1      23.673  16.557  63.416  1.00  0.00    -0.389 OA
ATOM     22  H2  UNL     1      23.347  16.918  62.601  1.00  0.00     0.210 HD
ENDBRANCH   2  21
BRANCH   4  23
HETATM   23  C7  UNL     1      27.083  17.615  60.436  1.00  0.00     0.233 C 
HETATM   24  O3  UNL     1      27.808  18.498  59.953  1.00  0.00    -0.642 OA
HETATM   25  O4  UNL     1      26.807  16.504  59.649  1.00  0.00    -0.642 OA
ENDBRANCH   4  23
TORSDOF 9
ENDMDL
