MODEL 4
REMARK VINA RESULT: -6.178485754      2.269      4.723
REMARK  9 active torsions:
REMARK  status: ('A' for Active; 'I' for Inactive)
REMARK       I    between atoms: C2_2  and  N1_4 
REMARK    1  A    between atoms: N1_4  and  C3_6 
REMARK    2  A    between atoms: C4_7  and  O2_8 
REMARK    3  A    between atoms: C6_11  and  C7_12 
REMARK    4  A    between atoms: C8_16  and  C9_17 
REMARK    5  A    between atoms: C9_17  and  O6_18 
REMARK    6  A    between atoms: C9_17  and  C10_20 
REMARK    7  A    between atoms: C10_20  and  O7_21 
REMARK    8  A    between atoms: C10_20  and  C11_23 
REMARK    9  A    between atoms: C11_23  and  O8_24 
ROOT
HETATM    1  C3  UNL     1      25.545  16.512  62.486  1.00  0.00     0.149 C 
HETATM    2  C4  UNL     1      24.043  16.398  62.475  1.00  0.00     0.169 C 
HETATM    3  C5  UNL     1      23.525  17.189  63.611  1.00  0.00     0.050 C 
HETATM    4  C6  UNL     1      24.191  18.230  64.061  1.00  0.00     0.144 C 
HETATM    5  O5  UNL     1      25.386  18.630  63.507  1.00  0.00    -0.335 OA
HETATM    6  C8  UNL     1      26.005  17.964  62.434  1.00  0.00     0.186 C 
ENDROOT
BRANCH   6   7
HETATM    7  C9  UNL     1      27.492  17.921  62.539  1.00  0.00     0.180 C 
BRANCH   7   8
HETATM    8  O6  UNL     1      27.885  17.662  63.840  1.00  0.00    -0.390 OA
ATOM      9  H6  UNL     1      28.285  18.430  64.230  1.00  0.00     0.210 HD
ENDBRANCH   7   8
BRANCH   7  10
HETATM   10  C10 UNL     1      28.201  19.102  61.981  1.00  0.00     0.173 C 
BRANCH  10  11
HETATM   11  O7  UNL     1      29.309  18.609  61.251  1.00  0.00    -0.391 OA
ATOM     12  H7  UNL     1      29.571  19.296  60.650  1.00  0.00     0.210 HD
ENDBRANCH  10  11
BRANCH  10  13
HETATM   13  C11 UNL     1      28.803  19.987  63.064  1.00  0.00     0.198 C 
BRANCH  13  14
HETATM   14  O8  UNL     1      28.616  21.331  62.752  1.00  0.00    -0.398 OA
ATOM     15  H8  UNL     1      27.829  21.444  62.233  1.00  0.00     0.209 HD
ENDBRANCH  13  14
ENDBRANCH  10  13
ENDBRANCH   7  10
ENDBRANCH   6   7
BRANCH   1  16
HETATM   16  N1  UNL     1      26.052  15.872  61.289  1.00  0.00    -0.351 N 
HETATM   17  C2  UNL     1      26.891  14.731  61.304  1.00  0.00     0.214 C 
HETATM   18  C1  UNL     1      27.388  14.105  60.031  1.00  0.00     0.117 C 
HETATM   19  O1  UNL     1      27.214  14.246  62.411  1.00  0.00    -0.274 OA
ATOM     20  H1  UNL     1      25.789  16.264  60.385  1.00  0.00     0.163 HD
ENDBRANCH   1  16
BRANCH   2  21
HETATM   21  O2  UNL     1      23.728  15.059  62.701  1.00  0.00    -0.389 OA
ATOM     22  H2  UNL     1      23.020  15.039  63.334  1.00  0.00     0.210 HD
ENDBRANCH   2  21
BRANCH   4  23
HETATM   23  C7  UNL     1      23.621  18.980  65.199  1.00  0.00     0.233 C 
HETATM   24  O3  UNL     1      24.060  18.851  66.352  1.00  0.00    -0.642 OA
HETATM   25  O4  UNL     1      22.565  19.863  65.005  1.00  0.00    -0.642 OA
ENDBRANCH   4  23
TORSDOF 9
ENDMDL
