MODEL 5
REMARK VINA RESULT: -6.163247563      2.587      6.077
REMARK  9 active torsions:
REMARK  status: ('A' for Active; 'I' for Inactive)
REMARK       I    between atoms: C2_2  and  N1_4 
REMARK    1  A    between atoms: N1_4  and  C3_6 
REMARK    2  A    between atoms: C4_7  and  N2_8 
REMARK    3  A    between atoms: C6_13  and  C7_14 
REMARK    4  A    between atoms: C8_18  and  C9_19 
REMARK    5  A    between atoms: C9_19  and  O5_20 
REMARK    6  A    between atoms: C9_19  and  C10_22 
REMARK    7  A    between atoms: C10_22  and  O6_23 
REMARK    8  A    between atoms: C10_22  and  C11_25 
REMARK    9  A    between atoms: C11_25  and  O7_26 
ROOT
HETATM    1  C3  UNL     1      24.968  18.558  63.900  1.00  0.00     0.150 C 
HETATM    2  C4  UNL     1      24.522  17.239  63.369  1.00  0.00     0.234 C 
HETATM    3  C5  UNL     1      25.258  16.782  62.179  1.00  0.00     0.051 C 
HETATM    4  C6  UNL     1      26.434  17.246  61.824  1.00  0.00     0.144 C 
HETATM    5  O4  UNL     1      27.006  18.214  62.616  1.00  0.00    -0.335 OA
HETATM    6  C8  UNL     1      26.406  18.881  63.669  1.00  0.00     0.185 C 
ENDROOT
BRANCH   6   7
HETATM    7  C9  UNL     1      26.653  20.366  63.533  1.00  0.00     0.180 C 
BRANCH   7   8
HETATM    8  O5  UNL     1      27.993  20.708  63.494  1.00  0.00    -0.390 OA
ATOM      9  H5  UNL     1      28.257  21.139  62.689  1.00  0.00     0.210 HD
ENDBRANCH   7   8
BRANCH   7  10
HETATM   10  C10 UNL     1      25.956  21.203  64.558  1.00  0.00     0.173 C 
BRANCH  10  11
HETATM   11  O6  UNL     1      24.974  21.983  63.899  1.00  0.00    -0.391 OA
ATOM     12  H6  UNL     1      24.176  21.950  64.412  1.00  0.00     0.210 HD
ENDBRANCH  10  11
BRANCH  10  13
HETATM   13  C11 UNL     1      26.909  22.247  65.157  1.00  0.00     0.198 C 
BRANCH  13  14
HETATM   14  O7  UNL     1      26.847  23.423  64.390  1.00  0.00    -0.398 OA
ATOM     15  H7  UNL     1      27.500  24.036  64.705  1.00  0.00     0.209 HD
ENDBRANCH  13  14
ENDBRANCH  10  13
ENDBRANCH   7  10
ENDBRANCH   6   7
BRANCH   1  16
HETATM   16  N1  UNL     1      24.660  18.537  65.340  1.00  0.00    -0.352 N 
HETATM   17  C2  UNL     1      23.548  19.237  65.884  1.00  0.00     0.214 C 
HETATM   18  C1  UNL     1      23.227  19.223  67.339  1.00  0.00     0.117 C 
HETATM   19  O1  UNL     1      22.842  19.882  65.042  1.00  0.00    -0.274 OA
ATOM     20  H1  UNL     1      25.263  18.003  65.967  1.00  0.00     0.163 HD
ENDBRANCH   1  16
BRANCH   2  21
HETATM   21  N2  UNL     1      23.107  17.303  63.005  1.00  0.00    -0.070 N 
ATOM     22  H23 UNL     1      22.665  18.161  63.336  1.00  0.00     0.275 HD
ATOM     23  H22 UNL     1      22.976  17.447  62.003  1.00  0.00     0.275 HD
ATOM     24  H21 UNL     1      22.626  16.469  63.340  1.00  0.00     0.275 HD
ENDBRANCH   2  21
BRANCH   4  25
HETATM   25  C7  UNL     1      27.104  16.745  60.630  1.00  0.00     0.233 C 
HETATM   26  O2  UNL     1      27.624  15.603  60.627  1.00  0.00    -0.642 OA
HETATM   27  O3  UNL     1      27.179  17.511  59.495  1.00  0.00    -0.642 OA
ENDBRANCH   4  25
TORSDOF 9
ENDMDL
