MODEL 2
REMARK VINA RESULT: -6.273834104      2.162      5.732
REMARK  9 active torsions:
REMARK  status: ('A' for Active; 'I' for Inactive)
REMARK       I    between atoms: C2_2  and  N1_4 
REMARK    1  A    between atoms: N1_4  and  C3_6 
REMARK    2  A    between atoms: C4_7  and  N2_8 
REMARK    3  A    between atoms: C6_13  and  C7_14 
REMARK    4  A    between atoms: C8_18  and  C9_19 
REMARK    5  A    between atoms: C9_19  and  O5_20 
REMARK    6  A    between atoms: C9_19  and  C10_22 
REMARK    7  A    between atoms: C10_22  and  O6_23 
REMARK    8  A    between atoms: C10_22  and  C11_25 
REMARK    9  A    between atoms: C11_25  and  O7_26 
ROOT
HETATM    1  C3  UNL     1      25.128  18.397  63.651  1.00  0.00     0.150 C 
HETATM    2  C4  UNL     1      24.315  17.165  63.452  1.00  0.00     0.234 C 
HETATM    3  C5  UNL     1      24.714  16.353  62.291  1.00  0.00     0.051 C 
HETATM    4  C6  UNL     1      25.886  16.443  61.705  1.00  0.00     0.144 C 
HETATM    5  O4  UNL     1      26.787  17.351  62.211  1.00  0.00    -0.335 OA
HETATM    6  C8  UNL     1      26.541  18.307  63.180  1.00  0.00     0.185 C 
ENDROOT
BRANCH   6   7
HETATM    7  C9  UNL     1      27.087  19.640  62.724  1.00  0.00     0.180 C 
BRANCH   7   8
HETATM    8  O5  UNL     1      27.101  19.798  61.349  1.00  0.00    -0.390 OA
ATOM      9  H5  UNL     1      26.849  20.668  61.059  1.00  0.00     0.210 HD
ENDBRANCH   7   8
BRANCH   7  10
HETATM   10  C10 UNL     1      28.437  19.975  63.276  1.00  0.00     0.173 C 
BRANCH  10  11
HETATM   11  O6  UNL     1      28.932  21.104  62.578  1.00  0.00    -0.391 OA
ATOM     12  H6  UNL     1      29.865  20.987  62.449  1.00  0.00     0.210 HD
ENDBRANCH  10  11
BRANCH  10  13
HETATM   13  C11 UNL     1      29.453  18.871  62.951  1.00  0.00     0.198 C 
BRANCH  13  14
HETATM   14  O7  UNL     1      29.598  18.772  61.556  1.00  0.00    -0.398 OA
ATOM     15  H7  UNL     1      30.473  19.048  61.313  1.00  0.00     0.209 HD
ENDBRANCH  13  14
ENDBRANCH  10  13
ENDBRANCH   7  10
ENDBRANCH   6   7
BRANCH   1  16
HETATM   16  N1  UNL     1      25.075  18.685  65.096  1.00  0.00    -0.352 N 
HETATM   17  C2  UNL     1      24.184  19.651  65.639  1.00  0.00     0.214 C 
HETATM   18  C1  UNL     1      24.121  19.951  67.097  1.00  0.00     0.117 C 
HETATM   19  O1  UNL     1      23.441  20.247  64.794  1.00  0.00    -0.274 OA
ATOM     20  H1  UNL     1      25.696  18.176  65.725  1.00  0.00     0.163 HD
ENDBRANCH   1  16
BRANCH   2  21
HETATM   21  N2  UNL     1      22.909  17.523  63.266  1.00  0.00    -0.070 N 
ATOM     22  H23 UNL     1      22.358  17.363  64.110  1.00  0.00     0.275 HD
ATOM     23  H22 UNL     1      22.777  18.532  63.195  1.00  0.00     0.275 HD
ATOM     24  H21 UNL     1      22.530  17.028  62.459  1.00  0.00     0.275 HD
ENDBRANCH   2  21
BRANCH   4  25
HETATM   25  C7  UNL     1      26.213  15.605  60.558  1.00  0.00     0.233 C 
HETATM   26  O2  UNL     1      26.772  16.101  59.550  1.00  0.00    -0.642 OA
HETATM   27  O3  UNL     1      25.915  14.267  60.560  1.00  0.00    -0.642 OA
ENDBRANCH   4  25
TORSDOF 9
ENDMDL
