MODEL 10
REMARK VINA RESULT: -6.074755128      2.299      5.200
REMARK  9 active torsions:
REMARK  status: ('A' for Active; 'I' for Inactive)
REMARK       I    between atoms: C2_2  and  N1_4 
REMARK    1  A    between atoms: N1_4  and  C3_6 
REMARK    2  A    between atoms: C4_7  and  N2_8 
REMARK    3  A    between atoms: C6_13  and  C7_14 
REMARK    4  A    between atoms: C8_18  and  C9_19 
REMARK    5  A    between atoms: C9_19  and  O5_20 
REMARK    6  A    between atoms: C9_19  and  C10_22 
REMARK    7  A    between atoms: C10_22  and  O6_23 
REMARK    8  A    between atoms: C10_22  and  C11_25 
REMARK    9  A    between atoms: C11_25  and  O7_26 
ROOT
HETATM    1  C3  UNL     1      25.990  16.593  62.303  1.00  0.00     0.150 C 
HETATM    2  C4  UNL     1      27.208  16.123  61.586  1.00  0.00     0.234 C 
HETATM    3  C5  UNL     1      28.338  17.065  61.624  1.00  0.00     0.051 C 
HETATM    4  C6  UNL     1      28.452  18.036  62.501  1.00  0.00     0.144 C 
HETATM    5  O4  UNL     1      27.452  18.173  63.437  1.00  0.00    -0.335 OA
HETATM    6  C8  UNL     1      26.245  17.498  63.461  1.00  0.00     0.185 C 
ENDROOT
BRANCH   6   7
HETATM    7  C9  UNL     1      25.120  18.481  63.688  1.00  0.00     0.180 C 
BRANCH   7   8
HETATM    8  O5  UNL     1      25.539  19.797  63.782  1.00  0.00    -0.390 OA
ATOM      9  H5  UNL     1      24.879  20.386  64.130  1.00  0.00     0.210 HD
ENDBRANCH   7   8
BRANCH   7  10
HETATM   10  C10 UNL     1      24.243  18.155  64.855  1.00  0.00     0.173 C 
BRANCH  10  11
HETATM   11  O6  UNL     1      23.059  17.553  64.362  1.00  0.00    -0.391 OA
ATOM     12  H6  UNL     1      23.275  16.679  64.058  1.00  0.00     0.210 HD
ENDBRANCH  10  11
BRANCH  10  13
HETATM   13  C11 UNL     1      23.743  19.433  65.543  1.00  0.00     0.198 C 
BRANCH  13  14
HETATM   14  O7  UNL     1      22.582  19.884  64.891  1.00  0.00    -0.398 OA
ATOM     15  H7  UNL     1      21.823  19.664  65.418  1.00  0.00     0.209 HD
ENDBRANCH  13  14
ENDBRANCH  10  13
ENDBRANCH   7  10
ENDBRANCH   6   7
BRANCH   1  16
HETATM   16  N1  UNL     1      25.282  15.375  62.735  1.00  0.00    -0.352 N 
HETATM   17  C2  UNL     1      24.165  14.859  62.022  1.00  0.00     0.214 C 
HETATM   18  C1  UNL     1      23.441  13.629  62.448  1.00  0.00     0.117 C 
HETATM   19  O1  UNL     1      23.822  15.521  60.989  1.00  0.00    -0.274 OA
ATOM     20  H1  UNL     1      25.602  14.887  63.572  1.00  0.00     0.163 HD
ENDBRANCH   1  16
BRANCH   2  21
HETATM   21  N2  UNL     1      26.894  15.880  60.179  1.00  0.00    -0.070 N 
ATOM     22  H23 UNL     1      27.131  16.678  59.590  1.00  0.00     0.275 HD
ATOM     23  H22 UNL     1      27.523  15.195  59.759  1.00  0.00     0.275 HD
ATOM     24  H21 UNL     1      25.915  15.610  60.085  1.00  0.00     0.275 HD
ENDBRANCH   2  21
BRANCH   4  25
HETATM   25  C7  UNL     1      29.600  18.933  62.478  1.00  0.00     0.233 C 
HETATM   26  O2  UNL     1      30.689  18.554  61.983  1.00  0.00    -0.642 OA
HETATM   27  O3  UNL     1      29.511  20.199  62.995  1.00  0.00    -0.642 OA
ENDBRANCH   4  25
TORSDOF 9
ENDMDL
