MODEL 4
REMARK VINA RESULT: -6.666917497      3.055      5.220
REMARK  9 active torsions:
REMARK  status: ('A' for Active; 'I' for Inactive)
REMARK       I    between atoms: C2_2  and  N1_4 
REMARK    1  A    between atoms: N1_4  and  C3_6 
REMARK    2  A    between atoms: C4_7  and  N2_8 
REMARK    3  A    between atoms: C7_14  and  C8_15 
REMARK    4  A    between atoms: C9_19  and  C10_20 
REMARK    5  A    between atoms: C10_20  and  O5_21 
REMARK    6  A    between atoms: C10_20  and  C11_23 
REMARK    7  A    between atoms: C11_23  and  O6_24 
REMARK    8  A    between atoms: C11_23  and  C12_26 
REMARK    9  A    between atoms: C12_26  and  O7_27 
ROOT
HETATM    1  C3  UNL     1      27.368  17.747  64.644  1.00  0.00     0.143 C 
HETATM    2  C4  UNL     1      27.336  19.234  64.929  1.00  0.00     0.135 C 
HETATM    3  C6  UNL     1      26.016  19.698  65.360  1.00  0.00     0.044 C 
HETATM    4  C7  UNL     1      24.875  19.148  64.949  1.00  0.00     0.144 C 
HETATM    5  O4  UNL     1      25.010  18.094  64.076  1.00  0.00    -0.335 OA
HETATM    6  C9  UNL     1      26.058  17.180  64.199  1.00  0.00     0.185 C 
ENDROOT
BRANCH   6   7
HETATM    7  C10 UNL     1      26.208  16.251  63.053  1.00  0.00     0.180 C 
BRANCH   7   8
HETATM    8  O5  UNL     1      27.383  15.514  63.218  1.00  0.00    -0.390 OA
ATOM      9  H5  UNL     1      27.431  14.854  62.536  1.00  0.00     0.210 HD
ENDBRANCH   7   8
BRANCH   7  10
HETATM   10  C11 UNL     1      26.059  16.789  61.682  1.00  0.00     0.173 C 
BRANCH  10  11
HETATM   11  O6  UNL     1      26.388  18.098  61.481  1.00  0.00    -0.391 OA
ATOM     12  H6  UNL     1      25.941  18.560  60.781  1.00  0.00     0.210 HD
ENDBRANCH  10  11
BRANCH  10  13
HETATM   13  C12 UNL     1      24.740  16.398  61.040  1.00  0.00     0.198 C 
BRANCH  13  14
HETATM   14  O7  UNL     1      23.679  17.189  61.483  1.00  0.00    -0.398 OA
ATOM     15  H7  UNL     1      23.375  17.792  60.816  1.00  0.00     0.209 HD
ENDBRANCH  13  14
ENDBRANCH  10  13
ENDBRANCH   7  10
ENDBRANCH   6   7
BRANCH   1  16
HETATM   16  N1  UNL     1      27.844  17.033  65.827  1.00  0.00    -0.352 N 
HETATM   17  C2  UNL     1      29.105  16.391  65.818  1.00  0.00     0.214 C 
HETATM   18  C1  UNL     1      29.569  15.664  67.042  1.00  0.00     0.117 C 
HETATM   19  O1  UNL     1      29.826  16.420  64.820  1.00  0.00    -0.274 OA
ATOM     20  H1  UNL     1      27.263  16.997  66.664  1.00  0.00     0.163 HD
ENDBRANCH   1  16
BRANCH   2  21
HETATM   21  N2  UNL     1      27.855  20.021  63.835  1.00  0.00    -0.357 N 
HETATM   22  C5  UNL     1      28.974  20.613  63.832  1.00  0.00     0.197 C 
HETATM   23  N3  UNL     1      29.396  21.360  62.713  1.00  0.00    -0.067 NA
HETATM   24  N4  UNL     1      29.823  20.527  64.954  1.00  0.00    -0.067 NA
ATOM     25  H2  UNL     1      27.275  20.107  63.000  1.00  0.00     0.162 HD
ENDBRANCH   2  21
BRANCH   4  26
HETATM   26  C8  UNL     1      23.592  19.665  65.423  1.00  0.00     0.233 C 
HETATM   27  O2  UNL     1      22.529  19.531  64.782  1.00  0.00    -0.642 OA
HETATM   28  O3  UNL     1      23.534  20.335  66.634  1.00  0.00    -0.642 OA
ENDBRANCH   4  26
TORSDOF 9
ENDMDL
