MODEL 1
REMARK VINA RESULT: -6.893765564      0.000      0.000
REMARK  9 active torsions:
REMARK  status: ('A' for Active; 'I' for Inactive)
REMARK       I    between atoms: C2_2  and  N1_4 
REMARK    1  A    between atoms: N1_4  and  C3_6 
REMARK    2  A    between atoms: C4_7  and  N2_8 
REMARK    3  A    between atoms: C7_14  and  C8_15 
REMARK    4  A    between atoms: C9_19  and  C10_20 
REMARK    5  A    between atoms: C10_20  and  O5_21 
REMARK    6  A    between atoms: C10_20  and  C11_23 
REMARK    7  A    between atoms: C11_23  and  O6_24 
REMARK    8  A    between atoms: C11_23  and  C12_26 
REMARK    9  A    between atoms: C12_26  and  O7_27 
ROOT
HETATM    1  C3  UNL     1      26.198  16.905  62.311  1.00  0.00     0.143 C 
HETATM    2  C4  UNL     1      24.694  16.823  62.477  1.00  0.00     0.135 C 
HETATM    3  C6  UNL     1      24.170  17.842  63.388  1.00  0.00     0.044 C 
HETATM    4  C7  UNL     1      24.857  18.321  64.424  1.00  0.00     0.144 C 
HETATM    5  O4  UNL     1      26.115  17.793  64.593  1.00  0.00    -0.335 OA
HETATM    6  C9  UNL     1      26.916  17.463  63.498  1.00  0.00     0.185 C 
ENDROOT
BRANCH   6   7
HETATM    7  C10 UNL     1      28.135  16.687  63.833  1.00  0.00     0.180 C 
BRANCH   7   8
HETATM    8  O5  UNL     1      27.964  16.096  65.086  1.00  0.00    -0.390 OA
ATOM      9  H5  UNL     1      28.812  16.021  65.509  1.00  0.00     0.210 HD
ENDBRANCH   7   8
BRANCH   7  10
HETATM   10  C11 UNL     1      29.453  17.343  63.684  1.00  0.00     0.173 C 
BRANCH  10  11
HETATM   11  O6  UNL     1      29.623  18.558  64.284  1.00  0.00    -0.391 OA
ATOM     12  H6  UNL     1      29.181  19.304  63.895  1.00  0.00     0.210 HD
ENDBRANCH  10  11
BRANCH  10  13
HETATM   13  C12 UNL     1      29.969  17.302  62.258  1.00  0.00     0.198 C 
BRANCH  13  14
HETATM   14  O7  UNL     1      29.696  18.479  61.560  1.00  0.00    -0.398 OA
ATOM     15  H7  UNL     1      30.484  18.902  61.241  1.00  0.00     0.209 HD
ENDBRANCH  13  14
ENDBRANCH  10  13
ENDBRANCH   7  10
ENDBRANCH   6   7
BRANCH   1  16
HETATM   16  N1  UNL     1      26.515  17.692  61.121  1.00  0.00    -0.352 N 
HETATM   17  C2  UNL     1      26.935  17.053  59.930  1.00  0.00     0.214 C 
HETATM   18  C1  UNL     1      27.257  17.883  58.725  1.00  0.00     0.117 C 
HETATM   19  O1  UNL     1      27.040  15.828  59.869  1.00  0.00    -0.274 OA
ATOM     20  H1  UNL     1      26.434  18.708  61.150  1.00  0.00     0.163 HD
ENDBRANCH   1  16
BRANCH   2  21
HETATM   21  N2  UNL     1      24.245  15.497  62.832  1.00  0.00    -0.357 N 
HETATM   22  C5  UNL     1      23.798  14.639  62.017  1.00  0.00     0.197 C 
HETATM   23  N3  UNL     1      23.382  13.366  62.460  1.00  0.00    -0.067 NA
HETATM   24  N4  UNL     1      23.712  14.944  60.644  1.00  0.00    -0.067 NA
ATOM     25  H2  UNL     1      24.293  15.232  63.816  1.00  0.00     0.162 HD
ENDBRANCH   2  21
BRANCH   4  26
HETATM   26  C8  UNL     1      24.269  19.340  65.293  1.00  0.00     0.233 C 
HETATM   27  O2  UNL     1      24.735  19.624  66.415  1.00  0.00    -0.642 OA
HETATM   28  O3  UNL     1      23.145  20.030  64.869  1.00  0.00    -0.642 OA
ENDBRANCH   4  26
TORSDOF 9
ENDMDL
