MODEL 2
REMARK VINA RESULT: -6.702679830      2.652      5.997
REMARK  9 active torsions:
REMARK  status: ('A' for Active; 'I' for Inactive)
REMARK       I    between atoms: C2_2  and  N1_4 
REMARK    1  A    between atoms: N1_4  and  C3_6 
REMARK    2  A    between atoms: C4_7  and  N2_8 
REMARK    3  A    between atoms: C7_14  and  C8_15 
REMARK    4  A    between atoms: C9_19  and  C10_20 
REMARK    5  A    between atoms: C10_20  and  O5_21 
REMARK    6  A    between atoms: C10_20  and  C11_23 
REMARK    7  A    between atoms: C11_23  and  O6_24 
REMARK    8  A    between atoms: C11_23  and  C12_26 
REMARK    9  A    between atoms: C12_26  and  O7_27 
ROOT
HETATM    1  C3  UNL     1      26.126  17.619  62.326  1.00  0.00     0.143 C 
HETATM    2  C4  UNL     1      27.562  17.700  61.854  1.00  0.00     0.135 C 
HETATM    3  C6  UNL     1      27.673  17.800  60.397  1.00  0.00     0.044 C 
HETATM    4  C7  UNL     1      26.802  17.246  59.556  1.00  0.00     0.144 C 
HETATM    5  O4  UNL     1      25.768  16.559  60.146  1.00  0.00    -0.335 OA
HETATM    6  C9  UNL     1      25.189  17.001  61.337  1.00  0.00     0.185 C 
ENDROOT
BRANCH   6   7
HETATM    7  C10 UNL     1      24.260  16.035  61.971  1.00  0.00     0.180 C 
BRANCH   7   8
HETATM    8  O5  UNL     1      23.591  16.672  63.019  1.00  0.00    -0.390 OA
ATOM      9  H5  UNL     1      22.892  17.205  62.658  1.00  0.00     0.210 HD
ENDBRANCH   7   8
BRANCH   7  10
HETATM   10  C11 UNL     1      24.777  14.701  62.350  1.00  0.00     0.173 C 
BRANCH  10  11
HETATM   11  O6  UNL     1      25.967  14.310  61.807  1.00  0.00    -0.391 OA
ATOM     12  H6  UNL     1      25.937  13.812  60.999  1.00  0.00     0.210 HD
ENDBRANCH  10  11
BRANCH  10  13
HETATM   13  C12 UNL     1      23.710  13.623  62.294  1.00  0.00     0.198 C 
BRANCH  13  14
HETATM   14  O7  UNL     1      22.786  13.736  63.333  1.00  0.00    -0.398 OA
ATOM     15  H7  UNL     1      21.950  13.339  63.118  1.00  0.00     0.209 HD
ENDBRANCH  13  14
ENDBRANCH  10  13
ENDBRANCH   7  10
ENDBRANCH   6   7
BRANCH   1  16
HETATM   16  N1  UNL     1      25.655  18.954  62.690  1.00  0.00    -0.352 N 
HETATM   17  C2  UNL     1      25.871  19.459  63.995  1.00  0.00     0.214 C 
HETATM   18  C1  UNL     1      25.378  20.829  64.343  1.00  0.00     0.117 C 
HETATM   19  O1  UNL     1      26.457  18.790  64.846  1.00  0.00    -0.274 OA
ATOM     20  H1  UNL     1      25.168  19.525  62.000  1.00  0.00     0.163 HD
ENDBRANCH   1  16
BRANCH   2  21
HETATM   21  N2  UNL     1      28.384  16.638  62.387  1.00  0.00    -0.357 N 
HETATM   22  C5  UNL     1      29.335  16.797  63.206  1.00  0.00     0.197 C 
HETATM   23  N3  UNL     1      30.082  15.696  63.672  1.00  0.00    -0.067 NA
HETATM   24  N4  UNL     1      29.660  18.087  63.673  1.00  0.00    -0.067 NA
ATOM     25  H2  UNL     1      28.182  15.687  62.079  1.00  0.00     0.162 HD
ENDBRANCH   2  21
BRANCH   4  26
HETATM   26  C8  UNL     1      26.977  17.389  58.111  1.00  0.00     0.233 C 
HETATM   27  O2  UNL     1      26.580  16.533  57.293  1.00  0.00    -0.642 OA
HETATM   28  O3  UNL     1      27.608  18.515  57.610  1.00  0.00    -0.642 OA
ENDBRANCH   4  26
TORSDOF 9
ENDMDL
