MODEL 5
REMARK VINA RESULT: -6.652397200      2.256      5.217
REMARK  9 active torsions:
REMARK  status: ('A' for Active; 'I' for Inactive)
REMARK       I    between atoms: C2_2  and  N1_4 
REMARK    1  A    between atoms: N1_4  and  C3_6 
REMARK    2  A    between atoms: C4_7  and  N2_8 
REMARK    3  A    between atoms: C7_14  and  C8_15 
REMARK    4  A    between atoms: C9_19  and  C10_20 
REMARK    5  A    between atoms: C10_20  and  O5_21 
REMARK    6  A    between atoms: C10_20  and  C11_23 
REMARK    7  A    between atoms: C11_23  and  O6_24 
REMARK    8  A    between atoms: C11_23  and  C12_26 
REMARK    9  A    between atoms: C12_26  and  O7_27 
ROOT
HETATM    1  C3  UNL     1      25.708  18.355  64.055  1.00  0.00     0.143 C 
HETATM    2  C4  UNL     1      25.782  17.004  63.374  1.00  0.00     0.135 C 
HETATM    3  C6  UNL     1      27.129  16.430  63.403  1.00  0.00     0.044 C 
HETATM    4  C7  UNL     1      28.240  17.165  63.388  1.00  0.00     0.144 C 
HETATM    5  O4  UNL     1      28.046  18.526  63.341  1.00  0.00    -0.335 OA
HETATM    6  C9  UNL     1      26.986  19.131  64.019  1.00  0.00     0.185 C 
ENDROOT
BRANCH   6   7
HETATM    7  C10 UNL     1      26.767  20.558  63.681  1.00  0.00     0.180 C 
BRANCH   7   8
HETATM    8  O5  UNL     1      28.003  21.206  63.632  1.00  0.00    -0.390 OA
ATOM      9  H5  UNL     1      27.911  22.073  64.008  1.00  0.00     0.210 HD
ENDBRANCH   7   8
BRANCH   7  10
HETATM   10  C11 UNL     1      25.753  21.318  64.445  1.00  0.00     0.173 C 
BRANCH  10  11
HETATM   11  O6  UNL     1      24.740  21.901  63.740  1.00  0.00    -0.391 OA
ATOM     12  H6  UNL     1      24.096  22.400  64.230  1.00  0.00     0.210 HD
ENDBRANCH  10  11
BRANCH  10  13
HETATM   13  C12 UNL     1      26.371  22.241  65.479  1.00  0.00     0.198 C 
BRANCH  13  14
HETATM   14  O7  UNL     1      26.881  23.409  64.911  1.00  0.00    -0.398 OA
ATOM     15  H7  UNL     1      27.673  23.705  65.343  1.00  0.00     0.209 HD
ENDBRANCH  13  14
ENDBRANCH  10  13
ENDBRANCH   7  10
ENDBRANCH   6   7
BRANCH   1  16
HETATM   16  N1  UNL     1      25.270  18.180  65.438  1.00  0.00    -0.352 N 
HETATM   17  C2  UNL     1      23.949  18.518  65.820  1.00  0.00     0.214 C 
HETATM   18  C1  UNL     1      23.525  18.332  67.244  1.00  0.00     0.117 C 
HETATM   19  O1  UNL     1      23.145  18.962  65.000  1.00  0.00    -0.274 OA
ATOM     20  H1  UNL     1      25.919  17.812  66.133  1.00  0.00     0.163 HD
ENDBRANCH   1  16
BRANCH   2  21
HETATM   21  N2  UNL     1      25.232  17.024  62.038  1.00  0.00    -0.357 N 
HETATM   22  C5  UNL     1      24.371  16.209  61.595  1.00  0.00     0.197 C 
HETATM   23  N3  UNL     1      23.892  16.308  60.273  1.00  0.00    -0.067 NA
HETATM   24  N4  UNL     1      23.871  15.186  62.426  1.00  0.00    -0.067 NA
ATOM     25  H2  UNL     1      25.564  17.749  61.403  1.00  0.00     0.162 HD
ENDBRANCH   2  21
BRANCH   4  26
HETATM   26  C8  UNL     1      29.553  16.522  63.420  1.00  0.00     0.233 C 
HETATM   27  O2  UNL     1      30.007  15.960  64.438  1.00  0.00    -0.642 OA
HETATM   28  O3  UNL     1      30.340  16.525  62.281  1.00  0.00    -0.642 OA
ENDBRANCH   4  26
TORSDOF 9
ENDMDL
