MODEL 3
REMARK VINA RESULT: -6.871303372      1.773      2.400
REMARK  6 active torsions:
REMARK  status: ('A' for Active; 'I' for Inactive)
REMARK    1  A    between atoms: C2_2  and  C3_3 
REMARK    2  A    between atoms: C3_3  and  N1_4 
REMARK       I    between atoms: N1_4  and  C5_6 
REMARK    3  A    between atoms: C5_6  and  C6_8 
REMARK    4  A    between atoms: C7_10  and  C8_11 
REMARK    5  A    between atoms: C10_15  and  N2_16 
REMARK    6  A    between atoms: C12_21  and  N5_22 
REMARK       I    between atoms: N5_22  and  C13_24 
ROOT
HETATM    1  C6  UNL     1      26.801  18.080  62.822  1.00  0.00     0.246 C 
HETATM    2  O2  UNL     1      26.037  19.258  62.748  1.00  0.00    -0.328 OA
HETATM    3  C7  UNL     1      25.886  19.972  63.950  1.00  0.00     0.144 C 
HETATM    4  C9  UNL     1      26.787  19.787  64.894  1.00  0.00     0.044 C 
HETATM    5  C10 UNL     1      27.951  18.882  64.786  1.00  0.00     0.135 C 
HETATM    6  C12 UNL     1      28.168  18.541  63.331  1.00  0.00     0.149 C 
ENDROOT
BRANCH   1   7
HETATM    7  C5  UNL     1      26.881  17.287  61.619  1.00  0.00     0.251 C 
HETATM    8  N1  UNL     1      26.357  16.001  61.495  1.00  0.00    -0.354 N 
HETATM    9  C4  UNL     1      26.508  15.337  60.178  1.00  0.00     0.152 C 
HETATM   10  O1  UNL     1      27.467  17.802  60.621  1.00  0.00    -0.270 OA
BRANCH   8  11
HETATM   11  C3  UNL     1      25.680  15.241  62.495  1.00  0.00     0.125 C 
BRANCH  11  12
HETATM   12  C2  UNL     1      24.179  15.242  62.254  1.00  0.00     0.015 C 
HETATM   13  C1  UNL     1      23.606  13.863  62.349  1.00  0.00     0.006 C 
ENDBRANCH  11  12
ENDBRANCH   8  11
ENDBRANCH   1   7
BRANCH   6  14
HETATM   14  N5  UNL     1      29.191  17.569  63.114  1.00  0.00    -0.351 N 
HETATM   15  C13 UNL     1      30.376  17.902  62.386  1.00  0.00     0.214 C 
HETATM   16  C14 UNL     1      31.462  16.937  62.134  1.00  0.00     0.117 C 
HETATM   17  O5  UNL     1      30.515  19.074  61.930  1.00  0.00    -0.274 OA
ATOM     18  H5  UNL     1      29.075  16.625  63.483  1.00  0.00     0.163 HD
ENDBRANCH   6  14
BRANCH   3  19
HETATM   19  C8  UNL     1      24.772  20.881  64.140  1.00  0.00     0.233 C 
HETATM   20  O3  UNL     1      24.819  22.019  63.629  1.00  0.00    -0.642 OA
HETATM   21  O4  UNL     1      23.661  20.525  64.870  1.00  0.00    -0.642 OA
ENDBRANCH   3  19
BRANCH   5  22
HETATM   22  N2  UNL     1      29.118  19.329  65.457  1.00  0.00    -0.357 N 
HETATM   23  C11 UNL     1      29.752  18.530  66.236  1.00  0.00     0.197 C 
HETATM   24  N3  UNL     1      29.308  17.189  66.447  1.00  0.00    -0.067 NA
HETATM   25  N4  UNL     1      30.920  18.914  66.933  1.00  0.00    -0.067 NA
ATOM     26  H2  UNL     1      29.452  20.283  65.320  1.00  0.00     0.162 HD
ENDBRANCH   5  22
TORSDOF 6
ENDMDL
