MODEL 1
REMARK VINA RESULT: -7.078425128      0.000      0.000
REMARK  6 active torsions:
REMARK  status: ('A' for Active; 'I' for Inactive)
REMARK    1  A    between atoms: C2_2  and  C3_3 
REMARK    2  A    between atoms: C3_3  and  N1_4 
REMARK       I    between atoms: N1_4  and  C5_6 
REMARK    3  A    between atoms: C5_6  and  C6_8 
REMARK    4  A    between atoms: C7_10  and  C8_11 
REMARK    5  A    between atoms: C10_15  and  N2_16 
REMARK    6  A    between atoms: C12_21  and  N5_22 
REMARK       I    between atoms: N5_22  and  C13_24 
ROOT
HETATM    1  C6  UNL     1      27.416  18.079  63.918  1.00  0.00     0.246 C 
HETATM    2  O2  UNL     1      26.351  18.885  63.479  1.00  0.00    -0.328 OA
HETATM    3  C7  UNL     1      26.244  20.150  64.083  1.00  0.00     0.144 C 
HETATM    4  C9  UNL     1      27.329  20.668  64.624  1.00  0.00     0.044 C 
HETATM    5  C10 UNL     1      28.656  20.017  64.646  1.00  0.00     0.135 C 
HETATM    6  C12 UNL     1      28.669  18.906  63.624  1.00  0.00     0.149 C 
ENDROOT
BRANCH   1   7
HETATM    7  C5  UNL     1      27.478  16.741  63.379  1.00  0.00     0.251 C 
HETATM    8  N1  UNL     1      27.330  16.437  62.027  1.00  0.00    -0.354 N 
HETATM    9  C4  UNL     1      27.446  15.010  61.642  1.00  0.00     0.152 C 
HETATM   10  O1  UNL     1      27.679  15.795  64.196  1.00  0.00    -0.270 OA
BRANCH   8  11
HETATM   11  C3  UNL     1      27.083  17.346  60.955  1.00  0.00     0.125 C 
BRANCH  11  12
HETATM   12  C2  UNL     1      26.427  16.636  59.782  1.00  0.00     0.015 C 
HETATM   13  C1  UNL     1      26.889  17.194  58.473  1.00  0.00     0.006 C 
ENDBRANCH  11  12
ENDBRANCH   8  11
ENDBRANCH   1   7
BRANCH   6  14
HETATM   14  N5  UNL     1      29.861  18.121  63.641  1.00  0.00    -0.351 N 
HETATM   15  C13 UNL     1      30.708  18.048  62.492  1.00  0.00     0.214 C 
HETATM   16  C14 UNL     1      31.950  17.252  62.458  1.00  0.00     0.117 C 
HETATM   17  O5  UNL     1      30.393  18.688  61.447  1.00  0.00    -0.274 OA
ATOM     18  H5  UNL     1      30.112  17.605  64.485  1.00  0.00     0.163 HD
ENDBRANCH   6  14
BRANCH   3  19
HETATM   19  C8  UNL     1      24.979  20.858  64.106  1.00  0.00     0.233 C 
HETATM   20  O3  UNL     1      24.036  20.400  64.783  1.00  0.00    -0.642 OA
HETATM   21  O4  UNL     1      24.787  22.025  63.402  1.00  0.00    -0.642 OA
ENDBRANCH   3  19
BRANCH   5  22
HETATM   22  N2  UNL     1      29.757  20.906  64.549  1.00  0.00    -0.357 N 
HETATM   23  C11 UNL     1      30.462  21.165  65.591  1.00  0.00     0.197 C 
HETATM   24  N3  UNL     1      30.161  20.576  66.856  1.00  0.00    -0.067 NA
HETATM   25  N4  UNL     1      31.570  22.041  65.561  1.00  0.00    -0.067 NA
ATOM     26  H2  UNL     1      29.989  21.337  63.654  1.00  0.00     0.162 HD
ENDBRANCH   5  22
TORSDOF 6
ENDMDL
