MODEL 5
REMARK VINA RESULT: -6.804951458      2.464      5.507
REMARK  6 active torsions:
REMARK  status: ('A' for Active; 'I' for Inactive)
REMARK    1  A    between atoms: C2_2  and  C3_3 
REMARK    2  A    between atoms: C3_3  and  N1_4 
REMARK       I    between atoms: N1_4  and  C5_6 
REMARK    3  A    between atoms: C5_6  and  C6_8 
REMARK    4  A    between atoms: C7_10  and  C8_11 
REMARK    5  A    between atoms: C10_15  and  N2_16 
REMARK    6  A    between atoms: C12_21  and  N5_22 
REMARK       I    between atoms: N5_22  and  C13_24 
ROOT
HETATM    1  C6  UNL     1      26.567  18.845  62.710  1.00  0.00     0.246 C 
HETATM    2  O2  UNL     1      26.430  19.262  64.046  1.00  0.00    -0.328 OA
HETATM    3  C7  UNL     1      25.191  18.992  64.653  1.00  0.00     0.144 C 
HETATM    4  C9  UNL     1      24.459  18.018  64.151  1.00  0.00     0.044 C 
HETATM    5  C10 UNL     1      24.842  17.182  62.994  1.00  0.00     0.135 C 
HETATM    6  C12 UNL     1      26.324  17.335  62.753  1.00  0.00     0.149 C 
ENDROOT
BRANCH   1   7
HETATM    7  C5  UNL     1      27.797  19.205  62.044  1.00  0.00     0.251 C 
HETATM    8  N1  UNL     1      29.066  18.964  62.567  1.00  0.00    -0.354 N 
HETATM    9  C4  UNL     1      30.224  19.377  61.739  1.00  0.00     0.152 C 
HETATM   10  O1  UNL     1      27.702  19.773  60.917  1.00  0.00    -0.270 OA
BRANCH   8  11
HETATM   11  C3  UNL     1      29.389  18.355  63.817  1.00  0.00     0.125 C 
BRANCH  11  12
HETATM   12  C2  UNL     1      30.083  17.019  63.605  1.00  0.00     0.015 C 
HETATM   13  C1  UNL     1      31.358  16.933  64.383  1.00  0.00     0.006 C 
ENDBRANCH  11  12
ENDBRANCH   8  11
ENDBRANCH   1   7
BRANCH   6  14
HETATM   14  N5  UNL     1      26.789  16.672  61.578  1.00  0.00    -0.351 N 
HETATM   15  C13 UNL     1      27.312  15.342  61.645  1.00  0.00     0.214 C 
HETATM   16  C14 UNL     1      27.805  14.612  60.462  1.00  0.00     0.117 C 
HETATM   17  O5  UNL     1      27.363  14.751  62.762  1.00  0.00    -0.274 OA
ATOM     18  H5  UNL     1      26.747  17.151  60.679  1.00  0.00     0.163 HD
ENDBRANCH   6  14
BRANCH   3  19
HETATM   19  C8  UNL     1      24.738  19.764  65.793  1.00  0.00     0.233 C 
HETATM   20  O3  UNL     1      23.602  20.280  65.769  1.00  0.00    -0.642 OA
HETATM   21  O4  UNL     1      25.527  19.946  66.907  1.00  0.00    -0.642 OA
ENDBRANCH   3  19
BRANCH   5  22
HETATM   22  N2  UNL     1      24.402  15.835  63.058  1.00  0.00    -0.357 N 
HETATM   23  C11 UNL     1      23.858  15.291  62.030  1.00  0.00     0.197 C 
HETATM   24  N3  UNL     1      23.685  16.014  60.811  1.00  0.00    -0.067 NA
HETATM   25  N4  UNL     1      23.399  13.955  62.031  1.00  0.00    -0.067 NA
ATOM     26  H2  UNL     1      24.517  15.301  63.920  1.00  0.00     0.162 HD
ENDBRANCH   5  22
TORSDOF 6
ENDMDL
