MODEL 2
REMARK VINA RESULT: -6.871968012      2.741      4.985
REMARK  6 active torsions:
REMARK  status: ('A' for Active; 'I' for Inactive)
REMARK    1  A    between atoms: C2_2  and  C3_3 
REMARK    2  A    between atoms: C3_3  and  N1_4 
REMARK       I    between atoms: N1_4  and  C5_6 
REMARK    3  A    between atoms: C5_6  and  C6_8 
REMARK    4  A    between atoms: C7_10  and  C8_11 
REMARK    5  A    between atoms: C10_15  and  N2_16 
REMARK    6  A    between atoms: C12_21  and  N5_22 
REMARK       I    between atoms: N5_22  and  C13_24 
ROOT
HETATM    1  C6  UNL     1      25.966  17.712  62.423  1.00  0.00     0.246 C 
HETATM    2  O2  UNL     1      27.293  17.259  62.320  1.00  0.00    -0.328 OA
HETATM    3  C7  UNL     1      28.289  18.251  62.353  1.00  0.00     0.144 C 
HETATM    4  C9  UNL     1      27.991  19.404  62.919  1.00  0.00     0.044 C 
HETATM    5  C10 UNL     1      26.684  19.736  63.525  1.00  0.00     0.135 C 
HETATM    6  C12 UNL     1      25.918  18.456  63.759  1.00  0.00     0.149 C 
ENDROOT
BRANCH   1   7
HETATM    7  C5  UNL     1      24.931  16.715  62.290  1.00  0.00     0.251 C 
HETATM    8  N1  UNL     1      25.156  15.341  62.367  1.00  0.00    -0.354 N 
HETATM    9  C4  UNL     1      23.974  14.458  62.231  1.00  0.00     0.152 C 
HETATM   10  O1  UNL     1      23.750  17.126  62.092  1.00  0.00    -0.270 OA
BRANCH   8  11
HETATM   11  C3  UNL     1      26.404  14.677  62.567  1.00  0.00     0.125 C 
BRANCH  11  12
HETATM   12  C2  UNL     1      26.690  13.709  61.429  1.00  0.00     0.015 C 
HETATM   13  C1  UNL     1      27.444  14.374  60.320  1.00  0.00     0.006 C 
ENDBRANCH  11  12
ENDBRANCH   8  11
ENDBRANCH   1   7
BRANCH   6  14
HETATM   14  N5  UNL     1      24.584  18.660  64.226  1.00  0.00    -0.351 N 
HETATM   15  C13 UNL     1      24.289  18.662  65.625  1.00  0.00     0.214 C 
HETATM   16  C14 UNL     1      22.930  18.868  66.159  1.00  0.00     0.117 C 
HETATM   17  O5  UNL     1      25.224  18.479  66.456  1.00  0.00    -0.274 OA
ATOM     18  H5  UNL     1      23.832  18.807  63.552  1.00  0.00     0.163 HD
ENDBRANCH   6  14
BRANCH   3  19
HETATM   19  C8  UNL     1      29.599  18.009  61.782  1.00  0.00     0.233 C 
HETATM   20  O3  UNL     1      30.172  18.926  61.158  1.00  0.00    -0.642 OA
HETATM   21  O4  UNL     1      30.233  16.793  61.908  1.00  0.00    -0.642 OA
ENDBRANCH   3  19
BRANCH   5  22
HETATM   22  N2  UNL     1      26.750  20.587  64.657  1.00  0.00    -0.357 N 
HETATM   23  C11 UNL     1      25.938  21.576  64.762  1.00  0.00     0.197 C 
HETATM   24  N3  UNL     1      24.959  21.842  63.757  1.00  0.00    -0.067 NA
HETATM   25  N4  UNL     1      25.952  22.460  65.863  1.00  0.00    -0.067 NA
ATOM     26  H2  UNL     1      27.442  20.414  65.387  1.00  0.00     0.162 HD
ENDBRANCH   5  22
TORSDOF 6
ENDMDL
