MODEL 2
REMARK VINA RESULT: -10.383783900      1.127      1.487
REMARK  4 active torsions:
REMARK  status: ('A' for Active; 'I' for Inactive)
REMARK    1  A    between atoms: C1_2  and  C2_4 
REMARK    2  A    between atoms: C5_7  and  C6_8 
REMARK    3  A    between atoms: C13_17  and  C14_18 
REMARK    4  A    between atoms: C18_22  and  N2_23 
ROOT
HETATM    1  C6  UNL     1      96.299  64.333  19.876  1.00  0.00     0.043 A 
HETATM    2  C7  UNL     1      96.234  63.001  19.642  1.00  0.00     0.044 A 
HETATM    3  C8  UNL     1      95.557  62.492  18.532  1.00  0.00    -0.005 A 
HETATM    4  C9  UNL     1      95.515  61.129  18.331  1.00  0.00     0.015 A 
HETATM    5  C10 UNL     1      94.840  60.665  17.231  1.00  0.00     0.018 A 
HETATM    6  C11 UNL     1      94.241  61.573  16.381  1.00  0.00     0.088 A 
HETATM    7  N1  UNL     1      94.306  62.892  16.615  1.00  0.00    -0.363 N 
ATOM      8  H1  UNL     1      93.849  63.532  15.965  1.00  0.00     0.165 HD
HETATM    9  C12 UNL     1      94.962  63.403  17.692  1.00  0.00     0.070 A 
HETATM   10  C13 UNL     1      95.028  64.753  17.930  1.00  0.00     0.071 A 
HETATM   11  N3  UNL     1      95.694  65.174  19.013  1.00  0.00    -0.353 N 
ATOM     12  H3  UNL     1      95.747  66.176  19.193  1.00  0.00     0.166 HD
ENDROOT
BRANCH   1  13
HETATM   13  C5  UNL     1      97.010  64.874  21.042  1.00  0.00    -0.009 A 
HETATM   14  C4  UNL     1      97.686  66.053  21.033  1.00  0.00     0.015 A 
HETATM   15  C3  UNL     1      98.353  66.555  22.136  1.00  0.00     0.019 A 
HETATM   16  C2  UNL     1      98.357  65.860  23.315  1.00  0.00     0.040 A 
HETATM   17  C21 UNL     1      97.676  64.659  23.342  1.00  0.00     0.019 A 
HETATM   18  C20 UNL     1      97.016  64.169  22.241  1.00  0.00     0.015 A 
BRANCH  16  19
HETATM   19  C1  UNL     1      99.050  66.360  24.495  1.00  0.00     0.209 C 
HETATM   20  O1  UNL     1      98.483  67.179  25.252  1.00  0.00    -0.644 OA
HETATM   21  O2  UNL     1     100.326  65.950  24.798  1.00  0.00    -0.644 OA
ENDBRANCH  16  19
ENDBRANCH   1  13
BRANCH  10  22
HETATM   22  C14 UNL     1      94.386  65.690  17.019  1.00  0.00    -0.005 A 
HETATM   23  C15 UNL     1      93.130  66.157  17.344  1.00  0.00     0.014 A 
HETATM   24  C16 UNL     1      92.542  67.043  16.466  1.00  0.00     0.003 A 
HETATM   25  C17 UNL     1      93.191  67.440  15.313  1.00  0.00     0.036 A 
HETATM   26  C18 UNL     1      94.446  66.980  14.979  1.00  0.00     0.103 A 
HETATM   27  C19 UNL     1      95.032  66.090  15.864  1.00  0.00     0.050 A 
BRANCH  26  28
HETATM   28  N2  UNL     1      95.093  67.402  13.788  1.00  0.00    -0.116 N 
HETATM   29  O3  UNL     1      95.487  68.565  13.597  1.00  0.00    -0.532 OA
HETATM   30  O4  UNL     1      95.296  66.482  12.793  1.00  0.00    -0.532 OA
ENDBRANCH  26  28
ENDBRANCH  10  22
TORSDOF 4
ENDMDL
