MODEL 1
REMARK VINA RESULT: -10.859164223      0.000      0.000
REMARK  4 active torsions:
REMARK  status: ('A' for Active; 'I' for Inactive)
REMARK    1  A    between atoms: C1_2  and  C2_4 
REMARK    2  A    between atoms: C5_7  and  C6_8 
REMARK    3  A    between atoms: C13_17  and  C14_18 
REMARK    4  A    between atoms: C18_22  and  N2_23 
ROOT
HETATM    1  C6  UNL     1      96.278  64.503  19.530  1.00  0.00     0.043 A 
HETATM    2  C7  UNL     1      96.541  63.272  19.033  1.00  0.00     0.044 A 
HETATM    3  C8  UNL     1      95.942  62.822  17.854  1.00  0.00    -0.005 A 
HETATM    4  C9  UNL     1      96.237  61.561  17.383  1.00  0.00     0.015 A 
HETATM    5  C10 UNL     1      95.629  61.153  16.223  1.00  0.00     0.018 A 
HETATM    6  C11 UNL     1      94.759  62.014  15.584  1.00  0.00     0.088 A 
HETATM    7  N1  UNL     1      94.500  63.234  16.079  1.00  0.00    -0.363 N 
ATOM      8  H1  UNL     1      93.850  63.841  15.579  1.00  0.00     0.165 HD
HETATM    9  C12 UNL     1      95.076  63.686  17.225  1.00  0.00     0.070 A 
HETATM   10  C13 UNL     1      94.810  64.933  17.730  1.00  0.00     0.071 A 
HETATM   11  N3  UNL     1      95.420  65.302  18.864  1.00  0.00    -0.353 N 
ATOM     12  H3  UNL     1      95.225  66.229  19.241  1.00  0.00     0.166 HD
ENDROOT
BRANCH   1  13
HETATM   13  C5  UNL     1      96.906  64.982  20.769  1.00  0.00    -0.009 A 
HETATM   14  C4  UNL     1      96.990  64.242  21.906  1.00  0.00     0.015 A 
HETATM   15  C3  UNL     1      97.583  64.701  23.068  1.00  0.00     0.019 A 
HETATM   16  C2  UNL     1      98.123  65.958  23.117  1.00  0.00     0.040 A 
HETATM   17  C21 UNL     1      98.046  66.724  21.971  1.00  0.00     0.019 A 
HETATM   18  C20 UNL     1      97.455  66.259  20.821  1.00  0.00     0.015 A 
BRANCH  16  19
HETATM   19  C1  UNL     1      98.754  66.471  24.326  1.00  0.00     0.209 C 
HETATM   20  O1  UNL     1      98.262  67.459  24.916  1.00  0.00    -0.644 OA
HETATM   21  O2  UNL     1      99.890  65.891  24.838  1.00  0.00    -0.644 OA
ENDBRANCH  16  19
ENDBRANCH   1  13
BRANCH  10  22
HETATM   22  C14 UNL     1      93.888  65.822  17.038  1.00  0.00    -0.005 A 
HETATM   23  C15 UNL     1      92.538  65.547  17.113  1.00  0.00     0.014 A 
HETATM   24  C16 UNL     1      91.684  66.403  16.449  1.00  0.00     0.003 A 
HETATM   25  C17 UNL     1      92.168  67.486  15.742  1.00  0.00     0.036 A 
HETATM   26  C18 UNL     1      93.514  67.770  15.660  1.00  0.00     0.103 A 
HETATM   27  C19 UNL     1      94.368  66.908  16.328  1.00  0.00     0.050 A 
BRANCH  26  28
HETATM   28  N2  UNL     1      93.988  68.889  14.927  1.00  0.00    -0.116 N 
HETATM   29  O3  UNL     1      93.388  69.375  13.953  1.00  0.00    -0.532 OA
HETATM   30  O4  UNL     1      95.169  69.469  15.309  1.00  0.00    -0.532 OA
ENDBRANCH  26  28
ENDBRANCH  10  22
TORSDOF 4
ENDMDL
