MODEL 3
REMARK VINA RESULT: -10.367340807      3.710      8.041
REMARK  4 active torsions:
REMARK  status: ('A' for Active; 'I' for Inactive)
REMARK    1  A    between atoms: C1_2  and  C2_4 
REMARK    2  A    between atoms: C5_7  and  C6_8 
REMARK    3  A    between atoms: C13_17  and  C14_18 
REMARK    4  A    between atoms: C18_22  and  N2_23 
ROOT
HETATM    1  C6  UNL     1      96.761  66.356  19.881  1.00  0.00     0.043 A 
HETATM    2  C7  UNL     1      97.321  67.106  20.859  1.00  0.00     0.044 A 
HETATM    3  C8  UNL     1      97.728  66.536  22.068  1.00  0.00    -0.005 A 
HETATM    4  C9  UNL     1      98.293  67.335  23.037  1.00  0.00     0.015 A 
HETATM    5  C10 UNL     1      98.681  66.740  24.211  1.00  0.00     0.018 A 
HETATM    6  C11 UNL     1      98.490  65.382  24.368  1.00  0.00     0.088 A 
HETATM    7  N1  UNL     1      97.935  64.641  23.397  1.00  0.00    -0.363 N 
ATOM      8  H1  UNL     1      97.809  63.641  23.551  1.00  0.00     0.165 HD
HETATM    9  C12 UNL     1      97.534  65.183  22.215  1.00  0.00     0.070 A 
HETATM   10  C13 UNL     1      96.966  64.424  21.223  1.00  0.00     0.071 A 
HETATM   11  N3  UNL     1      96.599  65.034  20.089  1.00  0.00    -0.353 N 
ATOM     12  H3  UNL     1      96.178  64.473  19.349  1.00  0.00     0.166 HD
ENDROOT
BRANCH   1  13
HETATM   13  C5  UNL     1      96.332  66.951  18.608  1.00  0.00    -0.009 A 
HETATM   14  C4  UNL     1      97.057  67.876  17.926  1.00  0.00     0.015 A 
HETATM   15  C3  UNL     1      96.645  68.431  16.727  1.00  0.00     0.019 A 
HETATM   16  C2  UNL     1      95.453  68.056  16.168  1.00  0.00     0.040 A 
HETATM   17  C21 UNL     1      94.703  67.117  16.849  1.00  0.00     0.019 A 
HETATM   18  C20 UNL     1      95.121  66.572  18.038  1.00  0.00     0.015 A 
BRANCH  16  19
HETATM   19  C1  UNL     1      94.989  68.622  14.908  1.00  0.00     0.209 C 
HETATM   20  O1  UNL     1      95.528  68.277  13.832  1.00  0.00    -0.644 OA
HETATM   21  O2  UNL     1      93.963  69.535  14.872  1.00  0.00    -0.644 OA
ENDBRANCH  16  19
ENDBRANCH   1  13
BRANCH  10  22
HETATM   22  C14 UNL     1      96.775  62.993  21.414  1.00  0.00    -0.005 A 
HETATM   23  C15 UNL     1      96.736  62.507  22.705  1.00  0.00     0.014 A 
HETATM   24  C16 UNL     1      96.555  61.149  22.859  1.00  0.00     0.003 A 
HETATM   25  C17 UNL     1      96.418  60.318  21.764  1.00  0.00     0.036 A 
HETATM   26  C18 UNL     1      96.456  60.793  20.471  1.00  0.00     0.103 A 
HETATM   27  C19 UNL     1      96.638  62.157  20.321  1.00  0.00     0.050 A 
BRANCH  26  28
HETATM   28  N2  UNL     1      96.314  59.919  19.361  1.00  0.00    -0.116 N 
HETATM   29  O3  UNL     1      95.832  60.269  18.271  1.00  0.00    -0.532 OA
HETATM   30  O4  UNL     1      96.729  58.620  19.495  1.00  0.00    -0.532 OA
ENDBRANCH  26  28
ENDBRANCH  10  22
TORSDOF 4
ENDMDL
