MODEL 4
REMARK VINA RESULT: -10.346689376      2.417      3.424
REMARK  4 active torsions:
REMARK  status: ('A' for Active; 'I' for Inactive)
REMARK    1  A    between atoms: C1_2  and  C2_4 
REMARK    2  A    between atoms: C5_7  and  C6_8 
REMARK    3  A    between atoms: C13_17  and  C14_18 
REMARK    4  A    between atoms: C18_22  and  N2_23 
ROOT
HETATM    1  C6  UNL     1      96.877  66.216  19.245  1.00  0.00     0.043 A 
HETATM    2  C7  UNL     1      97.584  66.793  18.245  1.00  0.00     0.044 A 
HETATM    3  C8  UNL     1      97.044  66.939  16.965  1.00  0.00    -0.005 A 
HETATM    4  C9  UNL     1      97.798  67.532  15.976  1.00  0.00     0.015 A 
HETATM    5  C10 UNL     1      97.235  67.658  14.732  1.00  0.00     0.018 A 
HETATM    6  C11 UNL     1      95.953  67.191  14.526  1.00  0.00     0.088 A 
HETATM    7  N1  UNL     1      95.254  66.619  15.519  1.00  0.00    -0.363 N 
ATOM      8  H1  UNL     1      94.309  66.285  15.328  1.00  0.00     0.165 HD
HETATM    9  C12 UNL     1      95.766  66.471  16.771  1.00  0.00     0.070 A 
HETATM   10  C13 UNL     1      95.050  65.886  17.784  1.00  0.00     0.071 A 
HETATM   11  N3  UNL     1      95.628  65.778  18.988  1.00  0.00    -0.353 N 
ATOM     12  H3  UNL     1      95.098  65.345  19.744  1.00  0.00     0.166 HD
ENDROOT
BRANCH   1  13
HETATM   13  C5  UNL     1      97.440  66.060  20.593  1.00  0.00    -0.009 A 
HETATM   14  C4  UNL     1      97.095  65.057  21.443  1.00  0.00     0.015 A 
HETATM   15  C3  UNL     1      97.631  64.918  22.711  1.00  0.00     0.019 A 
HETATM   16  C2  UNL     1      98.556  65.816  23.171  1.00  0.00     0.040 A 
HETATM   17  C21 UNL     1      98.916  66.843  22.321  1.00  0.00     0.019 A 
HETATM   18  C20 UNL     1      98.379  66.972  21.063  1.00  0.00     0.015 A 
BRANCH  16  19
HETATM   19  C1  UNL     1      99.138  65.699  24.501  1.00  0.00     0.209 C 
HETATM   20  O1  UNL     1     100.381  65.705  24.642  1.00  0.00    -0.644 OA
HETATM   21  O2  UNL     1      98.346  65.580  25.617  1.00  0.00    -0.644 OA
ENDBRANCH  16  19
ENDBRANCH   1  13
BRANCH  10  22
HETATM   22  C14 UNL     1      93.699  65.401  17.542  1.00  0.00    -0.005 A 
HETATM   23  C15 UNL     1      93.527  64.060  17.268  1.00  0.00     0.014 A 
HETATM   24  C16 UNL     1      92.238  63.625  17.042  1.00  0.00     0.003 A 
HETATM   25  C17 UNL     1      91.171  64.501  17.090  1.00  0.00     0.036 A 
HETATM   26  C18 UNL     1      91.332  65.842  17.363  1.00  0.00     0.103 A 
HETATM   27  C19 UNL     1      92.627  66.274  17.589  1.00  0.00     0.050 A 
BRANCH  26  28
HETATM   28  N2  UNL     1      90.219  66.723  17.406  1.00  0.00    -0.116 N 
HETATM   29  O3  UNL     1      89.221  66.531  18.121  1.00  0.00    -0.532 OA
HETATM   30  O4  UNL     1      90.243  67.844  16.620  1.00  0.00    -0.532 OA
ENDBRANCH  26  28
ENDBRANCH  10  22
TORSDOF 4
ENDMDL
