MODEL 5
REMARK VINA RESULT: -9.793821972      3.996      6.399
REMARK  3 active torsions:
REMARK  status: ('A' for Active; 'I' for Inactive)
REMARK    1  A    between atoms: C5_10  and  N4_11 
REMARK    2  A    between atoms: N4_11  and  C6_13 
REMARK    3  A    between atoms: C6_13  and  C7_14 
ROOT
HETATM    1  N1  UNL     1      16.001  16.528  22.112  1.00  0.00    -0.063 NA
HETATM    2  C1  UNL     1      15.637  16.605  20.733  1.00  0.00     0.195 A 
HETATM    3  N2  UNL     1      16.540  16.976  19.822  1.00  0.00    -0.329 N 
ATOM      4  H2  UNL     1      17.492  17.149  20.141  1.00  0.00     0.168 HD
HETATM    5  C2  UNL     1      16.283  17.134  18.531  1.00  0.00     0.052 A 
HETATM    6  C3  UNL     1      17.253  17.505  17.619  1.00  0.00     0.063 A 
HETATM    7  C4  UNL     1      16.978  17.655  16.266  1.00  0.00     0.078 A 
HETATM    8  N3  UNL     1      17.742  17.982  15.233  1.00  0.00    -0.189 N 
ATOM      9  H3  UNL     1      18.737  18.200  15.295  1.00  0.00     0.184 HD
HETATM   10  C5  UNL     1      17.012  17.988  14.068  1.00  0.00     0.683 A 
HETATM   11  N5  UNL     1      15.746  17.646  14.455  1.00  0.00    -0.189 N 
ATOM     12  H5  UNL     1      14.947  17.560  13.827  1.00  0.00     0.184 HD
HETATM   13  C17 UNL     1      15.705  17.437  15.791  1.00  0.00     0.077 A 
HETATM   14  C18 UNL     1      14.724  17.062  16.682  1.00  0.00     0.052 A 
HETATM   15  C19 UNL     1      15.018  16.909  18.040  1.00  0.00     0.061 A 
HETATM   16  C20 UNL     1      14.069  16.525  18.975  1.00  0.00     0.260 A 
HETATM   17  O1  UNL     1      12.896  16.318  18.551  1.00  0.00    -0.267 OA
HETATM   18  N6  UNL     1      14.369  16.372  20.300  1.00  0.00    -0.297 N 
ATOM     19  H6  UNL     1      13.646  16.084  20.960  1.00  0.00     0.171 HD
ENDROOT
BRANCH  10  20
HETATM   20  N4  UNL     1      17.557  18.246  12.808  1.00  0.00    -0.201 N 
ATOM     21  H4  UNL     1      17.093  19.018  12.331  1.00  0.00     0.183 HD
BRANCH  20  22
HETATM   22  C6  UNL     1      18.587  17.693  12.053  1.00  0.00     0.118 C 
BRANCH  22  23
HETATM   23  C7  UNL     1      19.884  18.416  12.129  1.00  0.00    -0.009 A 
HETATM   24  C8  UNL     1      19.944  19.797  12.117  1.00  0.00     0.014 A 
HETATM   25  C9  UNL     1      21.142  20.455  12.422  1.00  0.00     0.002 A 
HETATM   26  C10 UNL     1      22.297  19.787  12.736  1.00  0.00     0.012 A 
HETATM   27  C11 UNL     1      22.214  18.400  12.739  1.00  0.00    -0.025 A 
HETATM   28  C12 UNL     1      23.407  17.687  12.958  1.00  0.00     0.012 A 
HETATM   29  C16 UNL     1      21.044  17.730  12.442  1.00  0.00    -0.014 A 
HETATM   30  C13 UNL     1      23.342  16.301  12.854  1.00  0.00     0.001 A 
HETATM   31  C14 UNL     1      22.143  15.642  12.548  1.00  0.00     0.001 A 
HETATM   32  C15 UNL     1      20.968  16.335  12.335  1.00  0.00     0.013 A 
ENDBRANCH  22  23
ENDBRANCH  20  22
ENDBRANCH  10  20
TORSDOF 3
ENDMDL
