MODEL 9
REMARK VINA RESULT: -9.522552978      4.372      8.425
REMARK  3 active torsions:
REMARK  status: ('A' for Active; 'I' for Inactive)
REMARK    1  A    between atoms: C5_10  and  N4_11 
REMARK    2  A    between atoms: N4_11  and  C6_13 
REMARK    3  A    between atoms: C6_13  and  C7_14 
ROOT
HETATM    1  N1  UNL     1       7.425  17.877  11.932  1.00  0.00    -0.063 NA
HETATM    2  C1  UNL     1       8.614  17.928  12.720  1.00  0.00     0.195 A 
HETATM    3  N2  UNL     1       8.796  17.058  13.716  1.00  0.00    -0.329 N 
ATOM      4  H2  UNL     1       8.086  16.340  13.854  1.00  0.00     0.168 HD
HETATM    5  C2  UNL     1       9.835  17.064  14.539  1.00  0.00     0.052 A 
HETATM    6  C3  UNL     1       9.991  16.133  15.549  1.00  0.00     0.063 A 
HETATM    7  C4  UNL     1      11.090  16.138  16.398  1.00  0.00     0.078 A 
HETATM    8  N3  UNL     1      11.442  15.348  17.403  1.00  0.00    -0.189 N 
ATOM      9  H3  UNL     1      10.896  14.552  17.732  1.00  0.00     0.184 HD
HETATM   10  C5  UNL     1      12.643  15.748  17.940  1.00  0.00     0.683 A 
HETATM   11  N5  UNL     1      13.003  16.840  17.200  1.00  0.00    -0.189 N 
ATOM     12  H5  UNL     1      13.853  17.385  17.340  1.00  0.00     0.184 HD
HETATM   13  C17 UNL     1      12.071  17.092  16.254  1.00  0.00     0.077 A 
HETATM   14  C18 UNL     1      11.937  18.026  15.250  1.00  0.00     0.052 A 
HETATM   15  C19 UNL     1      10.828  18.005  14.400  1.00  0.00     0.061 A 
HETATM   16  C20 UNL     1      10.653  18.917  13.371  1.00  0.00     0.260 A 
HETATM   17  O1  UNL     1      11.550  19.797  13.225  1.00  0.00    -0.267 OA
HETATM   18  N6  UNL     1       9.568  18.882  12.541  1.00  0.00    -0.297 N 
ATOM     19  H6  UNL     1       9.473  19.567  11.791  1.00  0.00     0.171 HD
ENDROOT
BRANCH  10  20
HETATM   20  N4  UNL     1      13.293  15.078  18.979  1.00  0.00    -0.201 N 
ATOM     21  H4  UNL     1      12.642  14.652  19.638  1.00  0.00     0.183 HD
BRANCH  20  22
HETATM   22  C6  UNL     1      14.623  14.857  19.323  1.00  0.00     0.118 C 
BRANCH  22  23
HETATM   23  C7  UNL     1      15.240  15.910  20.172  1.00  0.00    -0.009 A 
HETATM   24  C8  UNL     1      15.050  15.939  21.541  1.00  0.00     0.014 A 
HETATM   25  C9  UNL     1      15.819  16.790  22.343  1.00  0.00     0.002 A 
HETATM   26  C10 UNL     1      16.775  17.628  21.833  1.00  0.00     0.012 A 
HETATM   27  C11 UNL     1      16.947  17.585  20.454  1.00  0.00    -0.025 A 
HETATM   28  C12 UNL     1      17.850  18.506  19.892  1.00  0.00     0.012 A 
HETATM   29  C16 UNL     1      16.201  16.754  19.644  1.00  0.00    -0.014 A 
HETATM   30  C13 UNL     1      17.940  18.534  18.504  1.00  0.00     0.001 A 
HETATM   31  C14 UNL     1      17.169  17.683  17.699  1.00  0.00     0.001 A 
HETATM   32  C15 UNL     1      16.284  16.774  18.245  1.00  0.00     0.013 A 
ENDBRANCH  22  23
ENDBRANCH  20  22
ENDBRANCH  10  20
TORSDOF 3
ENDMDL
