MODEL 7
REMARK VINA RESULT: -9.689947359      2.066      3.495
REMARK  3 active torsions:
REMARK  status: ('A' for Active; 'I' for Inactive)
REMARK    1  A    between atoms: C5_10  and  N4_11 
REMARK    2  A    between atoms: N4_11  and  C6_13 
REMARK    3  A    between atoms: C6_13  and  C7_14 
ROOT
HETATM    1  N1  UNL     1      17.749  17.290  24.138  1.00  0.00    -0.063 NA
HETATM    2  C1  UNL     1      17.325  17.339  22.776  1.00  0.00     0.195 A 
HETATM    3  N2  UNL     1      16.269  16.627  22.378  1.00  0.00    -0.329 N 
ATOM      4  H2  UNL     1      15.759  16.099  23.085  1.00  0.00     0.168 HD
HETATM    5  C2  UNL     1      15.836  16.560  21.126  1.00  0.00     0.052 A 
HETATM    6  C3  UNL     1      14.726  15.821  20.760  1.00  0.00     0.063 A 
HETATM    7  C4  UNL     1      14.272  15.768  19.449  1.00  0.00     0.078 A 
HETATM    8  N3  UNL     1      13.243  15.148  18.888  1.00  0.00    -0.189 N 
ATOM      9  H3  UNL     1      12.579  14.558  19.389  1.00  0.00     0.184 HD
HETATM   10  C5  UNL     1      13.193  15.409  17.539  1.00  0.00     0.683 A 
HETATM   11  N5  UNL     1      14.262  16.228  17.308  1.00  0.00    -0.189 N 
ATOM     12  H5  UNL     1      14.519  16.610  16.398  1.00  0.00     0.184 HD
HETATM   13  C17 UNL     1      14.932  16.460  18.459  1.00  0.00     0.077 A 
HETATM   14  C18 UNL     1      16.038  17.206  18.803  1.00  0.00     0.052 A 
HETATM   15  C19 UNL     1      16.479  17.255  20.129  1.00  0.00     0.061 A 
HETATM   16  C20 UNL     1      17.580  17.998  20.527  1.00  0.00     0.260 A 
HETATM   17  O1  UNL     1      18.193  18.642  19.627  1.00  0.00    -0.267 OA
HETATM   18  N6  UNL     1      17.999  18.044  21.827  1.00  0.00    -0.297 N 
ATOM     19  H6  UNL     1      18.811  18.605  22.085  1.00  0.00     0.171 HD
ENDROOT
BRANCH  10  20
HETATM   20  N4  UNL     1      12.188  14.936  16.691  1.00  0.00    -0.201 N 
ATOM     21  H4  UNL     1      11.477  14.400  17.188  1.00  0.00     0.183 HD
BRANCH  20  22
HETATM   22  C6  UNL     1      11.933  15.026  15.326  1.00  0.00     0.118 C 
BRANCH  22  23
HETATM   23  C7  UNL     1      11.149  16.217  14.907  1.00  0.00    -0.009 A 
HETATM   24  C8  UNL     1       9.779  16.281  15.087  1.00  0.00     0.014 A 
HETATM   25  C9  UNL     1       9.099  17.491  14.903  1.00  0.00     0.002 A 
HETATM   26  C10 UNL     1       9.730  18.650  14.538  1.00  0.00     0.012 A 
HETATM   27  C11 UNL     1      11.106  18.562  14.360  1.00  0.00    -0.025 A 
HETATM   28  C12 UNL     1      11.766  19.712  13.887  1.00  0.00     0.012 A 
HETATM   29  C16 UNL     1      11.798  17.381  14.536  1.00  0.00    -0.014 A 
HETATM   30  C13 UNL     1      13.123  19.589  13.607  1.00  0.00     0.001 A 
HETATM   31  C14 UNL     1      13.806  18.377  13.790  1.00  0.00     0.001 A 
HETATM   32  C15 UNL     1      13.165  17.247  14.257  1.00  0.00     0.013 A 
ENDBRANCH  22  23
ENDBRANCH  20  22
ENDBRANCH  10  20
TORSDOF 3
ENDMDL
