MODEL 8
REMARK VINA RESULT: -9.632511318      2.173      3.605
REMARK  3 active torsions:
REMARK  status: ('A' for Active; 'I' for Inactive)
REMARK    1  A    between atoms: C5_10  and  N4_11 
REMARK    2  A    between atoms: N4_11  and  C6_13 
REMARK    3  A    between atoms: C6_13  and  C7_14 
ROOT
HETATM    1  N1  UNL     1      13.861  15.985  24.689  1.00  0.00    -0.063 NA
HETATM    2  C1  UNL     1      14.861  16.483  23.801  1.00  0.00     0.195 A 
HETATM    3  N2  UNL     1      14.689  16.394  22.480  1.00  0.00    -0.329 N 
ATOM      4  H2  UNL     1      13.807  16.009  22.142  1.00  0.00     0.168 HD
HETATM    5  C2  UNL     1      15.583  16.772  21.577  1.00  0.00     0.052 A 
HETATM    6  C3  UNL     1      15.356  16.676  20.217  1.00  0.00     0.063 A 
HETATM    7  C4  UNL     1      16.294  17.087  19.279  1.00  0.00     0.078 A 
HETATM    8  N3  UNL     1      16.280  17.100  17.954  1.00  0.00    -0.189 N 
ATOM      9  H3  UNL     1      15.505  16.768  17.379  1.00  0.00     0.184 HD
HETATM   10  C5  UNL     1      17.452  17.621  17.458  1.00  0.00     0.683 A 
HETATM   11  N5  UNL     1      18.189  17.924  18.570  1.00  0.00    -0.189 N 
ATOM     12  H5  UNL     1      19.124  18.331  18.556  1.00  0.00     0.184 HD
HETATM   13  C17 UNL     1      17.500  17.608  19.689  1.00  0.00     0.077 A 
HETATM   14  C18 UNL     1      17.745  17.717  21.040  1.00  0.00     0.052 A 
HETATM   15  C19 UNL     1      16.789  17.304  21.973  1.00  0.00     0.061 A 
HETATM   16  C20 UNL     1      16.984  17.402  23.342  1.00  0.00     0.260 A 
HETATM   17  O1  UNL     1      18.087  17.882  23.732  1.00  0.00    -0.267 OA
HETATM   18  N6  UNL     1      16.039  17.002  24.245  1.00  0.00    -0.297 N 
ATOM     19  H6  UNL     1      16.215  17.091  25.245  1.00  0.00     0.171 HD
ENDROOT
BRANCH  10  20
HETATM   20  N4  UNL     1      17.708  17.809  16.098  1.00  0.00    -0.201 N 
ATOM     21  H4  UNL     1      18.448  17.199  15.751  1.00  0.00     0.183 HD
BRANCH  20  22
HETATM   22  C6  UNL     1      17.187  18.634  15.106  1.00  0.00     0.118 C 
BRANCH  22  23
HETATM   23  C7  UNL     1      17.228  18.071  13.731  1.00  0.00    -0.009 A 
HETATM   24  C8  UNL     1      16.198  17.292  13.238  1.00  0.00     0.014 A 
HETATM   25  C9  UNL     1      16.145  16.969  11.876  1.00  0.00     0.002 A 
HETATM   26  C10 UNL     1      17.090  17.389  10.977  1.00  0.00     0.012 A 
HETATM   27  C11 UNL     1      18.117  18.168  11.495  1.00  0.00    -0.025 A 
HETATM   28  C12 UNL     1      19.154  18.529  10.615  1.00  0.00     0.012 A 
HETATM   29  C16 UNL     1      18.189  18.500  12.833  1.00  0.00    -0.014 A 
HETATM   30  C13 UNL     1      20.234  19.217  11.160  1.00  0.00     0.001 A 
HETATM   31  C14 UNL     1      20.288  19.540  12.524  1.00  0.00     0.001 A 
HETATM   32  C15 UNL     1      19.271  19.192  13.392  1.00  0.00     0.013 A 
ENDBRANCH  22  23
ENDBRANCH  20  22
ENDBRANCH  10  20
TORSDOF 3
ENDMDL
