MODEL 5
REMARK VINA RESULT: -7.047520116      4.473      5.653
REMARK  6 active torsions:
REMARK  status: ('A' for Active; 'I' for Inactive)
REMARK    1  A    between atoms: C2_2  and  O1_3 
REMARK    2  A    between atoms: O1_3  and  C3_4 
REMARK    3  A    between atoms: C3_4  and  C4_6 
REMARK    4  A    between atoms: C6_8  and  C7_9 
REMARK    5  A    between atoms: C10_12  and  O3_13 
REMARK    6  A    between atoms: C11_15  and  O4_16 
ROOT
HETATM    1  C7  UNL     1      13.565  -5.254  23.646  1.00  0.00    -0.050 A 
HETATM    2  C8  UNL     1      14.446  -5.890  24.491  1.00  0.00     0.010 A 
HETATM    3  C9  UNL     1      15.569  -5.206  24.905  1.00  0.00     0.040 A 
HETATM    4  C10 UNL     1      15.803  -3.911  24.481  1.00  0.00     0.099 A 
HETATM    5  C11 UNL     1      14.932  -3.257  23.636  1.00  0.00     0.101 A 
HETATM    6  C13 UNL     1      13.812  -3.947  23.226  1.00  0.00     0.047 A 
ENDROOT
BRANCH   1   7
HETATM    7  C6  UNL     1      12.343  -5.960  23.178  1.00  0.00     0.033 A 
HETATM    8  C4  UNL     1      11.021  -5.361  23.447  1.00  0.00     0.095 A 
HETATM    9  C5  UNL     1      11.484  -6.554  24.254  1.00  0.00     0.025 A 
BRANCH   8  10
HETATM   10  C3  UNL     1       9.876  -5.642  22.532  1.00  0.00     0.263 C 
HETATM   11  O2  UNL     1       8.820  -6.209  22.963  1.00  0.00    -0.265 OA
BRANCH  10  12
HETATM   12  O1  UNL     1       9.899  -5.308  21.191  1.00  0.00    -0.322 OA
BRANCH  12  13
HETATM   13  C2  UNL     1      10.229  -3.990  20.748  1.00  0.00     0.174 C 
HETATM   14  C1  UNL     1      11.539  -3.938  20.030  1.00  0.00     0.034 C 
ENDBRANCH  12  13
ENDBRANCH  10  12
ENDBRANCH   8  10
ENDBRANCH   1   7
BRANCH   5  15
HETATM   15  O4  UNL     1      15.225  -1.976  23.256  1.00  0.00    -0.353 OA
HETATM   16  C12 UNL     1      14.874  -1.359  22.057  1.00  0.00     0.210 C 
ENDBRANCH   5  15
BRANCH   4  17
HETATM   17  O3  UNL     1      16.967  -3.269  24.941  1.00  0.00    -0.358 OA
ATOM     18  H3  UNL     1      16.863  -2.516  25.511  1.00  0.00     0.217 HD
ENDBRANCH   4  17
TORSDOF 6
ENDMDL
