MODEL 10
REMARK VINA RESULT: -6.886485418      4.291      6.177
REMARK  6 active torsions:
REMARK  status: ('A' for Active; 'I' for Inactive)
REMARK    1  A    between atoms: C2_2  and  O1_3 
REMARK    2  A    between atoms: O1_3  and  C3_4 
REMARK    3  A    between atoms: C3_4  and  C4_6 
REMARK    4  A    between atoms: C6_8  and  C7_9 
REMARK    5  A    between atoms: C10_12  and  O3_13 
REMARK    6  A    between atoms: C11_15  and  O4_16 
ROOT
HETATM    1  C7  UNL     1      15.013  -3.724  23.848  1.00  0.00    -0.050 A 
HETATM    2  C8  UNL     1      15.204  -5.013  24.295  1.00  0.00     0.010 A 
HETATM    3  C9  UNL     1      14.161  -5.908  24.185  1.00  0.00     0.040 A 
HETATM    4  C10 UNL     1      12.952  -5.519  23.638  1.00  0.00     0.099 A 
HETATM    5  C11 UNL     1      12.741  -4.235  23.185  1.00  0.00     0.101 A 
HETATM    6  C13 UNL     1      13.787  -3.346  23.298  1.00  0.00     0.047 A 
ENDROOT
BRANCH   1   7
HETATM    7  C6  UNL     1      16.114  -2.731  23.950  1.00  0.00     0.033 A 
HETATM    8  C4  UNL     1      17.229  -2.796  22.986  1.00  0.00     0.095 A 
HETATM    9  C5  UNL     1      17.435  -3.272  24.408  1.00  0.00     0.025 A 
BRANCH   8  10
HETATM   10  C3  UNL     1      17.983  -1.556  22.635  1.00  0.00     0.263 C 
HETATM   11  O2  UNL     1      18.902  -1.113  23.399  1.00  0.00    -0.265 OA
BRANCH  10  12
HETATM   12  O1  UNL     1      17.730  -0.835  21.484  1.00  0.00    -0.322 OA
BRANCH  12  13
HETATM   13  C2  UNL     1      16.515  -0.992  20.748  1.00  0.00     0.174 C 
HETATM   14  C1  UNL     1      16.007   0.302  20.200  1.00  0.00     0.034 C 
ENDBRANCH  12  13
ENDBRANCH  10  12
ENDBRANCH   8  10
ENDBRANCH   1   7
BRANCH   5  15
HETATM   15  O4  UNL     1      11.520  -3.918  22.655  1.00  0.00    -0.353 OA
HETATM   16  C12 UNL     1      11.234  -3.653  21.318  1.00  0.00     0.210 C 
ENDBRANCH   5  15
BRANCH   4  17
HETATM   17  O3  UNL     1      11.929  -6.482  23.554  1.00  0.00    -0.358 OA
ATOM     18  H3  UNL     1      11.409  -6.509  22.760  1.00  0.00     0.217 HD
ENDBRANCH   4  17
TORSDOF 6
ENDMDL
