MODEL 7
REMARK VINA RESULT: -6.987726126      3.827      5.915
REMARK  6 active torsions:
REMARK  status: ('A' for Active; 'I' for Inactive)
REMARK    1  A    between atoms: C2_2  and  O1_3 
REMARK    2  A    between atoms: O1_3  and  C3_4 
REMARK    3  A    between atoms: C3_4  and  C4_6 
REMARK    4  A    between atoms: C6_8  and  C7_9 
REMARK    5  A    between atoms: C10_12  and  O3_13 
REMARK    6  A    between atoms: C11_15  and  O4_16 
ROOT
HETATM    1  C7  UNL     1      12.734  -5.477  23.619  1.00  0.00    -0.050 A 
HETATM    2  C8  UNL     1      11.878  -6.408  24.164  1.00  0.00     0.010 A 
HETATM    3  C9  UNL     1      10.582  -6.462  23.697  1.00  0.00     0.040 A 
HETATM    4  C10 UNL     1      10.154  -5.601  22.703  1.00  0.00     0.099 A 
HETATM    5  C11 UNL     1      10.995  -4.663  22.145  1.00  0.00     0.101 A 
HETATM    6  C13 UNL     1      12.289  -4.615  22.617  1.00  0.00     0.047 A 
ENDROOT
BRANCH   1   7
HETATM    7  C6  UNL     1      14.139  -5.389  24.098  1.00  0.00     0.033 A 
HETATM    8  C4  UNL     1      15.119  -4.621  23.306  1.00  0.00     0.095 A 
HETATM    9  C5  UNL     1      15.151  -6.134  23.280  1.00  0.00     0.025 A 
BRANCH   8  10
HETATM   10  C3  UNL     1      16.291  -3.991  23.981  1.00  0.00     0.263 C 
HETATM   11  O2  UNL     1      16.282  -3.772  25.236  1.00  0.00    -0.265 OA
BRANCH  10  12
HETATM   12  O1  UNL     1      17.431  -3.617  23.294  1.00  0.00    -0.322 OA
BRANCH  12  13
HETATM   13  C2  UNL     1      17.522  -3.724  21.871  1.00  0.00     0.174 C 
HETATM   14  C1  UNL     1      18.283  -2.592  21.260  1.00  0.00     0.034 C 
ENDBRANCH  12  13
ENDBRANCH  10  12
ENDBRANCH   8  10
ENDBRANCH   1   7
BRANCH   5  15
HETATM   15  O4  UNL     1      10.505  -3.843  21.166  1.00  0.00    -0.353 OA
HETATM   16  C12 UNL     1      11.055  -3.631  19.903  1.00  0.00     0.210 C 
ENDBRANCH   5  15
BRANCH   4  17
HETATM   17  O3  UNL     1       8.819  -5.709  22.271  1.00  0.00    -0.358 OA
ATOM     18  H3  UNL     1       8.141  -5.351  22.832  1.00  0.00     0.217 HD
ENDBRANCH   4  17
TORSDOF 6
ENDMDL
