MODEL 1
REMARK VINA RESULT: -7.080427506      0.000      0.000
REMARK  18 active torsions:
REMARK  status: ('A' for Active; 'I' for Inactive)
REMARK       I    between atoms: C2_2  and  N1_4 
REMARK    1  A    between atoms: N1_4  and  C3_6 
REMARK    2  A    between atoms: C4_7  and  O2_8 
REMARK    3  A    between atoms: O2_8  and  C5_9 
REMARK    4  A    between atoms: C6_10  and  C7_11 
REMARK    5  A    between atoms: C7_11  and  O3_12 
REMARK    6  A    between atoms: C8_15  and  O5_16 
REMARK    7  A    between atoms: O5_16  and  C9_17 
REMARK    8  A    between atoms: C10_18  and  C11_19 
REMARK    9  A    between atoms: C11_19  and  O6_20 
REMARK   10  A    between atoms: C12_23  and  O8_24 
REMARK   11  A    between atoms: C13_26  and  N2_27 
REMARK       I    between atoms: N2_27  and  C14_29 
REMARK   12  A    between atoms: C16_32  and  O10_33 
REMARK   13  A    between atoms: C17_35  and  N3_36 
REMARK       I    between atoms: N3_36  and  C18_38 
REMARK   14  A    between atoms: C20_41  and  O12_42 
REMARK   15  A    between atoms: C21_45  and  C22_46 
REMARK   16  A    between atoms: C22_46  and  O14_47 
REMARK   17  A    between atoms: C23_49  and  O15_50 
REMARK   18  A    between atoms: C24_52  and  O16_53 
ROOT
HETATM    1  C5  UNL     1      23.838 -10.095  -7.501  1.00  0.00     0.186 C 
HETATM    2  C6  UNL     1      24.453 -11.368  -6.926  1.00  0.00     0.180 C 
HETATM    3  O4  UNL     1      23.470 -12.062  -6.174  1.00  0.00    -0.349 OA
HETATM    4  C8  UNL     1      22.613 -12.639  -7.144  1.00  0.00     0.286 C 
HETATM    5  C17 UNL     1      21.812 -11.541  -7.737  1.00  0.00     0.170 C 
HETATM    6  C20 UNL     1      22.321 -10.159  -7.343  1.00  0.00     0.177 C 
ENDROOT
BRANCH   1   7
HETATM    7  O2  UNL     1      24.195  -9.879  -8.815  1.00  0.00    -0.348 OA
BRANCH   7   8
HETATM    8  C4  UNL     1      25.538  -9.779  -9.071  1.00  0.00     0.286 C 
HETATM    9  C3  UNL     1      25.890 -10.222 -10.445  1.00  0.00     0.170 C 
HETATM   10  C24 UNL     1      27.333  -9.996 -10.806  1.00  0.00     0.177 C 
HETATM   11  C23 UNL     1      27.953  -8.817 -10.155  1.00  0.00     0.180 C 
HETATM   12  C21 UNL     1      27.356  -8.505  -8.798  1.00  0.00     0.179 C 
HETATM   13  O13 UNL     1      25.976  -8.433  -8.974  1.00  0.00    -0.349 OA
BRANCH   9  14
HETATM   14  N1  UNL     1      25.579 -11.602 -10.747  1.00  0.00    -0.349 N 
HETATM   15  C2  UNL     1      24.386 -11.961 -11.434  1.00  0.00     0.214 C 
HETATM   16  C1  UNL     1      24.023 -13.378 -11.764  1.00  0.00     0.117 C 
HETATM   17  O1  UNL     1      23.568 -11.092 -11.800  1.00  0.00    -0.274 OA
ATOM     18  H1  UNL     1      26.229 -12.333 -10.462  1.00  0.00     0.163 HD
ENDBRANCH   9  14
BRANCH  10  19
HETATM   19  O16 UNL     1      27.424  -9.834 -12.187  1.00  0.00    -0.391 OA
ATOM     20  H16 UNL     1      27.846  -9.002 -12.367  1.00  0.00     0.210 HD
ENDBRANCH  10  19
BRANCH  11  21
HETATM   21  O15 UNL     1      29.323  -9.025 -10.001  1.00  0.00    -0.390 OA
ATOM     22  H15 UNL     1      29.457  -9.650  -9.298  1.00  0.00     0.210 HD
ENDBRANCH  11  21
BRANCH  12  23
HETATM   23  C22 UNL     1      27.930  -7.201  -8.298  1.00  0.00     0.198 C 
BRANCH  23  24
HETATM   24  O14 UNL     1      27.023  -6.583  -7.470  1.00  0.00    -0.398 OA
ATOM     25  H14 UNL     1      27.248  -6.755  -6.563  1.00  0.00     0.209 HD
ENDBRANCH  23  24
ENDBRANCH  12  23
ENDBRANCH   7   8
ENDBRANCH   1   7
BRANCH   2  26
HETATM   26  C7  UNL     1      25.663 -11.093  -6.084  1.00  0.00     0.198 C 
BRANCH  26  27
HETATM   27  O3  UNL     1      25.621  -9.810  -5.525  1.00  0.00    -0.398 OA
ATOM     28  H3  UNL     1      25.416  -9.838  -4.598  1.00  0.00     0.209 HD
ENDBRANCH  26  27
ENDBRANCH   2  26
BRANCH   6  29
HETATM   29  O12 UNL     1      22.013  -9.826  -6.033  1.00  0.00    -0.391 OA
ATOM     30  H12 UNL     1      21.607 -10.582  -5.625  1.00  0.00     0.210 HD
ENDBRANCH   6  29
BRANCH   5  31
HETATM   31  N3  UNL     1      21.648 -11.625  -9.179  1.00  0.00    -0.349 N 
HETATM   32  C18 UNL     1      20.587 -12.316  -9.819  1.00  0.00     0.214 C 
HETATM   33  C19 UNL     1      20.472 -12.367 -11.304  1.00  0.00     0.117 C 
HETATM   34  O11 UNL     1      19.735 -12.890  -9.133  1.00  0.00    -0.274 OA
ATOM     35  H3  UNL     1      22.338 -11.158  -9.768  1.00  0.00     0.163 HD
ENDBRANCH   5  31
BRANCH   4  36
HETATM   36  O5  UNL     1      21.770 -13.567  -6.552  1.00  0.00    -0.348 OA
BRANCH  36  37
HETATM   37  C9  UNL     1      22.066 -13.852  -5.222  1.00  0.00     0.186 C 
HETATM   38  C10 UNL     1      22.192 -15.338  -5.072  1.00  0.00     0.179 C 
HETATM   39  O7  UNL     1      21.704 -15.732  -3.829  1.00  0.00    -0.349 OA
HETATM   40  C12 UNL     1      20.306 -15.718  -3.806  1.00  0.00     0.282 C 
HETATM   41  C13 UNL     1      19.771 -14.396  -4.293  1.00  0.00     0.170 C 
HETATM   42  C16 UNL     1      20.859 -13.383  -4.431  1.00  0.00     0.177 C 
BRANCH  38  43
HETATM   43  C11 UNL     1      23.621 -15.838  -5.121  1.00  0.00     0.198 C 
BRANCH  43  44
HETATM   44  O6  UNL     1      24.516 -14.777  -5.298  1.00  0.00    -0.398 OA
ATOM     45  H6  UNL     1      25.031 -14.895  -6.087  1.00  0.00     0.209 HD
ENDBRANCH  43  44
ENDBRANCH  38  43
BRANCH  40  46
HETATM   46  O8  UNL     1      19.847 -15.933  -2.514  1.00  0.00    -0.369 OA
ATOM     47  H8  UNL     1      18.899 -15.992  -2.509  1.00  0.00     0.212 HD
ENDBRANCH  40  46
BRANCH  41  48
HETATM   48  N2  UNL     1      18.987 -14.542  -5.514  1.00  0.00    -0.349 N 
HETATM   49  C14 UNL     1      17.906 -13.698  -5.814  1.00  0.00     0.214 C 
HETATM   50  C15 UNL     1      17.150 -13.901  -7.071  1.00  0.00     0.117 C 
HETATM   51  O9  UNL     1      17.575 -12.764  -5.016  1.00  0.00    -0.274 OA
ATOM     52  H2  UNL     1      19.232 -15.282  -6.172  1.00  0.00     0.163 HD
ENDBRANCH  41  48
BRANCH  42  53
HETATM   53  O10 UNL     1      21.319 -13.009  -3.158  1.00  0.00    -0.391 OA
ATOM     54  H10 UNL     1      20.557 -12.757  -2.648  1.00  0.00     0.210 HD
ENDBRANCH  42  53
ENDBRANCH  36  37
ENDBRANCH   4  36
TORSDOF 18
ENDMDL
