MODEL 3
REMARK VINA RESULT: -6.972543472      1.798      2.869
REMARK  18 active torsions:
REMARK  status: ('A' for Active; 'I' for Inactive)
REMARK       I    between atoms: C2_2  and  N1_4 
REMARK    1  A    between atoms: N1_4  and  C3_6 
REMARK    2  A    between atoms: C4_7  and  O2_8 
REMARK    3  A    between atoms: O2_8  and  C5_9 
REMARK    4  A    between atoms: C6_10  and  C7_11 
REMARK    5  A    between atoms: C7_11  and  O3_12 
REMARK    6  A    between atoms: C8_15  and  O5_16 
REMARK    7  A    between atoms: O5_16  and  C9_17 
REMARK    8  A    between atoms: C10_18  and  C11_19 
REMARK    9  A    between atoms: C11_19  and  O6_20 
REMARK   10  A    between atoms: C12_23  and  O8_24 
REMARK   11  A    between atoms: C13_26  and  N2_27 
REMARK       I    between atoms: N2_27  and  C14_29 
REMARK   12  A    between atoms: C16_32  and  O10_33 
REMARK   13  A    between atoms: C17_35  and  N3_36 
REMARK       I    between atoms: N3_36  and  C18_38 
REMARK   14  A    between atoms: C20_41  and  O12_42 
REMARK   15  A    between atoms: C21_45  and  C22_46 
REMARK   16  A    between atoms: C22_46  and  O14_47 
REMARK   17  A    between atoms: C23_49  and  O15_50 
REMARK   18  A    between atoms: C24_52  and  O16_53 
ROOT
HETATM    1  C5  UNL     1      25.030 -12.044  -7.876  1.00  0.00     0.186 C 
HETATM    2  C6  UNL     1      24.801 -13.507  -8.242  1.00  0.00     0.180 C 
HETATM    3  O4  UNL     1      24.066 -14.138  -7.205  1.00  0.00    -0.349 OA
HETATM    4  C8  UNL     1      22.742 -13.654  -7.354  1.00  0.00     0.286 C 
HETATM    5  C17 UNL     1      22.733 -12.241  -6.906  1.00  0.00     0.170 C 
HETATM    6  C20 UNL     1      24.136 -11.680  -6.693  1.00  0.00     0.177 C 
ENDROOT
BRANCH   1   7
HETATM    7  O2  UNL     1      24.824 -11.191  -8.939  1.00  0.00    -0.348 OA
BRANCH   7   8
HETATM    8  C4  UNL     1      25.848 -10.327  -9.231  1.00  0.00     0.286 C 
HETATM    9  C3  UNL     1      25.659  -8.990  -8.610  1.00  0.00     0.170 C 
HETATM   10  C24 UNL     1      26.828  -8.062  -8.795  1.00  0.00     0.177 C 
HETATM   11  C23 UNL     1      28.145  -8.740  -8.866  1.00  0.00     0.180 C 
HETATM   12  C21 UNL     1      28.066 -10.136  -9.449  1.00  0.00     0.179 C 
HETATM   13  O13 UNL     1      27.084 -10.814  -8.731  1.00  0.00    -0.349 OA
BRANCH   9  14
HETATM   14  N1  UNL     1      24.471  -8.279  -9.029  1.00  0.00    -0.349 N 
HETATM   15  C2  UNL     1      23.346  -8.140  -8.169  1.00  0.00     0.214 C 
HETATM   16  C1  UNL     1      22.095  -7.414  -8.563  1.00  0.00     0.117 C 
HETATM   17  O1  UNL     1      23.351  -8.630  -7.021  1.00  0.00    -0.274 OA
ATOM     18  H1  UNL     1      24.440  -7.866  -9.961  1.00  0.00     0.163 HD
ENDBRANCH   9  14
BRANCH  10  19
HETATM   19  O16 UNL     1      26.854  -7.162  -7.731  1.00  0.00    -0.391 OA
ATOM     20  H16 UNL     1      27.182  -6.329  -8.048  1.00  0.00     0.210 HD
ENDBRANCH  10  19
BRANCH  11  21
HETATM   21  O15 UNL     1      29.027  -7.985  -9.639  1.00  0.00    -0.390 OA
ATOM     22  H15 UNL     1      29.886  -8.014  -9.234  1.00  0.00     0.210 HD
ENDBRANCH  11  21
BRANCH  12  23
HETATM   23  C22 UNL     1      29.417 -10.798  -9.322  1.00  0.00     0.198 C 
BRANCH  23  24
HETATM   24  O14 UNL     1      30.166 -10.541 -10.446  1.00  0.00    -0.398 OA
ATOM     25  H14 UNL     1      29.672 -10.783 -11.222  1.00  0.00     0.209 HD
ENDBRANCH  23  24
ENDBRANCH  12  23
ENDBRANCH   7   8
ENDBRANCH   1   7
BRANCH   2  26
HETATM   26  C7  UNL     1      26.082 -14.243  -8.502  1.00  0.00     0.198 C 
BRANCH  26  27
HETATM   27  O3  UNL     1      26.837 -13.626  -9.506  1.00  0.00    -0.398 OA
ATOM     28  H3  UNL     1      26.471 -13.787 -10.368  1.00  0.00     0.209 HD
ENDBRANCH  26  27
ENDBRANCH   2  26
BRANCH   6  29
HETATM   29  O12 UNL     1      24.736 -12.159  -5.538  1.00  0.00    -0.391 OA
ATOM     30  H12 UNL     1      24.481 -13.068  -5.430  1.00  0.00     0.210 HD
ENDBRANCH   6  29
BRANCH   5  31
HETATM   31  N3  UNL     1      21.956 -11.345  -7.748  1.00  0.00    -0.349 N 
HETATM   32  C18 UNL     1      20.644 -10.903  -7.438  1.00  0.00     0.214 C 
HETATM   33  C19 UNL     1      19.896  -9.984  -8.342  1.00  0.00     0.117 C 
HETATM   34  O11 UNL     1      20.105 -11.287  -6.395  1.00  0.00    -0.274 OA
ATOM     35  H3  UNL     1      22.380 -11.013  -8.614  1.00  0.00     0.163 HD
ENDBRANCH   5  31
BRANCH   4  36
HETATM   36  O5  UNL     1      21.866 -14.396  -6.578  1.00  0.00    -0.348 OA
BRANCH  36  37
HETATM   37  C9  UNL     1      22.158 -14.398  -5.217  1.00  0.00     0.186 C 
HETATM   38  C10 UNL     1      22.198 -15.820  -4.743  1.00  0.00     0.179 C 
HETATM   39  O7  UNL     1      21.701 -15.900  -3.445  1.00  0.00    -0.349 OA
HETATM   40  C12 UNL     1      20.305 -15.798  -3.429  1.00  0.00     0.282 C 
HETATM   41  C13 UNL     1      19.845 -14.586  -4.198  1.00  0.00     0.170 C 
HETATM   42  C16 UNL     1      20.989 -13.695  -4.552  1.00  0.00     0.177 C 
BRANCH  38  43
HETATM   43  C11 UNL     1      23.594 -16.403  -4.676  1.00  0.00     0.198 C 
BRANCH  43  44
HETATM   44  O6  UNL     1      24.560 -15.411  -4.875  1.00  0.00    -0.398 OA
ATOM     45  H6  UNL     1      25.310 -15.756  -5.344  1.00  0.00     0.209 HD
ENDBRANCH  43  44
ENDBRANCH  38  43
BRANCH  40  46
HETATM   46  O8  UNL     1      19.849 -15.694  -2.123  1.00  0.00    -0.369 OA
ATOM     47  H8  UNL     1      19.280 -14.939  -2.034  1.00  0.00     0.212 HD
ENDBRANCH  40  46
BRANCH  41  48
HETATM   48  N2  UNL     1      19.041 -14.950  -5.358  1.00  0.00    -0.349 N 
HETATM   49  C14 UNL     1      17.956 -14.171  -5.791  1.00  0.00     0.214 C 
HETATM   50  C15 UNL     1      17.180 -14.599  -6.977  1.00  0.00     0.117 C 
HETATM   51  O9  UNL     1      17.638 -13.106  -5.172  1.00  0.00    -0.274 OA
ATOM     52  H2  UNL     1      19.275 -15.799  -5.874  1.00  0.00     0.163 HD
ENDBRANCH  41  48
BRANCH  42  53
HETATM   53  O10 UNL     1      21.483 -13.078  -3.392  1.00  0.00    -0.391 OA
ATOM     54  H10 UNL     1      21.030 -12.248  -3.302  1.00  0.00     0.210 HD
ENDBRANCH  42  53
ENDBRANCH  36  37
ENDBRANCH   4  36
TORSDOF 18
ENDMDL
