MODEL 2
REMARK VINA RESULT: -6.999705802      2.121      3.010
REMARK  18 active torsions:
REMARK  status: ('A' for Active; 'I' for Inactive)
REMARK       I    between atoms: C2_2  and  N1_4 
REMARK    1  A    between atoms: N1_4  and  C3_6 
REMARK    2  A    between atoms: C4_7  and  O2_8 
REMARK    3  A    between atoms: O2_8  and  C5_9 
REMARK    4  A    between atoms: C6_10  and  C7_11 
REMARK    5  A    between atoms: C7_11  and  O3_12 
REMARK    6  A    between atoms: C8_15  and  O5_16 
REMARK    7  A    between atoms: O5_16  and  C9_17 
REMARK    8  A    between atoms: C10_18  and  C11_19 
REMARK    9  A    between atoms: C11_19  and  O6_20 
REMARK   10  A    between atoms: C12_23  and  O8_24 
REMARK   11  A    between atoms: C13_26  and  N2_27 
REMARK       I    between atoms: N2_27  and  C14_29 
REMARK   12  A    between atoms: C16_32  and  O10_33 
REMARK   13  A    between atoms: C17_35  and  N3_36 
REMARK       I    between atoms: N3_36  and  C18_38 
REMARK   14  A    between atoms: C20_41  and  O12_42 
REMARK   15  A    between atoms: C21_45  and  C22_46 
REMARK   16  A    between atoms: C22_46  and  O14_47 
REMARK   17  A    between atoms: C23_49  and  O15_50 
REMARK   18  A    between atoms: C24_52  and  O16_53 
ROOT
HETATM    1  C5  UNL     1      25.944 -10.349  -8.200  1.00  0.00     0.186 C 
HETATM    2  C6  UNL     1      25.448 -11.587  -8.941  1.00  0.00     0.180 C 
HETATM    3  O4  UNL     1      24.382 -12.173  -8.209  1.00  0.00    -0.349 OA
HETATM    4  C8  UNL     1      23.276 -11.314  -8.430  1.00  0.00     0.286 C 
HETATM    5  C17 UNL     1      23.518 -10.071  -7.659  1.00  0.00     0.170 C 
HETATM    6  C20 UNL     1      24.939  -9.983  -7.111  1.00  0.00     0.177 C 
ENDROOT
BRANCH   1   7
HETATM    7  O2  UNL     1      26.177  -9.283  -9.043  1.00  0.00    -0.348 OA
BRANCH   7   8
HETATM    8  C4  UNL     1      27.444  -8.758  -9.023  1.00  0.00     0.286 C 
HETATM    9  C3  UNL     1      28.079  -8.754 -10.366  1.00  0.00     0.170 C 
HETATM   10  C24 UNL     1      29.413  -8.061 -10.406  1.00  0.00     0.177 C 
HETATM   11  C23 UNL     1      29.553  -6.942  -9.443  1.00  0.00     0.180 C 
HETATM   12  C21 UNL     1      28.729  -7.131  -8.186  1.00  0.00     0.179 C 
HETATM   13  O13 UNL     1      27.427  -7.405  -8.597  1.00  0.00    -0.349 OA
BRANCH   9  14
HETATM   14  N1  UNL     1      28.249 -10.056 -10.972  1.00  0.00    -0.349 N 
HETATM   15  C2  UNL     1      27.907 -10.293 -12.332  1.00  0.00     0.214 C 
HETATM   16  C1  UNL     1      28.066 -11.627 -12.999  1.00  0.00     0.117 C 
HETATM   17  O1  UNL     1      27.449  -9.379 -13.049  1.00  0.00    -0.274 OA
ATOM     18  H1  UNL     1      28.624 -10.821 -10.411  1.00  0.00     0.163 HD
ENDBRANCH   9  14
BRANCH  10  19
HETATM   19  O16 UNL     1      29.616  -7.563 -11.691  1.00  0.00    -0.391 OA
ATOM     20  H16 UNL     1      30.380  -7.989 -12.064  1.00  0.00     0.210 HD
ENDBRANCH  10  19
BRANCH  11  21
HETATM   21  O15 UNL     1      30.891  -6.792  -9.079  1.00  0.00    -0.390 OA
ATOM     22  H15 UNL     1      31.430  -7.257  -9.709  1.00  0.00     0.210 HD
ENDBRANCH  11  21
BRANCH  12  23
HETATM   23  C22 UNL     1      28.806  -5.874  -7.354  1.00  0.00     0.198 C 
BRANCH  23  24
HETATM   24  O14 UNL     1      27.541  -5.377  -7.148  1.00  0.00    -0.398 OA
ATOM     25  H14 UNL     1      27.588  -4.445  -6.968  1.00  0.00     0.209 HD
ENDBRANCH  23  24
ENDBRANCH  12  23
ENDBRANCH   7   8
ENDBRANCH   1   7
BRANCH   2  26
HETATM   26  C7  UNL     1      26.537 -12.591  -9.178  1.00  0.00     0.198 C 
BRANCH  26  27
HETATM   27  O3  UNL     1      27.789 -12.093  -8.798  1.00  0.00    -0.398 OA
ATOM     28  H3  UNL     1      28.497 -12.597  -9.181  1.00  0.00     0.209 HD
ENDBRANCH  26  27
ENDBRANCH   2  26
BRANCH   6  29
HETATM   29  O12 UNL     1      25.151 -10.827  -6.031  1.00  0.00    -0.391 OA
ATOM     30  H12 UNL     1      24.453 -10.682  -5.403  1.00  0.00     0.210 HD
ENDBRANCH   6  29
BRANCH   5  31
HETATM   31  N3  UNL     1      23.174  -8.846  -8.364  1.00  0.00    -0.349 N 
HETATM   32  C18 UNL     1      21.861  -8.316  -8.439  1.00  0.00     0.214 C 
HETATM   33  C19 UNL     1      21.570  -7.055  -9.179  1.00  0.00     0.117 C 
HETATM   34  O11 UNL     1      20.933  -8.910  -7.880  1.00  0.00    -0.274 OA
ATOM     35  H3  UNL     1      23.923  -8.337  -8.833  1.00  0.00     0.163 HD
ENDBRANCH   5  31
BRANCH   4  36
HETATM   36  O5  UNL     1      22.105 -11.914  -7.996  1.00  0.00    -0.348 OA
BRANCH  36  37
HETATM   37  C9  UNL     1      22.013 -12.073  -6.616  1.00  0.00     0.186 C 
HETATM   38  C10 UNL     1      21.819 -13.530  -6.318  1.00  0.00     0.179 C 
HETATM   39  O7  UNL     1      20.982 -13.680  -5.217  1.00  0.00    -0.349 OA
HETATM   40  C12 UNL     1      19.646 -13.439  -5.557  1.00  0.00     0.282 C 
HETATM   41  C13 UNL     1      19.502 -12.120  -6.272  1.00  0.00     0.170 C 
HETATM   42  C16 UNL     1      20.761 -11.320  -6.205  1.00  0.00     0.177 C 
BRANCH  38  43
HETATM   43  C11 UNL     1      23.098 -14.255  -5.955  1.00  0.00     0.198 C 
BRANCH  43  44
HETATM   44  O6  UNL     1      24.087 -13.351  -5.552  1.00  0.00    -0.398 OA
ATOM     45  H6  UNL     1      24.792 -13.799  -5.099  1.00  0.00     0.209 HD
ENDBRANCH  43  44
ENDBRANCH  38  43
BRANCH  40  46
HETATM   46  O8  UNL     1      18.859 -13.413  -4.415  1.00  0.00    -0.369 OA
ATOM     47  H8  UNL     1      17.942 -13.499  -4.648  1.00  0.00     0.212 HD
ENDBRANCH  40  46
BRANCH  41  48
HETATM   48  N2  UNL     1      19.022 -12.290  -7.638  1.00  0.00    -0.349 N 
HETATM   49  C14 UNL     1      17.700 -11.994  -8.009  1.00  0.00     0.214 C 
HETATM   50  C15 UNL     1      17.277 -12.191  -9.414  1.00  0.00     0.117 C 
HETATM   51  O9  UNL     1      16.871 -11.560  -7.149  1.00  0.00    -0.274 OA
ATOM     52  H2  UNL     1      19.667 -12.637  -8.349  1.00  0.00     0.163 HD
ENDBRANCH  41  48
BRANCH  42  53
HETATM   53  O10 UNL     1      20.963 -10.868  -4.892  1.00  0.00    -0.391 OA
ATOM     54  H10 UNL     1      20.605 -11.529  -4.310  1.00  0.00     0.210 HD
ENDBRANCH  42  53
ENDBRANCH  36  37
ENDBRANCH   4  36
TORSDOF 18
ENDMDL
