MODEL 9
REMARK VINA RESULT: -8.026949361      3.460      6.959
REMARK  10 active torsions:
REMARK  status: ('A' for Active; 'I' for Inactive)
REMARK    1  A    between atoms: N4_17  and  C9_18 
REMARK    2  A    between atoms: C9_18  and  C10_19 
REMARK    3  A    between atoms: C10_19  and  O3_20 
REMARK    4  A    between atoms: C10_19  and  C11_22 
REMARK    5  A    between atoms: C11_22  and  O4_23 
REMARK    6  A    between atoms: C11_22  and  C12_25 
REMARK    7  A    between atoms: C12_25  and  O5_26 
REMARK    8  A    between atoms: C12_25  and  C13_28 
REMARK    9  A    between atoms: C13_28  and  O6_29 
REMARK   10  A    between atoms: O6_29  and  P1_30 
ROOT
HETATM    1  C1  UNL     1       5.852  46.075  21.593  1.00  0.00     0.049 C 
HETATM    2  C2  UNL     1       7.176  46.541  22.074  1.00  0.00    -0.054 A 
HETATM    3  C3  UNL     1       7.558  46.355  23.385  1.00  0.00     0.039 A 
HETATM    4  C4  UNL     1       8.790  46.781  23.860  1.00  0.00     0.060 A 
HETATM    5  N1  UNL     1       9.111  46.567  25.148  1.00  0.00    -0.347 N 
ATOM      6  H1  UNL     1       8.446  46.099  25.763  1.00  0.00     0.166 HD
HETATM    7  C5  UNL     1      10.295  46.963  25.633  1.00  0.00     0.146 A 
HETATM    8  C6  UNL     1      10.678  46.764  26.965  1.00  0.00     0.280 A 
HETATM    9  O1  UNL     1       9.871  46.193  27.720  1.00  0.00    -0.265 OA
HETATM   10  N2  UNL     1      11.894  47.192  27.386  1.00  0.00    -0.273 N 
ATOM     11  H2  UNL     1      12.176  47.050  28.356  1.00  0.00     0.173 HD
HETATM   12  C7  UNL     1      12.727  47.804  26.526  1.00  0.00     0.328 A 
HETATM   13  O2  UNL     1      13.840  48.176  26.982  1.00  0.00    -0.247 OA
HETATM   14  N3  UNL     1      12.395  48.018  25.219  1.00  0.00    -0.292 N 
ATOM     15  H3  UNL     1      13.060  48.487  24.604  1.00  0.00     0.172 HD
HETATM   16  C8  UNL     1      11.210  47.624  24.727  1.00  0.00     0.145 A 
HETATM   17  N4  UNL     1      10.840  47.820  23.424  1.00  0.00    -0.327 N 
HETATM   18  C14 UNL     1       9.648  47.416  22.955  1.00  0.00     0.063 A 
HETATM   19  C15 UNL     1       9.273  47.606  21.639  1.00  0.00     0.039 A 
HETATM   20  C16 UNL     1       8.039  47.169  21.197  1.00  0.00    -0.054 A 
HETATM   21  C17 UNL     1       7.618  47.365  19.787  1.00  0.00     0.049 C 
ENDROOT
BRANCH  17  22
HETATM   22  C9  UNL     1      11.792  48.485  22.561  1.00  0.00     0.165 C 
BRANCH  22  23
HETATM   23  C10 UNL     1      11.416  49.972  22.506  1.00  0.00     0.167 C 
BRANCH  23  24
HETATM   24  O3  UNL     1      11.308  50.472  21.238  1.00  0.00    -0.391 OA
ATOM     25  H3  UNL     1      12.070  50.959  20.948  1.00  0.00     0.210 HD
ENDBRANCH  23  24
BRANCH  23  26
HETATM   26  C11 UNL     1      12.211  50.821  23.389  1.00  0.00     0.179 C 
BRANCH  26  27
HETATM   27  O4  UNL     1      11.725  52.132  23.372  1.00  0.00    -0.390 OA
ATOM     28  H4  UNL     1      12.414  52.743  23.605  1.00  0.00     0.210 HD
ENDBRANCH  26  27
BRANCH  26  29
HETATM   29  C12 UNL     1      13.675  50.823  23.383  1.00  0.00     0.173 C 
BRANCH  29  30
HETATM   30  O5  UNL     1      14.039  50.455  24.732  1.00  0.00    -0.391 OA
ATOM     31  H5  UNL     1      13.212  50.420  25.197  1.00  0.00     0.210 HD
ENDBRANCH  29  30
BRANCH  29  32
HETATM   32  C13 UNL     1      14.344  52.187  23.246  1.00  0.00     0.217 C 
BRANCH  32  33
HETATM   33  O6  UNL     1      15.295  52.121  22.184  1.00  0.00    -0.280 OA
BRANCH  33  34
HETATM   34  P1  UNL     1      14.505  52.201  20.701  1.00  0.00     0.422 P 
HETATM   35  O7  UNL     1      15.378  52.928  19.733  1.00  0.00    -0.617 OA
HETATM   36  O8  UNL     1      13.026  53.005  20.815  1.00  0.00    -0.617 OA
HETATM   37  O9  UNL     1      14.206  50.651  20.072  1.00  0.00    -0.617 OA
ENDBRANCH  33  34
ENDBRANCH  32  33
ENDBRANCH  29  32
ENDBRANCH  26  29
ENDBRANCH  23  26
ENDBRANCH  22  23
ENDBRANCH  17  22
TORSDOF 10
ENDMDL
