MODEL 7
REMARK VINA RESULT: -8.165290384      3.803      7.714
REMARK  10 active torsions:
REMARK  status: ('A' for Active; 'I' for Inactive)
REMARK    1  A    between atoms: N4_17  and  C9_18 
REMARK    2  A    between atoms: C9_18  and  C10_19 
REMARK    3  A    between atoms: C10_19  and  O3_20 
REMARK    4  A    between atoms: C10_19  and  C11_22 
REMARK    5  A    between atoms: C11_22  and  O4_23 
REMARK    6  A    between atoms: C11_22  and  C12_25 
REMARK    7  A    between atoms: C12_25  and  O5_26 
REMARK    8  A    between atoms: C12_25  and  C13_28 
REMARK    9  A    between atoms: C13_28  and  O6_29 
REMARK   10  A    between atoms: O6_29  and  P1_30 
ROOT
HETATM    1  C1  UNL     1      11.696  46.936  17.884  1.00  0.00     0.049 C 
HETATM    2  C2  UNL     1      11.762  47.373  19.300  1.00  0.00    -0.054 A 
HETATM    3  C3  UNL     1      12.089  46.484  20.301  1.00  0.00     0.039 A 
HETATM    4  C4  UNL     1      12.157  46.866  21.632  1.00  0.00     0.060 A 
HETATM    5  N1  UNL     1      12.488  45.956  22.565  1.00  0.00    -0.347 N 
ATOM      6  H1  UNL     1      12.680  44.994  22.286  1.00  0.00     0.166 HD
HETATM    7  C5  UNL     1      12.567  46.298  23.857  1.00  0.00     0.146 A 
HETATM    8  C6  UNL     1      12.906  45.389  24.867  1.00  0.00     0.280 A 
HETATM    9  O1  UNL     1      13.142  44.214  24.533  1.00  0.00    -0.265 OA
HETATM   10  N2  UNL     1      12.967  45.807  26.156  1.00  0.00    -0.273 N 
ATOM     11  H2  UNL     1      13.213  45.148  26.894  1.00  0.00     0.173 HD
HETATM   12  C7  UNL     1      12.702  47.090  26.461  1.00  0.00     0.328 A 
HETATM   13  O2  UNL     1      12.777  47.412  27.675  1.00  0.00    -0.247 OA
HETATM   14  N3  UNL     1      12.367  48.009  25.508  1.00  0.00    -0.292 N 
ATOM     15  H3  UNL     1      12.175  48.971  25.787  1.00  0.00     0.172 HD
HETATM   16  C8  UNL     1      12.286  47.674  24.212  1.00  0.00     0.145 A 
HETATM   17  N4  UNL     1      11.954  48.565  23.228  1.00  0.00    -0.327 N 
HETATM   18  C14 UNL     1      11.880  48.204  21.936  1.00  0.00     0.063 A 
HETATM   19  C15 UNL     1      11.552  49.102  20.939  1.00  0.00     0.039 A 
HETATM   20  C16 UNL     1      11.493  48.689  19.622  1.00  0.00    -0.054 A 
HETATM   21  C17 UNL     1      11.141  49.640  18.537  1.00  0.00     0.049 C 
ENDROOT
BRANCH  17  22
HETATM   22  C9  UNL     1      11.685  49.927  23.636  1.00  0.00     0.165 C 
BRANCH  22  23
HETATM   23  C10 UNL     1      12.999  50.714  23.535  1.00  0.00     0.167 C 
BRANCH  23  24
HETATM   24  O3  UNL     1      13.933  50.359  24.468  1.00  0.00    -0.391 OA
ATOM     25  H3  UNL     1      14.340  49.516  24.306  1.00  0.00     0.210 HD
ENDBRANCH  23  24
BRANCH  23  26
HETATM   26  C11 UNL     1      12.820  52.160  23.427  1.00  0.00     0.179 C 
BRANCH  26  27
HETATM   27  O4  UNL     1      11.961  52.467  22.369  1.00  0.00    -0.390 OA
ATOM     28  H4  UNL     1      11.101  52.701  22.698  1.00  0.00     0.210 HD
ENDBRANCH  26  27
BRANCH  26  29
HETATM   29  C12 UNL     1      13.940  53.103  23.460  1.00  0.00     0.173 C 
BRANCH  29  30
HETATM   30  O5  UNL     1      13.322  54.383  23.717  1.00  0.00    -0.391 OA
ATOM     31  H5  UNL     1      12.977  54.651  22.874  1.00  0.00     0.210 HD
ENDBRANCH  29  30
BRANCH  29  32
HETATM   32  C13 UNL     1      14.640  53.361  22.130  1.00  0.00     0.217 C 
BRANCH  32  33
HETATM   33  O6  UNL     1      15.090  52.113  21.604  1.00  0.00    -0.280 OA
BRANCH  33  34
HETATM   34  P1  UNL     1      14.680  51.994  19.977  1.00  0.00     0.422 P 
HETATM   35  O7  UNL     1      14.488  50.554  19.637  1.00  0.00    -0.617 OA
HETATM   36  O8  UNL     1      15.875  52.639  18.975  1.00  0.00    -0.617 OA
HETATM   37  O9  UNL     1      13.227  52.809  19.642  1.00  0.00    -0.617 OA
ENDBRANCH  33  34
ENDBRANCH  32  33
ENDBRANCH  29  32
ENDBRANCH  26  29
ENDBRANCH  23  26
ENDBRANCH  22  23
ENDBRANCH  17  22
TORSDOF 10
ENDMDL
