MODEL 2
REMARK VINA RESULT: -8.685090463      1.188      1.922
REMARK  10 active torsions:
REMARK  status: ('A' for Active; 'I' for Inactive)
REMARK    1  A    between atoms: N4_17  and  C9_18 
REMARK    2  A    between atoms: C9_18  and  C10_19 
REMARK    3  A    between atoms: C10_19  and  O3_20 
REMARK    4  A    between atoms: C10_19  and  C11_22 
REMARK    5  A    between atoms: C11_22  and  O4_23 
REMARK    6  A    between atoms: C11_22  and  C12_25 
REMARK    7  A    between atoms: C12_25  and  O5_26 
REMARK    8  A    between atoms: C12_25  and  C13_28 
REMARK    9  A    between atoms: C13_28  and  O6_29 
REMARK   10  A    between atoms: O6_29  and  P1_30 
ROOT
HETATM    1  C1  UNL     1       6.937  50.514  24.050  1.00  0.00     0.049 C 
HETATM    2  C2  UNL     1       8.404  50.301  24.082  1.00  0.00    -0.054 A 
HETATM    3  C3  UNL     1       9.276  51.349  23.881  1.00  0.00     0.039 A 
HETATM    4  C4  UNL     1      10.652  51.178  23.905  1.00  0.00     0.060 A 
HETATM    5  N1  UNL     1      11.454  52.239  23.708  1.00  0.00    -0.347 N 
ATOM      6  H1  UNL     1      11.044  53.157  23.537  1.00  0.00     0.166 HD
HETATM    7  C5  UNL     1      12.786  52.104  23.732  1.00  0.00     0.146 A 
HETATM    8  C6  UNL     1      13.664  53.176  23.532  1.00  0.00     0.280 A 
HETATM    9  O1  UNL     1      13.170  54.299  23.324  1.00  0.00    -0.265 OA
HETATM   10  N2  UNL     1      15.004  52.964  23.570  1.00  0.00    -0.273 N 
ATOM     11  H2  UNL     1      15.647  53.742  23.424  1.00  0.00     0.173 HD
HETATM   12  C7  UNL     1      15.484  51.729  23.799  1.00  0.00     0.328 A 
HETATM   13  O2  UNL     1      16.736  51.602  23.822  1.00  0.00    -0.247 OA
HETATM   14  N3  UNL     1      14.664  50.656  23.999  1.00  0.00    -0.292 N 
ATOM     15  H3  UNL     1      15.074  49.738  24.170  1.00  0.00     0.172 HD
HETATM   16  C8  UNL     1      13.328  50.784  23.977  1.00  0.00     0.145 A 
HETATM   17  N4  UNL     1      12.473  49.733  24.172  1.00  0.00    -0.327 N 
HETATM   18  C14 UNL     1      11.139  49.887  24.146  1.00  0.00     0.063 A 
HETATM   19  C15 UNL     1      10.273  48.831  24.349  1.00  0.00     0.039 A 
HETATM   20  C16 UNL     1       8.906  49.036  24.318  1.00  0.00    -0.054 A 
HETATM   21  C17 UNL     1       7.960  47.913  24.535  1.00  0.00     0.049 C 
ENDROOT
BRANCH  17  22
HETATM   22  C9  UNL     1      13.067  48.437  24.414  1.00  0.00     0.165 C 
BRANCH  22  23
HETATM   23  C10 UNL     1      12.993  48.162  25.923  1.00  0.00     0.167 C 
BRANCH  23  24
HETATM   24  O3  UNL     1      13.823  48.946  26.673  1.00  0.00    -0.391 OA
ATOM     25  H3  UNL     1      13.452  49.220  27.503  1.00  0.00     0.210 HD
ENDBRANCH  23  24
BRANCH  23  26
HETATM   26  C11 UNL     1      13.071  46.746  26.275  1.00  0.00     0.179 C 
BRANCH  26  27
HETATM   27  O4  UNL     1      13.428  45.985  25.159  1.00  0.00    -0.390 OA
ATOM     28  H4  UNL     1      12.651  45.660  24.717  1.00  0.00     0.210 HD
ENDBRANCH  26  27
BRANCH  26  29
HETATM   29  C12 UNL     1      12.030  46.061  27.044  1.00  0.00     0.173 C 
BRANCH  29  30
HETATM   30  O5  UNL     1      11.812  46.914  28.190  1.00  0.00    -0.391 OA
ATOM     31  H5  UNL     1      12.553  47.508  28.184  1.00  0.00     0.210 HD
ENDBRANCH  29  30
BRANCH  29  32
HETATM   32  C13 UNL     1      12.440  44.751  27.710  1.00  0.00     0.217 C 
BRANCH  32  33
HETATM   33  O6  UNL     1      11.348  43.836  27.621  1.00  0.00    -0.280 OA
BRANCH  33  34
HETATM   34  P1  UNL     1      11.567  42.810  26.306  1.00  0.00     0.422 P 
HETATM   35  O7  UNL     1      10.532  43.124  25.277  1.00  0.00    -0.617 OA
HETATM   36  O8  UNL     1      11.427  41.185  26.742  1.00  0.00    -0.617 OA
HETATM   37  O9  UNL     1      13.095  43.026  25.595  1.00  0.00    -0.617 OA
ENDBRANCH  33  34
ENDBRANCH  32  33
ENDBRANCH  29  32
ENDBRANCH  26  29
ENDBRANCH  23  26
ENDBRANCH  22  23
ENDBRANCH  17  22
TORSDOF 10
ENDMDL
