MODEL 10
REMARK VINA RESULT: -8.017647102      2.692      4.623
REMARK  10 active torsions:
REMARK  status: ('A' for Active; 'I' for Inactive)
REMARK    1  A    between atoms: N4_17  and  C9_18 
REMARK    2  A    between atoms: C9_18  and  C10_19 
REMARK    3  A    between atoms: C10_19  and  O3_20 
REMARK    4  A    between atoms: C10_19  and  C11_22 
REMARK    5  A    between atoms: C11_22  and  O4_23 
REMARK    6  A    between atoms: C11_22  and  C12_25 
REMARK    7  A    between atoms: C12_25  and  O5_26 
REMARK    8  A    between atoms: C12_25  and  C13_28 
REMARK    9  A    between atoms: C13_28  and  O6_29 
REMARK   10  A    between atoms: O6_29  and  P1_30 
ROOT
HETATM    1  C1  UNL     1      12.180  52.971  18.689  1.00  0.00     0.049 C 
HETATM    2  C2  UNL     1      12.019  51.884  19.685  1.00  0.00    -0.054 A 
HETATM    3  C3  UNL     1      10.934  51.856  20.534  1.00  0.00     0.039 A 
HETATM    4  C4  UNL     1      10.760  50.852  21.474  1.00  0.00     0.060 A 
HETATM    5  N1  UNL     1       9.678  50.874  22.273  1.00  0.00    -0.347 N 
ATOM      6  H1  UNL     1       9.000  51.631  22.182  1.00  0.00     0.166 HD
HETATM    7  C5  UNL     1       9.481  49.914  23.185  1.00  0.00     0.146 A 
HETATM    8  C6  UNL     1       8.372  49.891  24.039  1.00  0.00     0.280 A 
HETATM    9  O1  UNL     1       7.541  50.811  23.934  1.00  0.00    -0.265 OA
HETATM   10  N2  UNL     1       8.238  48.887  24.941  1.00  0.00    -0.273 N 
ATOM     11  H2  UNL     1       7.432  48.867  25.566  1.00  0.00     0.173 HD
HETATM   12  C7  UNL     1       9.167  47.918  25.012  1.00  0.00     0.328 A 
HETATM   13  O2  UNL     1       8.982  47.015  25.869  1.00  0.00    -0.247 OA
HETATM   14  N3  UNL     1      10.264  47.901  24.198  1.00  0.00    -0.292 N 
ATOM     15  H3  UNL     1      10.942  47.144  24.288  1.00  0.00     0.172 HD
HETATM   16  C8  UNL     1      10.467  48.859  23.281  1.00  0.00     0.145 A 
HETATM   17  N4  UNL     1      11.553  48.878  22.448  1.00  0.00    -0.327 N 
HETATM   18  C14 UNL     1      11.734  49.848  21.537  1.00  0.00     0.063 A 
HETATM   19  C15 UNL     1      12.824  49.868  20.690  1.00  0.00     0.039 A 
HETATM   20  C16 UNL     1      12.969  50.883  19.763  1.00  0.00    -0.054 A 
HETATM   21  C17 UNL     1      14.134  50.920  18.845  1.00  0.00     0.049 C 
ENDROOT
BRANCH  17  22
HETATM   22  C9  UNL     1      12.507  47.799  22.584  1.00  0.00     0.165 C 
BRANCH  22  23
HETATM   23  C10 UNL     1      13.225  47.977  23.930  1.00  0.00     0.167 C 
BRANCH  23  24
HETATM   24  O3  UNL     1      14.487  48.491  23.824  1.00  0.00    -0.391 OA
ATOM     25  H3  UNL     1      14.937  48.584  24.655  1.00  0.00     0.210 HD
ENDBRANCH  23  24
BRANCH  23  26
HETATM   26  C11 UNL     1      13.156  46.806  24.801  1.00  0.00     0.179 C 
BRANCH  26  27
HETATM   27  O4  UNL     1      12.258  45.867  24.286  1.00  0.00    -0.390 OA
ATOM     28  H4  UNL     1      12.273  45.073  24.808  1.00  0.00     0.210 HD
ENDBRANCH  26  27
BRANCH  26  29
HETATM   29  C12 UNL     1      13.008  46.905  26.254  1.00  0.00     0.173 C 
BRANCH  29  30
HETATM   30  O5  UNL     1      14.357  47.083  26.740  1.00  0.00    -0.391 OA
ATOM     31  H5  UNL     1      14.261  47.146  27.683  1.00  0.00     0.210 HD
ENDBRANCH  29  30
BRANCH  29  32
HETATM   32  C13 UNL     1      12.588  45.628  26.975  1.00  0.00     0.217 C 
BRANCH  32  33
HETATM   33  O6  UNL     1      11.826  45.987  28.127  1.00  0.00    -0.280 OA
BRANCH  33  34
HETATM   34  P1  UNL     1      11.114  44.616  28.793  1.00  0.00     0.422 P 
HETATM   35  O7  UNL     1       9.666  44.895  29.026  1.00  0.00    -0.617 OA
HETATM   36  O8  UNL     1      11.830  44.180  30.258  1.00  0.00    -0.617 OA
HETATM   37  O9  UNL     1      11.227  43.285  27.743  1.00  0.00    -0.617 OA
ENDBRANCH  33  34
ENDBRANCH  32  33
ENDBRANCH  29  32
ENDBRANCH  26  29
ENDBRANCH  23  26
ENDBRANCH  22  23
ENDBRANCH  17  22
TORSDOF 10
ENDMDL
