MODEL 1
REMARK VINA RESULT: -9.175106478      0.000      0.000
REMARK  10 active torsions:
REMARK  status: ('A' for Active; 'I' for Inactive)
REMARK    1  A    between atoms: N4_17  and  C9_18 
REMARK    2  A    between atoms: C9_18  and  C10_19 
REMARK    3  A    between atoms: C10_19  and  O3_20 
REMARK    4  A    between atoms: C10_19  and  C11_22 
REMARK    5  A    between atoms: C11_22  and  O4_23 
REMARK    6  A    between atoms: C11_22  and  C12_25 
REMARK    7  A    between atoms: C12_25  and  O5_26 
REMARK    8  A    between atoms: C12_25  and  C13_28 
REMARK    9  A    between atoms: C13_28  and  O6_29 
REMARK   10  A    between atoms: O6_29  and  P1_30 
ROOT
HETATM    1  C1  UNL     1       6.797  50.637  24.111  1.00  0.00     0.049 C 
HETATM    2  C2  UNL     1       8.253  50.362  24.057  1.00  0.00    -0.054 A 
HETATM    3  C3  UNL     1       9.164  51.391  23.947  1.00  0.00     0.039 A 
HETATM    4  C4  UNL     1      10.531  51.162  23.894  1.00  0.00     0.060 A 
HETATM    5  N1  UNL     1      11.373  52.205  23.792  1.00  0.00    -0.347 N 
ATOM      6  H1  UNL     1      10.998  53.153  23.750  1.00  0.00     0.166 HD
HETATM    7  C5  UNL     1      12.697  52.014  23.746  1.00  0.00     0.146 A 
HETATM    8  C6  UNL     1      13.615  53.066  23.640  1.00  0.00     0.280 A 
HETATM    9  O1  UNL     1      13.165  54.225  23.587  1.00  0.00    -0.265 OA
HETATM   10  N2  UNL     1      14.944  52.797  23.597  1.00  0.00    -0.273 N 
ATOM     11  H2  UNL     1      15.616  53.560  23.520  1.00  0.00     0.173 HD
HETATM   12  C7  UNL     1      15.376  51.525  23.657  1.00  0.00     0.328 A 
HETATM   13  O2  UNL     1      16.621  51.345  23.614  1.00  0.00    -0.247 OA
HETATM   14  N3  UNL     1      14.515  50.469  23.761  1.00  0.00    -0.292 N 
ATOM     15  H3  UNL     1      14.890  49.522  23.804  1.00  0.00     0.172 HD
HETATM   16  C8  UNL     1      13.187  50.653  23.809  1.00  0.00     0.145 A 
HETATM   17  N4  UNL     1      12.293  49.623  23.912  1.00  0.00    -0.327 N 
HETATM   18  C14 UNL     1      10.967  49.833  23.959  1.00  0.00     0.063 A 
HETATM   19  C15 UNL     1      10.061  48.796  24.069  1.00  0.00     0.039 A 
HETATM   20  C16 UNL     1       8.705  49.058  24.119  1.00  0.00    -0.054 A 
HETATM   21  C17 UNL     1       7.717  47.957  24.238  1.00  0.00     0.049 C 
ENDROOT
BRANCH  17  22
HETATM   22  C9  UNL     1      12.836  48.283  23.973  1.00  0.00     0.165 C 
BRANCH  22  23
HETATM   23  C10 UNL     1      13.121  47.960  25.446  1.00  0.00     0.167 C 
BRANCH  23  24
HETATM   24  O3  UNL     1      14.436  47.701  25.714  1.00  0.00    -0.391 OA
ATOM     25  H3  UNL     1      14.640  47.654  26.641  1.00  0.00     0.210 HD
ENDBRANCH  23  24
BRANCH  23  26
HETATM   26  C11 UNL     1      12.214  46.973  26.026  1.00  0.00     0.179 C 
BRANCH  26  27
HETATM   27  O4  UNL     1      11.443  47.554  27.036  1.00  0.00    -0.390 OA
ATOM     28  H4  UNL     1      11.999  47.856  27.745  1.00  0.00     0.210 HD
ENDBRANCH  26  27
BRANCH  26  29
HETATM   29  C12 UNL     1      12.650  45.634  26.428  1.00  0.00     0.173 C 
BRANCH  29  30
HETATM   30  O5  UNL     1      13.383  45.138  25.286  1.00  0.00    -0.391 OA
ATOM     31  H5  UNL     1      13.552  44.227  25.493  1.00  0.00     0.210 HD
ENDBRANCH  29  30
BRANCH  29  32
HETATM   32  C13 UNL     1      11.552  44.584  26.567  1.00  0.00     0.217 C 
BRANCH  32  33
HETATM   33  O6  UNL     1      11.747  43.883  27.795  1.00  0.00    -0.280 OA
BRANCH  33  34
HETATM   34  P1  UNL     1      10.783  44.557  28.998  1.00  0.00     0.422 P 
HETATM   35  O7  UNL     1      11.665  45.245  29.987  1.00  0.00    -0.617 OA
HETATM   36  O8  UNL     1       9.866  43.390  29.802  1.00  0.00    -0.617 OA
HETATM   37  O9  UNL     1       9.711  45.711  28.362  1.00  0.00    -0.617 OA
ENDBRANCH  33  34
ENDBRANCH  32  33
ENDBRANCH  29  32
ENDBRANCH  26  29
ENDBRANCH  23  26
ENDBRANCH  22  23
ENDBRANCH  17  22
TORSDOF 10
ENDMDL
