MODEL 5
REMARK VINA RESULT: -6.452626612      2.617      4.495
REMARK  19 active torsions:
REMARK  status: ('A' for Active; 'I' for Inactive)
REMARK    1  A    between atoms: C2_2  and  C3_3 
REMARK    2  A    between atoms: C3_3  and  O1_4 
REMARK    3  A    between atoms: O1_4  and  C4_5 
REMARK    4  A    between atoms: C4_5  and  C5_6 
REMARK    5  A    between atoms: C7_10  and  O4_11 
REMARK    6  A    between atoms: O4_11  and  C8_12 
REMARK    7  A    between atoms: C8_12  and  C9_13 
REMARK    8  A    between atoms: C10_17  and  C11_18 
REMARK    9  A    between atoms: C11_18  and  O8_19 
REMARK   10  A    between atoms: C11_18  and  C12_21 
REMARK   11  A    between atoms: C12_21  and  O9_22 
REMARK   12  A    between atoms: C13_24  and  O10_25 
REMARK   13  A    between atoms: C14_27  and  O11_28 
REMARK   14  A    between atoms: C15_30  and  O12_31 
REMARK   15  A    between atoms: C16_33  and  O13_34 
REMARK   16  A    between atoms: C17_36  and  C18_37 
REMARK   17  A    between atoms: C18_37  and  O14_38 
REMARK   18  A    between atoms: C18_37  and  C19_40 
REMARK   19  A    between atoms: C19_40  and  O15_41 
ROOT
HETATM    1  O4  UNL     1     -10.251   4.979  65.730  1.00  0.00    -0.336 OA
ENDROOT
BRANCH   1   2
HETATM    2  C7  UNL     1      -9.161   4.352  66.226  1.00  0.00     0.163 C 
HETATM    3  C6  UNL     1      -8.439   5.222  67.290  1.00  0.00     0.115 C 
HETATM    4  C4  UNL     1      -7.351   4.295  67.878  1.00  0.00     0.259 C 
HETATM    5  O16 UNL     1      -6.487   3.830  66.904  1.00  0.00    -0.336 OA
HETATM    6  C17 UNL     1      -7.141   3.098  65.949  1.00  0.00     0.187 C 
HETATM    7  C16 UNL     1      -8.061   4.074  65.225  1.00  0.00     0.179 C 
BRANCH   4   8
HETATM    8  O1  UNL     1      -8.028   3.288  68.510  1.00  0.00    -0.343 OA
BRANCH   8   9
HETATM    9  C3  UNL     1      -7.277   2.516  69.373  1.00  0.00     0.198 C 
BRANCH   9  10
HETATM   10  C2  UNL     1      -7.632   1.095  69.083  1.00  0.00    -0.011 C 
HETATM   11  C1  UNL     1      -6.798   0.311  68.436  1.00  0.00     0.009 C 
ENDBRANCH   9  10
ENDBRANCH   8   9
ENDBRANCH   4   8
BRANCH   4  12
HETATM   12  C5  UNL     1      -6.570   5.171  68.800  1.00  0.00     0.239 C 
HETATM   13  O2  UNL     1      -5.334   5.283  68.760  1.00  0.00    -0.644 OA
HETATM   14  O3  UNL     1      -7.231   5.924  69.777  1.00  0.00    -0.644 OA
ENDBRANCH   4  12
BRANCH   6  15
HETATM   15  C18 UNL     1      -6.286   2.283  65.049  1.00  0.00     0.173 C 
BRANCH  15  16
HETATM   16  O14 UNL     1      -6.136   3.024  63.852  1.00  0.00    -0.391 OA
ATOM     17  H14 UNL     1      -5.275   2.813  63.508  1.00  0.00     0.210 HD
ENDBRANCH  15  16
BRANCH  15  18
HETATM   18  C19 UNL     1      -6.789   0.922  64.713  1.00  0.00     0.198 C 
BRANCH  18  19
HETATM   19  O15 UNL     1      -7.649   0.969  63.625  1.00  0.00    -0.398 OA
ATOM     20  H15 UNL     1      -7.228   1.382  62.880  1.00  0.00     0.209 HD
ENDBRANCH  18  19
ENDBRANCH  15  18
ENDBRANCH   6  15
BRANCH   7  21
HETATM   21  O13 UNL     1      -7.316   5.284  65.132  1.00  0.00    -0.390 OA
ATOM     22  H13 UNL     1      -6.407   5.032  65.244  1.00  0.00     0.210 HD
ENDBRANCH   7  21
ENDBRANCH   1   2
BRANCH   1  23
HETATM   23  C8  UNL     1     -11.475   4.274  65.864  1.00  0.00     0.286 C 
HETATM   24  O7  UNL     1     -11.437   3.726  67.123  1.00  0.00    -0.334 OA
HETATM   25  C10 UNL     1     -12.185   4.500  67.994  1.00  0.00     0.188 C 
HETATM   26  C13 UNL     1     -13.634   4.241  67.649  1.00  0.00     0.181 C 
HETATM   27  C14 UNL     1     -13.877   4.911  66.318  1.00  0.00     0.184 C 
HETATM   28  C15 UNL     1     -12.563   5.265  65.699  1.00  0.00     0.223 C 
BRANCH  23  29
HETATM   29  C9  UNL     1     -11.593   3.190  64.844  1.00  0.00     0.241 C 
HETATM   30  O5  UNL     1     -12.163   2.118  65.141  1.00  0.00    -0.644 OA
HETATM   31  O6  UNL     1     -11.089   3.354  63.591  1.00  0.00    -0.644 OA
ENDBRANCH  23  29
BRANCH  25  32
HETATM   32  C11 UNL     1     -11.873   4.146  69.430  1.00  0.00     0.173 C 
BRANCH  32  33
HETATM   33  O8  UNL     1     -12.945   3.724  70.171  1.00  0.00    -0.391 OA
ATOM     34  H8  UNL     1     -13.735   4.241  70.070  1.00  0.00     0.210 HD
ENDBRANCH  32  33
BRANCH  32  35
HETATM   35  C12 UNL     1     -10.998   5.171  70.050  1.00  0.00     0.198 C 
BRANCH  35  36
HETATM   36  O9  UNL     1      -9.809   4.653  70.516  1.00  0.00    -0.398 OA
ATOM     37  H9  UNL     1      -9.508   5.075  71.313  1.00  0.00     0.209 HD
ENDBRANCH  35  36
ENDBRANCH  32  35
ENDBRANCH  25  32
BRANCH  26  38
HETATM   38  O10 UNL     1     -13.941   2.891  67.574  1.00  0.00    -0.390 OA
ATOM     39  H10 UNL     1     -14.870   2.715  67.665  1.00  0.00     0.210 HD
ENDBRANCH  26  38
BRANCH  27  40
HETATM   40  O11 UNL     1     -14.540   4.015  65.462  1.00  0.00    -0.390 OA
ATOM     41  H11 UNL     1     -14.033   3.909  64.666  1.00  0.00     0.210 HD
ENDBRANCH  27  40
BRANCH  28  42
HETATM   42  O12 UNL     1     -12.821   5.450  64.322  1.00  0.00    -0.387 OA
ATOM     43  H12 UNL     1     -13.639   5.921  64.217  1.00  0.00     0.210 HD
ENDBRANCH  28  42
ENDBRANCH   1  23
TORSDOF 19
ENDMDL
