MODEL 3
REMARK VINA RESULT: -6.664828488      2.209      4.271
REMARK  19 active torsions:
REMARK  status: ('A' for Active; 'I' for Inactive)
REMARK    1  A    between atoms: C2_2  and  C3_3 
REMARK    2  A    between atoms: C3_3  and  O1_4 
REMARK    3  A    between atoms: O1_4  and  C4_5 
REMARK    4  A    between atoms: C4_5  and  C5_6 
REMARK    5  A    between atoms: C7_10  and  O4_11 
REMARK    6  A    between atoms: O4_11  and  C8_12 
REMARK    7  A    between atoms: C8_12  and  C9_13 
REMARK    8  A    between atoms: C10_17  and  C11_18 
REMARK    9  A    between atoms: C11_18  and  O8_19 
REMARK   10  A    between atoms: C11_18  and  C12_21 
REMARK   11  A    between atoms: C12_21  and  O9_22 
REMARK   12  A    between atoms: C13_24  and  O10_25 
REMARK   13  A    between atoms: C14_27  and  O11_28 
REMARK   14  A    between atoms: C15_30  and  O12_31 
REMARK   15  A    between atoms: C16_33  and  O13_34 
REMARK   16  A    between atoms: C17_36  and  C18_37 
REMARK   17  A    between atoms: C18_37  and  O14_38 
REMARK   18  A    between atoms: C18_37  and  C19_40 
REMARK   19  A    between atoms: C19_40  and  O15_41 
ROOT
HETATM    1  O4  UNL     1     -10.099   4.990  65.855  1.00  0.00    -0.336 OA
ENDROOT
BRANCH   1   2
HETATM    2  C7  UNL     1      -8.990   4.340  66.274  1.00  0.00     0.163 C 
HETATM    3  C6  UNL     1      -8.215   5.164  67.337  1.00  0.00     0.115 C 
HETATM    4  C4  UNL     1      -7.106   4.211  67.837  1.00  0.00     0.259 C 
HETATM    5  O16 UNL     1      -6.290   3.783  66.806  1.00  0.00    -0.336 OA
HETATM    6  C17 UNL     1      -6.992   3.092  65.854  1.00  0.00     0.187 C 
HETATM    7  C16 UNL     1      -7.939   4.100  65.213  1.00  0.00     0.179 C 
BRANCH   4   8
HETATM    8  O1  UNL     1      -7.759   3.182  68.459  1.00  0.00    -0.343 OA
BRANCH   8   9
HETATM    9  C3  UNL     1      -7.037   2.523  69.433  1.00  0.00     0.198 C 
BRANCH   9  10
HETATM   10  C2  UNL     1      -7.066   1.075  69.070  1.00  0.00    -0.011 C 
HETATM   11  C1  UNL     1      -6.065   0.281  69.387  1.00  0.00     0.009 C 
ENDBRANCH   9  10
ENDBRANCH   8   9
ENDBRANCH   4   8
BRANCH   4  12
HETATM   12  C5  UNL     1      -6.279   5.046  68.756  1.00  0.00     0.239 C 
HETATM   13  O2  UNL     1      -5.040   4.982  68.817  1.00  0.00    -0.644 OA
HETATM   14  O3  UNL     1      -6.896   5.967  69.611  1.00  0.00    -0.644 OA
ENDBRANCH   4  12
BRANCH   6  15
HETATM   15  C18 UNL     1      -6.183   2.311  64.883  1.00  0.00     0.173 C 
BRANCH  15  16
HETATM   16  O14 UNL     1      -6.127   3.077  63.693  1.00  0.00    -0.391 OA
ATOM     17  H14 UNL     1      -5.598   2.583  63.077  1.00  0.00     0.210 HD
ENDBRANCH  15  16
BRANCH  15  18
HETATM   18  C19 UNL     1      -6.681   0.946  64.555  1.00  0.00     0.198 C 
BRANCH  18  19
HETATM   19  O15 UNL     1      -6.974   0.238  65.711  1.00  0.00    -0.398 OA
ATOM     20  H15 UNL     1      -7.911   0.215  65.865  1.00  0.00     0.209 HD
ENDBRANCH  18  19
ENDBRANCH  15  18
ENDBRANCH   6  15
BRANCH   7  21
HETATM   21  O13 UNL     1      -7.193   5.309  65.134  1.00  0.00    -0.390 OA
ATOM     22  H13 UNL     1      -7.782   5.992  65.431  1.00  0.00     0.210 HD
ENDBRANCH   7  21
ENDBRANCH   1   2
BRANCH   1  23
HETATM   23  C8  UNL     1     -11.296   4.230  65.870  1.00  0.00     0.286 C 
HETATM   24  O7  UNL     1     -10.899   2.933  65.650  1.00  0.00    -0.334 OA
HETATM   25  C10 UNL     1     -10.853   2.246  66.851  1.00  0.00     0.188 C 
HETATM   26  C13 UNL     1     -12.290   2.005  67.254  1.00  0.00     0.181 C 
HETATM   27  C14 UNL     1     -12.844   3.349  67.662  1.00  0.00     0.184 C 
HETATM   28  C15 UNL     1     -11.914   4.425  67.202  1.00  0.00     0.223 C 
BRANCH  23  29
HETATM   29  C9  UNL     1     -12.230   4.663  64.790  1.00  0.00     0.241 C 
HETATM   30  O5  UNL     1     -12.329   5.876  64.503  1.00  0.00    -0.644 OA
HETATM   31  O6  UNL     1     -12.978   3.752  64.109  1.00  0.00    -0.644 OA
ENDBRANCH  23  29
BRANCH  25  32
HETATM   32  C11 UNL     1     -10.083   0.954  66.701  1.00  0.00     0.173 C 
BRANCH  32  33
HETATM   33  O8  UNL     1     -10.083   0.419  65.440  1.00  0.00    -0.391 OA
ATOM     34  H8  UNL     1      -9.675  -0.435  65.364  1.00  0.00     0.210 HD
ENDBRANCH  32  33
BRANCH  32  35
HETATM   35  C12 UNL     1     -10.386   0.024  67.818  1.00  0.00     0.198 C 
BRANCH  35  36
HETATM   36  O9  UNL     1      -9.762  -1.196  67.686  1.00  0.00    -0.398 OA
ATOM     37  H9  UNL     1      -9.441  -1.541  68.511  1.00  0.00     0.209 HD
ENDBRANCH  35  36
ENDBRANCH  32  35
ENDBRANCH  25  32
BRANCH  26  38
HETATM   38  O10 UNL     1     -13.055   1.456  66.236  1.00  0.00    -0.390 OA
ATOM     39  H10 UNL     1     -13.976   1.677  66.303  1.00  0.00     0.210 HD
ENDBRANCH  26  38
BRANCH  27  40
HETATM   40  O11 UNL     1     -14.088   3.547  67.037  1.00  0.00    -0.390 OA
ATOM     41  H11 UNL     1     -14.637   4.084  67.596  1.00  0.00     0.210 HD
ENDBRANCH  27  40
BRANCH  28  42
HETATM   42  O12 UNL     1     -12.672   5.617  67.194  1.00  0.00    -0.387 OA
ATOM     43  H12 UNL     1     -13.469   5.485  67.695  1.00  0.00     0.210 HD
ENDBRANCH  28  42
ENDBRANCH   1  23
TORSDOF 19
ENDMDL
