MODEL 2
REMARK VINA RESULT: -6.666836602      1.877      3.957
REMARK  19 active torsions:
REMARK  status: ('A' for Active; 'I' for Inactive)
REMARK    1  A    between atoms: C2_2  and  C3_3 
REMARK    2  A    between atoms: C3_3  and  O1_4 
REMARK    3  A    between atoms: O1_4  and  C4_5 
REMARK    4  A    between atoms: C4_5  and  C5_6 
REMARK    5  A    between atoms: C7_10  and  O4_11 
REMARK    6  A    between atoms: O4_11  and  C8_12 
REMARK    7  A    between atoms: C8_12  and  C9_13 
REMARK    8  A    between atoms: C10_17  and  C11_18 
REMARK    9  A    between atoms: C11_18  and  O8_19 
REMARK   10  A    between atoms: C11_18  and  C12_21 
REMARK   11  A    between atoms: C12_21  and  O9_22 
REMARK   12  A    between atoms: C13_24  and  O10_25 
REMARK   13  A    between atoms: C14_27  and  O11_28 
REMARK   14  A    between atoms: C15_30  and  O12_31 
REMARK   15  A    between atoms: C16_33  and  O13_34 
REMARK   16  A    between atoms: C17_36  and  C18_37 
REMARK   17  A    between atoms: C18_37  and  O14_38 
REMARK   18  A    between atoms: C18_37  and  C19_40 
REMARK   19  A    between atoms: C19_40  and  O15_41 
ROOT
HETATM    1  O4  UNL     1      -8.355   1.430  67.147  1.00  0.00    -0.336 OA
ENDROOT
BRANCH   1   2
HETATM    2  C7  UNL     1      -7.833   2.097  68.201  1.00  0.00     0.163 C 
HETATM    3  C6  UNL     1      -7.053   1.144  69.147  1.00  0.00     0.115 C 
HETATM    4  C4  UNL     1      -6.377   2.081  70.172  1.00  0.00     0.259 C 
HETATM    5  O16 UNL     1      -7.298   2.857  70.850  1.00  0.00    -0.336 OA
HETATM    6  C17 UNL     1      -8.009   3.663  70.001  1.00  0.00     0.187 C 
HETATM    7  C16 UNL     1      -8.843   2.731  69.132  1.00  0.00     0.179 C 
BRANCH   4   8
HETATM    8  O1  UNL     1      -5.483   2.828  69.453  1.00  0.00    -0.343 OA
BRANCH   8   9
HETATM    9  C3  UNL     1      -4.223   2.280  69.319  1.00  0.00     0.198 C 
BRANCH   9  10
HETATM   10  C2  UNL     1      -3.387   3.310  68.632  1.00  0.00    -0.011 C 
HETATM   11  C1  UNL     1      -2.075   3.219  68.629  1.00  0.00     0.009 C 
ENDBRANCH   9  10
ENDBRANCH   8   9
ENDBRANCH   4   8
BRANCH   4  12
HETATM   12  C5  UNL     1      -5.741   1.161  71.160  1.00  0.00     0.239 C 
HETATM   13  O2  UNL     1      -5.241   1.541  72.231  1.00  0.00    -0.644 OA
HETATM   14  O3  UNL     1      -5.685  -0.213  70.901  1.00  0.00    -0.644 OA
ENDBRANCH   4  12
BRANCH   6  15
HETATM   15  C18 UNL     1      -8.782   4.762  70.635  1.00  0.00     0.173 C 
BRANCH  15  16
HETATM   16  O14 UNL     1     -10.062   4.759  70.029  1.00  0.00    -0.391 OA
ATOM     17  H14 UNL     1      -9.921   4.619  69.099  1.00  0.00     0.210 HD
ENDBRANCH  15  16
BRANCH  15  18
HETATM   18  C19 UNL     1      -8.200   6.128  70.527  1.00  0.00     0.198 C 
BRANCH  18  19
HETATM   19  O15 UNL     1      -6.857   6.066  70.184  1.00  0.00    -0.398 OA
ATOM     20  H15 UNL     1      -6.754   5.914  69.252  1.00  0.00     0.209 HD
ENDBRANCH  18  19
ENDBRANCH  15  18
ENDBRANCH   6  15
BRANCH   7  21
HETATM   21  O13 UNL     1      -9.264   1.689  70.006  1.00  0.00    -0.390 OA
ATOM     22  H13 UNL     1     -10.035   1.312  69.599  1.00  0.00     0.210 HD
ENDBRANCH   7  21
ENDBRANCH   1   2
BRANCH   1  23
HETATM   23  C8  UNL     1      -8.027   1.953  65.870  1.00  0.00     0.286 C 
HETATM   24  O7  UNL     1      -9.225   2.349  65.326  1.00  0.00    -0.334 OA
HETATM   25  C10 UNL     1      -9.375   3.718  65.468  1.00  0.00     0.188 C 
HETATM   26  C13 UNL     1      -8.427   4.351  64.476  1.00  0.00     0.181 C 
HETATM   27  C14 UNL     1      -7.035   4.112  65.012  1.00  0.00     0.184 C 
HETATM   28  C15 UNL     1      -7.094   3.082  66.093  1.00  0.00     0.223 C 
BRANCH  23  29
HETATM   29  C9  UNL     1      -7.396   0.916  65.002  1.00  0.00     0.241 C 
HETATM   30  O5  UNL     1      -6.680   0.028  65.514  1.00  0.00    -0.644 OA
HETATM   31  O6  UNL     1      -7.592   0.921  63.655  1.00  0.00    -0.644 OA
ENDBRANCH  23  29
BRANCH  25  32
HETATM   32  C11 UNL     1     -10.809   4.129  65.222  1.00  0.00     0.173 C 
BRANCH  32  33
HETATM   33  O8  UNL     1     -11.192   4.146  63.907  1.00  0.00    -0.391 OA
ATOM     34  H8  UNL     1     -11.160   4.999  63.488  1.00  0.00     0.210 HD
ENDBRANCH  32  33
BRANCH  32  35
HETATM   35  C12 UNL     1     -11.166   5.319  66.034  1.00  0.00     0.198 C 
BRANCH  35  36
HETATM   36  O9  UNL     1     -10.427   5.421  67.192  1.00  0.00    -0.398 OA
ATOM     37  H9  UNL     1     -10.157   6.312  67.382  1.00  0.00     0.209 HD
ENDBRANCH  35  36
ENDBRANCH  32  35
ENDBRANCH  25  32
BRANCH  26  38
HETATM   38  O10 UNL     1      -8.548   3.826  63.198  1.00  0.00    -0.390 OA
ATOM     39  H10 UNL     1      -9.196   4.280  62.670  1.00  0.00     0.210 HD
ENDBRANCH  26  38
BRANCH  27  40
HETATM   40  O11 UNL     1      -6.219   3.620  63.979  1.00  0.00    -0.390 OA
ATOM     41  H11 UNL     1      -5.356   3.426  64.327  1.00  0.00     0.210 HD
ENDBRANCH  27  40
BRANCH  28  42
HETATM   42  O12 UNL     1      -5.780   2.582  66.225  1.00  0.00    -0.387 OA
ATOM     43  H12 UNL     1      -5.235   3.238  66.643  1.00  0.00     0.210 HD
ENDBRANCH  28  42
ENDBRANCH   1  23
TORSDOF 19
ENDMDL
