MODEL 6
REMARK VINA RESULT: -7.734682675      8.669     10.216
REMARK  12 active torsions:
REMARK  status: ('A' for Active; 'I' for Inactive)
REMARK    1  A    between atoms: C4_4  and  C5_5 
REMARK    2  A    between atoms: C5_5  and  C6_6 
REMARK    3  A    between atoms: C6_6  and  C7_7 
REMARK    4  A    between atoms: C7_7  and  C9_9 
REMARK    5  A    between atoms: C9_9  and  C10_10 
REMARK    6  A    between atoms: C10_10  and  C11_11 
REMARK    7  A    between atoms: C11_11  and  C12_12 
REMARK    8  A    between atoms: C14_14  and  C15_15 
REMARK    9  A    between atoms: C15_15  and  O1_16 
REMARK   10  A    between atoms: O1_16  and  P1_17 
REMARK   11  A    between atoms: P1_17  and  O4_20 
REMARK   12  A    between atoms: O4_20  and  P2_21 
ROOT
HETATM    1  C12 UNL     1     191.702 121.709  30.960  1.00  0.00    -0.082 C 
HETATM    2  C13 UNL     1     191.190 123.070  31.139  1.00  0.00     0.043 C 
HETATM    3  C14 UNL     1     192.923 121.472  30.558  1.00  0.00     0.002 C 
ENDROOT
BRANCH   1   4
HETATM    4  C11 UNL     1     190.766 120.547  31.265  1.00  0.00     0.060 C 
BRANCH   4   5
HETATM    5  C10 UNL     1     189.423 120.854  30.749  1.00  0.00    -0.022 C 
BRANCH   5   6
HETATM    6  C9  UNL     1     188.235 120.226  31.276  1.00  0.00    -0.001 C 
BRANCH   6   7
HETATM    7  C7  UNL     1     187.499 120.612  32.279  1.00  0.00    -0.084 C 
HETATM    8  C8  UNL     1     187.890 121.579  33.324  1.00  0.00     0.043 C 
BRANCH   7   9
HETATM    9  C6  UNL     1     186.114 120.006  32.429  1.00  0.00     0.037 C 
BRANCH   9  10
HETATM   10  C5  UNL     1     185.144 120.893  31.695  1.00  0.00     0.031 C 
BRANCH  10  11
HETATM   11  C4  UNL     1     183.772 120.308  31.802  1.00  0.00    -0.024 C 
HETATM   12  C2  UNL     1     182.862 120.497  30.849  1.00  0.00    -0.091 C 
HETATM   13  C1  UNL     1     181.517 119.878  31.035  1.00  0.00     0.042 C 
HETATM   14  C3  UNL     1     183.131 121.283  29.638  1.00  0.00     0.042 C 
ENDBRANCH  10  11
ENDBRANCH   9  10
ENDBRANCH   7   9
ENDBRANCH   6   7
ENDBRANCH   5   6
ENDBRANCH   4   5
ENDBRANCH   1   4
BRANCH   3  15
HETATM   15  C15 UNL     1     193.935 122.504  30.226  1.00  0.00     0.209 C 
BRANCH  15  16
HETATM   16  O1  UNL     1     194.711 122.778  31.326  1.00  0.00    -0.286 OA
BRANCH  16  17
HETATM   17  P1  UNL     1     195.011 124.432  31.388  1.00  0.00     0.418 P 
HETATM   18  O2  UNL     1     196.466 124.714  31.104  1.00  0.00    -0.624 OA
HETATM   19  O3  UNL     1     194.108 125.250  30.215  1.00  0.00    -0.624 OA
BRANCH  17  20
HETATM   20  O4  UNL     1     194.628 124.976  32.942  1.00  0.00    -0.173 OA
BRANCH  20  21
HETATM   21  P2  UNL     1     195.941 124.666  33.953  1.00  0.00     0.431 P 
HETATM   22  O5  UNL     1     195.542 124.782  35.414  1.00  0.00    -0.616 OA
HETATM   23  O6  UNL     1     197.146 125.801  33.572  1.00  0.00    -0.616 OA
HETATM   24  O7  UNL     1     196.525 123.127  33.625  1.00  0.00    -0.616 OA
ENDBRANCH  20  21
ENDBRANCH  17  20
ENDBRANCH  16  17
ENDBRANCH  15  16
ENDBRANCH   3  15
TORSDOF 12
ENDMDL
