MODEL 2
REMARK VINA RESULT: -7.807529220      1.435      2.184
REMARK  12 active torsions:
REMARK  status: ('A' for Active; 'I' for Inactive)
REMARK    1  A    between atoms: C4_4  and  C5_5 
REMARK    2  A    between atoms: C5_5  and  C6_6 
REMARK    3  A    between atoms: C6_6  and  C7_7 
REMARK    4  A    between atoms: C7_7  and  C9_9 
REMARK    5  A    between atoms: C9_9  and  C10_10 
REMARK    6  A    between atoms: C10_10  and  C11_11 
REMARK    7  A    between atoms: C11_11  and  C12_12 
REMARK    8  A    between atoms: C14_14  and  C15_15 
REMARK    9  A    between atoms: C15_15  and  O1_16 
REMARK   10  A    between atoms: O1_16  and  P1_17 
REMARK   11  A    between atoms: P1_17  and  O4_20 
REMARK   12  A    between atoms: O4_20  and  P2_21 
ROOT
HETATM    1  C12 UNL     1     183.475 126.156  30.820  1.00  0.00    -0.082 C 
HETATM    2  C13 UNL     1     183.538 125.103  29.803  1.00  0.00     0.043 C 
HETATM    3  C14 UNL     1     183.125 127.381  30.532  1.00  0.00     0.002 C 
ENDROOT
BRANCH   1   4
HETATM    4  C11 UNL     1     183.825 125.785  32.255  1.00  0.00     0.060 C 
BRANCH   4   5
HETATM    5  C10 UNL     1     183.775 124.323  32.407  1.00  0.00    -0.022 C 
BRANCH   5   6
HETATM    6  C9  UNL     1     184.895 123.564  32.909  1.00  0.00    -0.001 C 
BRANCH   6   7
HETATM    7  C7  UNL     1     185.784 122.897  32.229  1.00  0.00    -0.084 C 
HETATM    8  C8  UNL     1     186.569 123.407  31.087  1.00  0.00     0.043 C 
BRANCH   7   9
HETATM    9  C6  UNL     1     186.036 121.446  32.604  1.00  0.00     0.037 C 
BRANCH   9  10
HETATM   10  C5  UNL     1     185.526 120.586  31.478  1.00  0.00     0.031 C 
BRANCH  10  11
HETATM   11  C4  UNL     1     184.138 120.133  31.800  1.00  0.00    -0.024 C 
HETATM   12  C2  UNL     1     183.101 120.493  31.049  1.00  0.00    -0.091 C 
HETATM   13  C1  UNL     1     181.749 119.996  31.441  1.00  0.00     0.042 C 
HETATM   14  C3  UNL     1     183.235 121.350  29.864  1.00  0.00     0.042 C 
ENDBRANCH  10  11
ENDBRANCH   9  10
ENDBRANCH   7   9
ENDBRANCH   6   7
ENDBRANCH   5   6
ENDBRANCH   4   5
ENDBRANCH   1   4
BRANCH   3  15
HETATM   15  C15 UNL     1     182.760 127.878  29.182  1.00  0.00     0.209 C 
BRANCH  15  16
HETATM   16  O1  UNL     1     183.748 128.697  28.695  1.00  0.00    -0.286 OA
BRANCH  16  17
HETATM   17  P1  UNL     1     183.867 128.487  27.031  1.00  0.00     0.418 P 
HETATM   18  O2  UNL     1     182.505 128.590  26.388  1.00  0.00    -0.624 OA
HETATM   19  O3  UNL     1     184.833 129.692  26.342  1.00  0.00    -0.624 OA
BRANCH  17  20
HETATM   20  O4  UNL     1     184.508 126.950  26.741  1.00  0.00    -0.173 OA
BRANCH  20  21
HETATM   21  P2  UNL     1     185.092 126.907  25.159  1.00  0.00     0.431 P 
HETATM   22  O5  UNL     1     184.029 127.366  24.176  1.00  0.00    -0.616 OA
HETATM   23  O6  UNL     1     185.551 125.305  24.837  1.00  0.00    -0.616 OA
HETATM   24  O7  UNL     1     186.449 127.890  25.058  1.00  0.00    -0.616 OA
ENDBRANCH  20  21
ENDBRANCH  17  20
ENDBRANCH  16  17
ENDBRANCH  15  16
ENDBRANCH   3  15
TORSDOF 12
ENDMDL
