MODEL 3
REMARK VINA RESULT: -7.785873564      1.330      3.009
REMARK  12 active torsions:
REMARK  status: ('A' for Active; 'I' for Inactive)
REMARK    1  A    between atoms: C4_4  and  C5_5 
REMARK    2  A    between atoms: C5_5  and  C6_6 
REMARK    3  A    between atoms: C6_6  and  C7_7 
REMARK    4  A    between atoms: C7_7  and  C9_9 
REMARK    5  A    between atoms: C9_9  and  C10_10 
REMARK    6  A    between atoms: C10_10  and  C11_11 
REMARK    7  A    between atoms: C11_11  and  C12_12 
REMARK    8  A    between atoms: C14_14  and  C15_15 
REMARK    9  A    between atoms: C15_15  and  O1_16 
REMARK   10  A    between atoms: O1_16  and  P1_17 
REMARK   11  A    between atoms: P1_17  and  O4_20 
REMARK   12  A    between atoms: O4_20  and  P2_21 
ROOT
HETATM    1  C12 UNL     1     183.533 125.965  31.211  1.00  0.00    -0.082 C 
HETATM    2  C13 UNL     1     183.065 127.348  31.328  1.00  0.00     0.043 C 
HETATM    3  C14 UNL     1     183.917 125.454  30.071  1.00  0.00     0.002 C 
ENDROOT
BRANCH   1   4
HETATM    4  C11 UNL     1     183.573 125.114  32.474  1.00  0.00     0.060 C 
BRANCH   4   5
HETATM    5  C10 UNL     1     184.457 123.959  32.256  1.00  0.00    -0.022 C 
BRANCH   5   6
HETATM    6  C9  UNL     1     183.964 122.603  32.252  1.00  0.00    -0.001 C 
BRANCH   6   7
HETATM    7  C7  UNL     1     184.013 121.732  31.284  1.00  0.00    -0.084 C 
HETATM    8  C8  UNL     1     183.427 121.893  29.938  1.00  0.00     0.043 C 
BRANCH   7   9
HETATM    9  C6  UNL     1     184.707 120.406  31.545  1.00  0.00     0.037 C 
BRANCH   9  10
HETATM   10  C5  UNL     1     185.879 120.673  32.452  1.00  0.00     0.031 C 
BRANCH  10  11
HETATM   11  C4  UNL     1     187.118 120.121  31.822  1.00  0.00    -0.024 C 
HETATM   12  C2  UNL     1     188.145 120.906  31.509  1.00  0.00    -0.091 C 
HETATM   13  C1  UNL     1     189.344 120.273  30.884  1.00  0.00     0.042 C 
HETATM   14  C3  UNL     1     188.142 122.355  31.752  1.00  0.00     0.042 C 
ENDBRANCH  10  11
ENDBRANCH   9  10
ENDBRANCH   7   9
ENDBRANCH   6   7
ENDBRANCH   5   6
ENDBRANCH   4   5
ENDBRANCH   1   4
BRANCH   3  15
HETATM   15  C15 UNL     1     183.929 126.167  28.769  1.00  0.00     0.209 C 
BRANCH  15  16
HETATM   16  O1  UNL     1     182.651 126.281  28.280  1.00  0.00    -0.286 OA
BRANCH  16  17
HETATM   17  P1  UNL     1     182.582 127.590  27.226  1.00  0.00     0.418 P 
HETATM   18  O2  UNL     1     181.179 128.144  27.166  1.00  0.00    -0.624 OA
HETATM   19  O3  UNL     1     183.586 128.842  27.759  1.00  0.00    -0.624 OA
BRANCH  17  20
HETATM   20  O4  UNL     1     183.039 127.053  25.691  1.00  0.00    -0.173 OA
BRANCH  20  21
HETATM   21  P2  UNL     1     183.525 128.388  24.782  1.00  0.00     0.431 P 
HETATM   22  O5  UNL     1     183.505 128.071  23.298  1.00  0.00    -0.616 OA
HETATM   23  O6  UNL     1     185.095 128.793  25.286  1.00  0.00    -0.616 OA
HETATM   24  O7  UNL     1     182.499 129.673  25.122  1.00  0.00    -0.616 OA
ENDBRANCH  20  21
ENDBRANCH  17  20
ENDBRANCH  16  17
ENDBRANCH  15  16
ENDBRANCH   3  15
TORSDOF 12
ENDMDL
