MODEL 1
REMARK VINA RESULT: -8.138913477      0.000      0.000
REMARK  12 active torsions:
REMARK  status: ('A' for Active; 'I' for Inactive)
REMARK    1  A    between atoms: C4_4  and  C5_5 
REMARK    2  A    between atoms: C5_5  and  C6_6 
REMARK    3  A    between atoms: C6_6  and  C7_7 
REMARK    4  A    between atoms: C7_7  and  C9_9 
REMARK    5  A    between atoms: C9_9  and  C10_10 
REMARK    6  A    between atoms: C10_10  and  C11_11 
REMARK    7  A    between atoms: C11_11  and  C12_12 
REMARK    8  A    between atoms: C14_14  and  C15_15 
REMARK    9  A    between atoms: C15_15  and  O1_16 
REMARK   10  A    between atoms: O1_16  and  P1_17 
REMARK   11  A    between atoms: P1_17  and  O4_20 
REMARK   12  A    between atoms: O4_20  and  P2_21 
ROOT
HETATM    1  C12 UNL     1     184.067 125.261  32.069  1.00  0.00    -0.082 C 
HETATM    2  C13 UNL     1     184.760 126.423  32.630  1.00  0.00     0.043 C 
HETATM    3  C14 UNL     1     183.469 125.301  30.908  1.00  0.00     0.002 C 
ENDROOT
BRANCH   1   4
HETATM    4  C11 UNL     1     184.062 123.971  32.879  1.00  0.00     0.060 C 
BRANCH   4   5
HETATM    5  C10 UNL     1     185.417 123.711  33.390  1.00  0.00    -0.022 C 
BRANCH   5   6
HETATM    6  C9  UNL     1     186.382 122.933  32.650  1.00  0.00    -0.001 C 
BRANCH   6   7
HETATM    7  C7  UNL     1     186.951 121.815  33.001  1.00  0.00    -0.084 C 
HETATM    8  C8  UNL     1     188.199 121.680  33.778  1.00  0.00     0.043 C 
BRANCH   7   9
HETATM    9  C6  UNL     1     186.308 120.512  32.556  1.00  0.00     0.037 C 
BRANCH   9  10
HETATM   10  C5  UNL     1     185.375 120.827  31.418  1.00  0.00     0.031 C 
BRANCH  10  11
HETATM   11  C4  UNL     1     184.026 120.258  31.722  1.00  0.00    -0.024 C 
HETATM   12  C2  UNL     1     182.971 120.533  30.960  1.00  0.00    -0.091 C 
HETATM   13  C1  UNL     1     181.660 119.924  31.334  1.00  0.00     0.042 C 
HETATM   14  C3  UNL     1     183.047 121.404  29.779  1.00  0.00     0.042 C 
ENDBRANCH  10  11
ENDBRANCH   9  10
ENDBRANCH   7   9
ENDBRANCH   6   7
ENDBRANCH   5   6
ENDBRANCH   4   5
ENDBRANCH   1   4
BRANCH   3  15
HETATM   15  C15 UNL     1     183.396 126.487  30.019  1.00  0.00     0.209 C 
BRANCH  15  16
HETATM   16  O1  UNL     1     182.920 126.124  28.783  1.00  0.00    -0.286 OA
BRANCH  16  17
HETATM   17  P1  UNL     1     182.823 127.491  27.808  1.00  0.00     0.418 P 
HETATM   18  O2  UNL     1     181.384 127.909  27.628  1.00  0.00    -0.624 OA
HETATM   19  O3  UNL     1     183.633 128.794  28.521  1.00  0.00    -0.624 OA
BRANCH  17  20
HETATM   20  O4  UNL     1     183.489 127.109  26.302  1.00  0.00    -0.173 OA
BRANCH  20  21
HETATM   21  P2  UNL     1     182.732 128.057  25.130  1.00  0.00     0.431 P 
HETATM   22  O5  UNL     1     181.306 127.591  24.894  1.00  0.00    -0.616 OA
HETATM   23  O6  UNL     1     183.648 127.923  23.707  1.00  0.00    -0.616 OA
HETATM   24  O7  UNL     1     182.749 129.657  25.636  1.00  0.00    -0.616 OA
ENDBRANCH  20  21
ENDBRANCH  17  20
ENDBRANCH  16  17
ENDBRANCH  15  16
ENDBRANCH   3  15
TORSDOF 12
ENDMDL
