MODEL 8
REMARK VINA RESULT: -8.552609575      3.365      8.385
REMARK  10 active torsions:
REMARK  status: ('A' for Active; 'I' for Inactive)
REMARK       I    between atoms: C1_2  and  N3_6 
REMARK    1  A    between atoms: N3_6  and  O1_8 
REMARK    2  A    between atoms: O1_8  and  C2_9 
REMARK    3  A    between atoms: C2_9  and  C3_10 
REMARK    4  A    between atoms: C3_10  and  N4_11 
REMARK       I    between atoms: N4_11  and  C4_13 
REMARK    5  A    between atoms: C4_13  and  C5_15 
REMARK    6  A    between atoms: C5_15  and  C6_16 
REMARK    7  A    between atoms: C10_21  and  N5_22 
REMARK    8  A    between atoms: N5_22  and  C11_24 
REMARK    9  A    between atoms: C11_24  and  C12_25 
REMARK   10  A    between atoms: C12_25  and  C13_28 
ROOT
HETATM    1  C6  UNL     1      18.491 -14.446  21.572  1.00  0.00     0.013 A 
HETATM    2  C7  UNL     1      18.785 -13.494  20.638  1.00  0.00     0.043 A 
HETATM    3 CL1  UNL     1      20.393 -13.330  19.909  1.00  0.00    -0.084 Cl
HETATM    4  C8  UNL     1      17.774 -12.607  20.246  1.00  0.00     0.027 A 
HETATM    5  C9  UNL     1      16.516 -12.735  20.828  1.00  0.00     0.034 A 
HETATM    6  C10 UNL     1      16.222 -13.679  21.757  1.00  0.00     0.068 A 
HETATM    7  C19 UNL     1      17.242 -14.563  22.142  1.00  0.00     0.151 A 
HETATM    8  F3  UNL     1      16.998 -15.522  23.071  1.00  0.00    -0.203 F 
ENDROOT
BRANCH   1   9
HETATM    9  C5  UNL     1      19.590 -15.393  21.949  1.00  0.00     0.146 C 
BRANCH   9  10
HETATM   10  C4  UNL     1      20.328 -14.899  23.134  1.00  0.00     0.222 C 
HETATM   11  N4  UNL     1      19.752 -14.706  24.416  1.00  0.00    -0.359 N 
ATOM     12  H4  UNL     1      18.765 -14.909  24.573  1.00  0.00     0.162 HD
HETATM   13  O2  UNL     1      21.579 -14.633  22.962  1.00  0.00    -0.273 OA
BRANCH  11  14
HETATM   14  C3  UNL     1      20.583 -14.214  25.507  1.00  0.00     0.151 C 
BRANCH  14  15
HETATM   15  C2  UNL     1      20.874 -15.399  26.405  1.00  0.00     0.220 C 
BRANCH  15  16
HETATM   16  O1  UNL     1      22.217 -15.602  26.598  1.00  0.00    -0.276 OA
BRANCH  16  17
HETATM   17  N3  UNL     1      22.743 -16.678  26.026  1.00  0.00    -0.239 N 
HETATM   18  C1  UNL     1      23.304 -16.679  24.721  1.00  0.00     0.205 C 
HETATM   19  N1  UNL     1      22.915 -17.721  23.815  1.00  0.00    -0.062 NA
HETATM   20  N2  UNL     1      24.126 -15.754  24.402  1.00  0.00    -0.372 N 
ATOM     21  H22 UNL     1      24.529 -15.755  23.465  1.00  0.00     0.158 HD
ATOM     22  H21 UNL     1      24.403 -15.014  25.046  1.00  0.00     0.158 HD
ATOM     23  H3  UNL     1      22.744 -17.552  26.552  1.00  0.00     0.197 HD
ENDBRANCH  16  17
ENDBRANCH  15  16
ENDBRANCH  14  15
ENDBRANCH  11  14
ENDBRANCH   9  10
ENDBRANCH   1   9
BRANCH   6  24
HETATM   24  N5  UNL     1      14.954 -13.865  22.345  1.00  0.00    -0.381 N 
ATOM     25  H5  UNL     1      14.799 -13.509  23.288  1.00  0.00     0.160 HD
BRANCH  24  26
HETATM   26  C11 UNL     1      13.866 -14.532  21.677  1.00  0.00     0.204 C 
BRANCH  26  27
HETATM   27  C12 UNL     1      12.916 -13.575  21.088  1.00  0.00     0.286 C 
HETATM   28  F1  UNL     1      11.771 -14.287  20.725  1.00  0.00    -0.199 F 
HETATM   29  F2  UNL     1      13.423 -12.894  20.032  1.00  0.00    -0.199 F 
BRANCH  27  30
HETATM   30  C13 UNL     1      12.496 -12.563  22.118  1.00  0.00     0.015 A 
HETATM   31  C14 UNL     1      11.681 -12.797  23.170  1.00  0.00     0.013 A 
HETATM   32  C15 UNL     1      11.332 -11.791  24.051  1.00  0.00     0.001 A 
HETATM   33  C16 UNL     1      11.801 -10.487  23.907  1.00  0.00     0.000 A 
HETATM   34  C17 UNL     1      12.634 -10.275  22.826  1.00  0.00     0.001 A 
HETATM   35  C18 UNL     1      12.985 -11.256  21.951  1.00  0.00     0.013 A 
ENDBRANCH  27  30
ENDBRANCH  26  27
ENDBRANCH  24  26
ENDBRANCH   6  24
TORSDOF 10
ENDMDL
