MODEL 1
REMARK VINA RESULT: -9.218452031      0.000      0.000
REMARK  10 active torsions:
REMARK  status: ('A' for Active; 'I' for Inactive)
REMARK       I    between atoms: C1_2  and  N3_6 
REMARK    1  A    between atoms: N3_6  and  O1_8 
REMARK    2  A    between atoms: O1_8  and  C2_9 
REMARK    3  A    between atoms: C2_9  and  C3_10 
REMARK    4  A    between atoms: C3_10  and  N4_11 
REMARK       I    between atoms: N4_11  and  C4_13 
REMARK    5  A    between atoms: C4_13  and  C5_15 
REMARK    6  A    between atoms: C5_15  and  C6_16 
REMARK    7  A    between atoms: C10_21  and  N5_22 
REMARK    8  A    between atoms: N5_22  and  C11_24 
REMARK    9  A    between atoms: C11_24  and  C12_25 
REMARK   10  A    between atoms: C12_25  and  C13_28 
ROOT
HETATM    1  C6  UNL     1      18.275 -13.646  21.555  1.00  0.00     0.013 A 
HETATM    2  C7  UNL     1      19.422 -14.049  20.933  1.00  0.00     0.043 A 
HETATM    3 CL1  UNL     1      20.233 -13.076  19.692  1.00  0.00    -0.084 Cl
HETATM    4  C8  UNL     1      19.974 -15.287  21.285  1.00  0.00     0.027 A 
HETATM    5  C9  UNL     1      19.330 -16.050  22.254  1.00  0.00     0.034 A 
HETATM    6  C10 UNL     1      18.189 -15.653  22.873  1.00  0.00     0.068 A 
HETATM    7  C19 UNL     1      17.644 -14.410  22.512  1.00  0.00     0.151 A 
HETATM    8  F3  UNL     1      16.503 -13.970  23.100  1.00  0.00    -0.203 F 
ENDROOT
BRANCH   1   9
HETATM    9  C5  UNL     1      17.725 -12.305  21.170  1.00  0.00     0.146 C 
BRANCH   9  10
HETATM   10  C4  UNL     1      16.372 -12.439  20.586  1.00  0.00     0.222 C 
HETATM   11  N4  UNL     1      15.206 -11.823  21.109  1.00  0.00    -0.359 N 
ATOM     12  H4  UNL     1      15.263 -11.240  21.945  1.00  0.00     0.162 HD
HETATM   13  O2  UNL     1      16.272 -13.172  19.528  1.00  0.00    -0.273 OA
BRANCH  11  14
HETATM   14  C3  UNL     1      13.927 -12.029  20.443  1.00  0.00     0.151 C 
BRANCH  14  15
HETATM   15  C2  UNL     1      12.886 -12.188  21.532  1.00  0.00     0.220 C 
BRANCH  15  16
HETATM   16  O1  UNL     1      12.296 -10.999  21.879  1.00  0.00    -0.276 OA
BRANCH  16  17
HETATM   17  N3  UNL     1      12.592 -10.518  23.080  1.00  0.00    -0.239 N 
HETATM   18  C1  UNL     1      11.628 -10.304  24.100  1.00  0.00     0.205 C 
HETATM   19  N1  UNL     1      11.635  -9.046  24.790  1.00  0.00    -0.062 NA
HETATM   20  N2  UNL     1      10.790 -11.232  24.362  1.00  0.00    -0.372 N 
ATOM     21  H22 UNL     1      10.097 -11.079  25.095  1.00  0.00     0.158 HD
ATOM     22  H21 UNL     1      10.785 -12.127  23.872  1.00  0.00     0.158 HD
ATOM     23  H3  UNL     1      13.566 -10.290  23.281  1.00  0.00     0.197 HD
ENDBRANCH  16  17
ENDBRANCH  15  16
ENDBRANCH  14  15
ENDBRANCH  11  14
ENDBRANCH   9  10
ENDBRANCH   1   9
BRANCH   6  24
HETATM   24  N5  UNL     1      17.524 -16.378  23.882  1.00  0.00    -0.381 N 
ATOM     25  H5  UNL     1      16.517 -16.255  23.985  1.00  0.00     0.160 HD
BRANCH  24  26
HETATM   26  C11 UNL     1      18.198 -17.285  24.775  1.00  0.00     0.204 C 
BRANCH  26  27
HETATM   27  C12 UNL     1      18.498 -16.655  26.071  1.00  0.00     0.286 C 
HETATM   28  F1  UNL     1      18.790 -17.676  26.978  1.00  0.00    -0.199 F 
HETATM   29  F2  UNL     1      17.496 -15.867  26.530  1.00  0.00    -0.199 F 
BRANCH  27  30
HETATM   30  C13 UNL     1      19.730 -15.801  25.958  1.00  0.00     0.015 A 
HETATM   31  C14 UNL     1      19.788 -14.466  26.162  1.00  0.00     0.013 A 
HETATM   32  C15 UNL     1      20.968 -13.762  26.008  1.00  0.00     0.001 A 
HETATM   33  C16 UNL     1      22.158 -14.387  25.638  1.00  0.00     0.000 A 
HETATM   34  C17 UNL     1      22.072 -15.751  25.439  1.00  0.00     0.001 A 
HETATM   35  C18 UNL     1      20.917 -16.455  25.587  1.00  0.00     0.013 A 
ENDBRANCH  27  30
ENDBRANCH  26  27
ENDBRANCH  24  26
ENDBRANCH   6  24
TORSDOF 10
ENDMDL
