MODEL 14
REMARK VINA RESULT: -8.204962639      4.047      8.850
REMARK  10 active torsions:
REMARK  status: ('A' for Active; 'I' for Inactive)
REMARK       I    between atoms: C1_2  and  N3_6 
REMARK    1  A    between atoms: N3_6  and  O1_8 
REMARK    2  A    between atoms: O1_8  and  C2_9 
REMARK    3  A    between atoms: C2_9  and  C3_10 
REMARK    4  A    between atoms: C3_10  and  N4_11 
REMARK       I    between atoms: N4_11  and  C4_13 
REMARK    5  A    between atoms: C4_13  and  C5_15 
REMARK    6  A    between atoms: C5_15  and  C6_16 
REMARK    7  A    between atoms: C10_21  and  N5_22 
REMARK    8  A    between atoms: N5_22  and  C11_24 
REMARK    9  A    between atoms: C11_24  and  C12_25 
REMARK   10  A    between atoms: C12_25  and  C13_28 
ROOT
HETATM    1  C6  UNL     1      18.545 -14.662  21.517  1.00  0.00     0.013 A 
HETATM    2  C7  UNL     1      18.936 -13.505  20.907  1.00  0.00     0.043 A 
HETATM    3 CL1  UNL     1      20.576 -13.259  20.278  1.00  0.00    -0.084 Cl
HETATM    4  C8  UNL     1      18.004 -12.467  20.780  1.00  0.00     0.027 A 
HETATM    5  C9  UNL     1      16.721 -12.662  21.282  1.00  0.00     0.034 A 
HETATM    6  C10 UNL     1      16.329 -13.810  21.889  1.00  0.00     0.068 A 
HETATM    7  C19 UNL     1      17.271 -14.844  22.011  1.00  0.00     0.151 A 
HETATM    8  F3  UNL     1      16.929 -16.011  22.614  1.00  0.00    -0.203 F 
ENDROOT
BRANCH   1   9
HETATM    9  C5  UNL     1      19.561 -15.760  21.613  1.00  0.00     0.146 C 
BRANCH   9  10
HETATM   10  C4  UNL     1      20.231 -15.742  22.933  1.00  0.00     0.222 C 
HETATM   11  N4  UNL     1      21.366 -14.951  23.247  1.00  0.00    -0.359 N 
ATOM     12  H4  UNL     1      21.779 -14.340  22.542  1.00  0.00     0.162 HD
HETATM   13  O2  UNL     1      19.730 -16.508  23.843  1.00  0.00    -0.273 OA
BRANCH  11  14
HETATM   14  C3  UNL     1      21.938 -15.019  24.586  1.00  0.00     0.151 C 
BRANCH  14  15
HETATM   15  C2  UNL     1      23.222 -14.215  24.556  1.00  0.00     0.220 C 
BRANCH  15  16
HETATM   16  O1  UNL     1      24.218 -14.833  23.843  1.00  0.00    -0.276 OA
BRANCH  16  17
HETATM   17  N3  UNL     1      24.951 -15.724  24.498  1.00  0.00    -0.239 N 
HETATM   18  C1  UNL     1      25.478 -16.900  23.900  1.00  0.00     0.205 C 
HETATM   19  N1  UNL     1      25.305 -18.148  24.586  1.00  0.00    -0.062 NA
HETATM   20  N2  UNL     1      26.079 -16.805  22.777  1.00  0.00    -0.372 N 
ATOM     21  H22 UNL     1      26.458 -17.649  22.347  1.00  0.00     0.158 HD
ATOM     22  H21 UNL     1      26.203 -15.918  22.289  1.00  0.00     0.158 HD
ATOM     23  H3  UNL     1      25.147 -15.556  25.485  1.00  0.00     0.197 HD
ENDBRANCH  16  17
ENDBRANCH  15  16
ENDBRANCH  14  15
ENDBRANCH  11  14
ENDBRANCH   9  10
ENDBRANCH   1   9
BRANCH   6  24
HETATM   24  N5  UNL     1      15.031 -14.062  22.380  1.00  0.00    -0.381 N 
ATOM     25  H5  UNL     1      14.751 -13.623  23.257  1.00  0.00     0.160 HD
BRANCH  24  26
HETATM   26  C11 UNL     1      14.083 -14.908  21.702  1.00  0.00     0.204 C 
BRANCH  26  27
HETATM   27  C12 UNL     1      13.293 -14.159  20.711  1.00  0.00     0.286 C 
HETATM   28  F1  UNL     1      12.996 -12.912  21.266  1.00  0.00    -0.199 F 
HETATM   29  F2  UNL     1      12.165 -14.803  20.325  1.00  0.00    -0.199 F 
BRANCH  27  30
HETATM   30  C13 UNL     1      14.115 -13.907  19.478  1.00  0.00     0.015 A 
HETATM   31  C14 UNL     1      14.329 -12.703  18.902  1.00  0.00     0.013 A 
HETATM   32  C15 UNL     1      15.082 -12.577  17.750  1.00  0.00     0.001 A 
HETATM   33  C16 UNL     1      15.662 -13.678  17.122  1.00  0.00     0.000 A 
HETATM   34  C17 UNL     1      15.430 -14.895  17.732  1.00  0.00     0.001 A 
HETATM   35  C18 UNL     1      14.691 -15.033  18.865  1.00  0.00     0.013 A 
ENDBRANCH  27  30
ENDBRANCH  26  27
ENDBRANCH  24  26
ENDBRANCH   6  24
TORSDOF 10
ENDMDL
