MODEL 9
REMARK VINA RESULT: -8.480696546      1.446      1.665
REMARK  10 active torsions:
REMARK  status: ('A' for Active; 'I' for Inactive)
REMARK       I    between atoms: C1_2  and  N3_6 
REMARK    1  A    between atoms: N3_6  and  O1_8 
REMARK    2  A    between atoms: O1_8  and  C2_9 
REMARK    3  A    between atoms: C2_9  and  C3_10 
REMARK    4  A    between atoms: C3_10  and  N4_11 
REMARK       I    between atoms: N4_11  and  C4_13 
REMARK    5  A    between atoms: C4_13  and  C5_15 
REMARK    6  A    between atoms: C5_15  and  C6_16 
REMARK    7  A    between atoms: C10_21  and  N5_22 
REMARK    8  A    between atoms: N5_22  and  C11_24 
REMARK    9  A    between atoms: C11_24  and  C12_25 
REMARK   10  A    between atoms: C12_25  and  C13_28 
ROOT
HETATM    1  C6  UNL     1      16.610 -15.073  21.039  1.00  0.00     0.013 A 
HETATM    2  C7  UNL     1      17.563 -14.111  20.859  1.00  0.00     0.043 A 
HETATM    3 CL1  UNL     1      17.674 -13.137  19.382  1.00  0.00    -0.084 Cl
HETATM    4  C8  UNL     1      18.494 -13.893  21.883  1.00  0.00     0.027 A 
HETATM    5  C9  UNL     1      18.407 -14.666  23.036  1.00  0.00     0.034 A 
HETATM    6  C10 UNL     1      17.462 -15.623  23.218  1.00  0.00     0.068 A 
HETATM    7  C19 UNL     1      16.533 -15.834  22.186  1.00  0.00     0.151 A 
HETATM    8  F3  UNL     1      15.571 -16.782  22.318  1.00  0.00    -0.203 F 
ENDROOT
BRANCH   1   9
HETATM    9  C5  UNL     1      15.615 -15.263  19.934  1.00  0.00     0.146 C 
BRANCH   9  10
HETATM   10  C4  UNL     1      14.339 -14.585  20.253  1.00  0.00     0.222 C 
HETATM   11  N4  UNL     1      14.220 -13.450  21.096  1.00  0.00    -0.359 N 
ATOM     12  H4  UNL     1      15.048 -13.044  21.532  1.00  0.00     0.162 HD
HETATM   13  O2  UNL     1      13.275 -15.080  19.714  1.00  0.00    -0.273 OA
BRANCH  11  14
HETATM   14  C3  UNL     1      12.905 -12.870  21.333  1.00  0.00     0.151 C 
BRANCH  14  15
HETATM   15  C2  UNL     1      13.054 -11.369  21.184  1.00  0.00     0.220 C 
BRANCH  15  16
HETATM   16  O1  UNL     1      12.117 -10.669  21.901  1.00  0.00    -0.276 OA
BRANCH  16  17
HETATM   17  N3  UNL     1      12.480 -10.261  23.110  1.00  0.00    -0.239 N 
HETATM   18  C1  UNL     1      11.583 -10.162  24.208  1.00  0.00     0.205 C 
HETATM   19  N1  UNL     1      11.590  -8.957  24.985  1.00  0.00    -0.062 NA
HETATM   20  N2  UNL     1      10.804 -11.143  24.458  1.00  0.00    -0.372 N 
ATOM     21  H22 UNL     1      10.160 -11.073  25.245  1.00  0.00     0.158 HD
ATOM     22  H21 UNL     1      10.799 -12.001  23.905  1.00  0.00     0.158 HD
ATOM     23  H3  UNL     1      13.456 -10.004  23.260  1.00  0.00     0.197 HD
ENDBRANCH  16  17
ENDBRANCH  15  16
ENDBRANCH  14  15
ENDBRANCH  11  14
ENDBRANCH   9  10
ENDBRANCH   1   9
BRANCH   6  24
HETATM   24  N5  UNL     1      17.318 -16.404  24.383  1.00  0.00    -0.381 N 
ATOM     25  H5  UNL     1      16.445 -16.337  24.906  1.00  0.00     0.160 HD
BRANCH  24  26
HETATM   26  C11 UNL     1      18.343 -17.291  24.868  1.00  0.00     0.204 C 
BRANCH  26  27
HETATM   27  C12 UNL     1      18.816 -16.899  26.206  1.00  0.00     0.286 C 
HETATM   28  F1  UNL     1      19.361 -18.035  26.809  1.00  0.00    -0.199 F 
HETATM   29  F2  UNL     1      17.848 -16.353  26.980  1.00  0.00    -0.199 F 
BRANCH  27  30
HETATM   30  C13 UNL     1      19.924 -15.889  26.088  1.00  0.00     0.015 A 
HETATM   31  C14 UNL     1      20.008 -14.724  26.768  1.00  0.00     0.013 A 
HETATM   32  C15 UNL     1      21.057 -13.847  26.570  1.00  0.00     0.001 A 
HETATM   33  C16 UNL     1      22.083 -14.113  25.665  1.00  0.00     0.000 A 
HETATM   34  C17 UNL     1      21.974 -15.312  24.985  1.00  0.00     0.001 A 
HETATM   35  C18 UNL     1      20.947 -16.184  25.170  1.00  0.00     0.013 A 
ENDBRANCH  27  30
ENDBRANCH  26  27
ENDBRANCH  24  26
ENDBRANCH   6  24
TORSDOF 10
ENDMDL
