MODEL 2
REMARK VINA RESULT: -9.028398185      1.658      2.322
REMARK  10 active torsions:
REMARK  status: ('A' for Active; 'I' for Inactive)
REMARK       I    between atoms: C1_2  and  N3_6 
REMARK    1  A    between atoms: N3_6  and  O1_8 
REMARK    2  A    between atoms: O1_8  and  C2_9 
REMARK    3  A    between atoms: C2_9  and  C3_10 
REMARK    4  A    between atoms: C3_10  and  N4_11 
REMARK       I    between atoms: N4_11  and  C4_13 
REMARK    5  A    between atoms: C4_13  and  C5_15 
REMARK    6  A    between atoms: C5_15  and  C6_16 
REMARK    7  A    between atoms: C10_21  and  N5_22 
REMARK    8  A    between atoms: N5_22  and  C11_24 
REMARK    9  A    between atoms: C11_24  and  C12_25 
REMARK   10  A    between atoms: C12_25  and  C13_28 
ROOT
HETATM    1  C6  UNL     1      18.278 -13.762  21.637  1.00  0.00     0.013 A 
HETATM    2  C7  UNL     1      19.399 -14.192  20.986  1.00  0.00     0.043 A 
HETATM    3 CL1  UNL     1      20.139 -13.288  19.652  1.00  0.00    -0.084 Cl
HETATM    4  C8  UNL     1      19.981 -15.402  21.385  1.00  0.00     0.027 A 
HETATM    5  C9  UNL     1      19.391 -16.112  22.426  1.00  0.00     0.034 A 
HETATM    6  C10 UNL     1      18.277 -15.687  23.074  1.00  0.00     0.068 A 
HETATM    7  C19 UNL     1      17.701 -14.474  22.667  1.00  0.00     0.151 A 
HETATM    8  F3  UNL     1      16.584 -14.009  23.281  1.00  0.00    -0.203 F 
ENDROOT
BRANCH   1   9
HETATM    9  C5  UNL     1      17.695 -12.452  21.199  1.00  0.00     0.146 C 
BRANCH   9  10
HETATM   10  C4  UNL     1      16.300 -12.625  20.736  1.00  0.00     0.222 C 
HETATM   11  N4  UNL     1      15.222 -11.778  21.100  1.00  0.00    -0.359 N 
ATOM     12  H4  UNL     1      15.378 -10.985  21.723  1.00  0.00     0.162 HD
HETATM   13  O2  UNL     1      16.075 -13.621  19.947  1.00  0.00    -0.273 OA
BRANCH  11  14
HETATM   14  C3  UNL     1      13.889 -12.050  20.578  1.00  0.00     0.151 C 
BRANCH  14  15
HETATM   15  C2  UNL     1      12.978 -12.234  21.774  1.00  0.00     0.220 C 
BRANCH  15  16
HETATM   16  O1  UNL     1      13.460 -13.153  22.671  1.00  0.00    -0.276 OA
BRANCH  16  17
HETATM   17  N3  UNL     1      12.855 -14.333  22.695  1.00  0.00    -0.239 N 
HETATM   18  C1  UNL     1      13.265 -15.441  21.906  1.00  0.00     0.205 C 
HETATM   19  N1  UNL     1      12.263 -16.158  21.169  1.00  0.00    -0.062 NA
HETATM   20  N2  UNL     1      14.503 -15.754  21.877  1.00  0.00    -0.372 N 
ATOM     21  H22 UNL     1      14.797 -16.550  21.310  1.00  0.00     0.158 HD
ATOM     22  H21 UNL     1      15.215 -15.245  22.400  1.00  0.00     0.158 HD
ATOM     23  H3  UNL     1      12.052 -14.452  23.313  1.00  0.00     0.197 HD
ENDBRANCH  16  17
ENDBRANCH  15  16
ENDBRANCH  14  15
ENDBRANCH  11  14
ENDBRANCH   9  10
ENDBRANCH   1   9
BRANCH   6  24
HETATM   24  N5  UNL     1      17.668 -16.357  24.156  1.00  0.00    -0.381 N 
ATOM     25  H5  UNL     1      16.702 -16.126  24.388  1.00  0.00     0.160 HD
BRANCH  24  26
HETATM   26  C11 UNL     1      18.345 -17.352  24.948  1.00  0.00     0.204 C 
BRANCH  26  27
HETATM   27  C12 UNL     1      18.756 -16.820  26.258  1.00  0.00     0.286 C 
HETATM   28  F1  UNL     1      19.202 -17.897  27.027  1.00  0.00    -0.199 F 
HETATM   29  F2  UNL     1      17.773 -16.139  26.894  1.00  0.00    -0.199 F 
BRANCH  27  30
HETATM   30  C13 UNL     1      19.921 -15.884  26.093  1.00  0.00     0.015 A 
HETATM   31  C14 UNL     1      19.927 -14.567  26.394  1.00  0.00     0.013 A 
HETATM   32  C15 UNL     1      21.044 -13.782  26.183  1.00  0.00     0.001 A 
HETATM   33  C16 UNL     1      22.223 -14.302  25.651  1.00  0.00     0.000 A 
HETATM   34  C17 UNL     1      22.192 -15.651  25.354  1.00  0.00     0.001 A 
HETATM   35  C18 UNL     1      21.099 -16.435  25.558  1.00  0.00     0.013 A 
ENDBRANCH  27  30
ENDBRANCH  26  27
ENDBRANCH  24  26
ENDBRANCH   6  24
TORSDOF 10
ENDMDL
