MODEL 12
REMARK VINA RESULT: -6.557025220      3.731      6.070
REMARK  4 active torsions:
REMARK  status: ('A' for Active; 'I' for Inactive)
REMARK    1  A    between atoms: N3_4  and  C2_6 
REMARK    2  A    between atoms: C5_9  and  C6_10 
REMARK    3  A    between atoms: C6_10  and  C7_11 
REMARK    4  A    between atoms: C7_11  and  C8_13 
ROOT
HETATM    1  C2  UNL     1      30.322  11.335  30.362  1.00  0.00     0.034 A 
HETATM    2  C3  UNL     1      29.203  11.505  29.571  1.00  0.00     0.030 A 
HETATM    3  C4  UNL     1      28.255  10.490  29.518  1.00  0.00     0.010 A 
HETATM    4  C5  UNL     1      28.419   9.326  30.238  1.00  0.00    -0.051 A 
HETATM    5  C14 UNL     1      29.538   9.167  31.024  1.00  0.00     0.010 A 
HETATM    6  C15 UNL     1      30.468  10.162  31.077  1.00  0.00     0.030 A 
ENDROOT
BRANCH   4   7
HETATM    7  C6  UNL     1      27.421   8.248  30.187  1.00  0.00     0.122 C 
BRANCH   7   8
HETATM    8  C7  UNL     1      27.650   7.310  29.066  1.00  0.00     0.163 C 
HETATM    9  O1  UNL     1      26.786   7.017  28.217  1.00  0.00    -0.292 OA
BRANCH   8  10
HETATM   10  C8  UNL     1      28.964   6.690  28.950  1.00  0.00     0.010 A 
HETATM   11  C9  UNL     1      29.877   7.092  27.998  1.00  0.00     0.015 A 
HETATM   12  C10 UNL     1      31.130   6.520  27.866  1.00  0.00     0.001 A 
HETATM   13  C11 UNL     1      31.475   5.502  28.729  1.00  0.00     0.000 A 
HETATM   14  C12 UNL     1      30.595   5.063  29.698  1.00  0.00     0.001 A 
HETATM   15  C13 UNL     1      29.360   5.663  29.791  1.00  0.00     0.015 A 
ENDBRANCH   8  10
ENDBRANCH   7   8
ENDBRANCH   4   7
BRANCH   1  16
HETATM   16  N3  UNL     1      31.337  12.309  30.481  1.00  0.00    -0.333 N 
HETATM   17  C1  UNL     1      31.306  13.142  31.444  1.00  0.00     0.201 C 
HETATM   18  N1  UNL     1      32.318  14.133  31.585  1.00  0.00    -0.066 NA
HETATM   19  N2  UNL     1      30.267  13.111  32.404  1.00  0.00    -0.066 NA
ATOM     20  H3  UNL     1      32.094  12.345  29.798  1.00  0.00     0.168 HD
ENDBRANCH   1  16
TORSDOF 4
ENDMDL
