MODEL 11
REMARK VINA RESULT: -6.578794943      3.261      5.769
REMARK  4 active torsions:
REMARK  status: ('A' for Active; 'I' for Inactive)
REMARK    1  A    between atoms: N3_4  and  C2_6 
REMARK    2  A    between atoms: C5_9  and  C6_10 
REMARK    3  A    between atoms: C6_10  and  C7_11 
REMARK    4  A    between atoms: C7_11  and  C8_13 
ROOT
HETATM    1  C2  UNL     1      30.019  11.452  30.316  1.00  0.00     0.034 A 
HETATM    2  C3  UNL     1      30.241  10.377  31.153  1.00  0.00     0.030 A 
HETATM    3  C4  UNL     1      29.364   9.300  31.115  1.00  0.00     0.010 A 
HETATM    4  C5  UNL     1      28.283   9.293  30.260  1.00  0.00    -0.051 A 
HETATM    5  C14 UNL     1      28.070  10.371  29.428  1.00  0.00     0.010 A 
HETATM    6  C15 UNL     1      28.930  11.427  29.465  1.00  0.00     0.030 A 
ENDROOT
BRANCH   4   7
HETATM    7  C6  UNL     1      27.350   8.158  30.214  1.00  0.00     0.122 C 
BRANCH   7   8
HETATM    8  C7  UNL     1      27.612   7.247  29.078  1.00  0.00     0.163 C 
HETATM    9  O1  UNL     1      26.764   6.951  28.214  1.00  0.00    -0.292 OA
BRANCH   8  10
HETATM   10  C8  UNL     1      28.942   6.661  28.964  1.00  0.00     0.010 A 
HETATM   11  C9  UNL     1      29.859   7.110  28.038  1.00  0.00     0.015 A 
HETATM   12  C10 UNL     1      31.127   6.571  27.908  1.00  0.00     0.001 A 
HETATM   13  C11 UNL     1      31.482   5.536  28.748  1.00  0.00     0.000 A 
HETATM   14  C12 UNL     1      30.599   5.051  29.691  1.00  0.00     0.001 A 
HETATM   15  C13 UNL     1      29.349   5.620  29.782  1.00  0.00     0.015 A 
ENDBRANCH   8  10
ENDBRANCH   7   8
ENDBRANCH   4   7
BRANCH   1  16
HETATM   16  N3  UNL     1      30.854  12.589  30.282  1.00  0.00    -0.333 N 
HETATM   17  C1  UNL     1      31.887  12.595  29.535  1.00  0.00     0.201 C 
HETATM   18  N1  UNL     1      32.745  13.729  29.484  1.00  0.00    -0.066 NA
HETATM   19  N2  UNL     1      32.215  11.476  28.734  1.00  0.00    -0.066 NA
ATOM     20  H3  UNL     1      30.632  13.404  30.853  1.00  0.00     0.168 HD
ENDBRANCH   1  16
TORSDOF 4
ENDMDL
