MODEL 3
REMARK VINA RESULT: -10.524929587      2.251      8.991
REMARK  12 active torsions:
REMARK  status: ('A' for Active; 'I' for Inactive)
REMARK    1  A    between atoms: C1_2  and  C2_4 
REMARK    2  A    between atoms: C5_7  and  S1_8 
REMARK    3  A    between atoms: S1_8  and  N2_11 
REMARK    4  A    between atoms: N2_11  and  C6_12 
REMARK    5  A    between atoms: N2_11  and  C13_19 
REMARK    6  A    between atoms: C6_12  and  C7_13 
REMARK    7  A    between atoms: C16_25  and  N4_26 
REMARK    8  A    between atoms: N4_26  and  C17_27 
REMARK    9  A    between atoms: N4_26  and  S2_34 
REMARK   10  A    between atoms: C17_27  and  C18_28 
REMARK   11  A    between atoms: S2_34  and  C24_37 
REMARK   12  A    between atoms: C27_40  and  C28_41 
ROOT
HETATM    1  C13 UNL     1      13.208 -21.101 -18.394  1.00  0.00     0.152 C 
HETATM    2  C14 UNL     1      13.981 -20.310 -19.418  1.00  0.00     0.260 C 
HETATM    3  N3  UNL     1      14.412 -19.132 -18.652  1.00  0.00    -0.071 N 
ATOM      4  H31 UNL     1      14.837 -18.381 -19.195  1.00  0.00     0.277 HD
ATOM      5  H32 UNL     1      15.223 -19.267 -18.048  1.00  0.00     0.277 HD
HETATM    6  C15 UNL     1      13.194 -18.805 -17.990  1.00  0.00     0.260 C 
HETATM    7  C16 UNL     1      12.693 -20.061 -17.424  1.00  0.00     0.152 C 
ENDROOT
BRANCH   1   8
HETATM    8  N2  UNL     1      12.310 -22.037 -18.889  1.00  0.00    -0.273 N 
BRANCH   8   9
HETATM    9  S1  UNL     1      11.510 -21.844 -20.332  1.00  0.00     0.265 S 
HETATM   10  O2  UNL     1      12.323 -21.426 -21.516  1.00  0.00    -0.200 OA
HETATM   11  O3  UNL     1      10.761 -23.097 -20.792  1.00  0.00    -0.200 OA
BRANCH   9  12
HETATM   12  C5  UNL     1      10.247 -20.636 -20.160  1.00  0.00     0.080 A 
HETATM   13  C4  UNL     1       9.968 -19.743 -21.167  1.00  0.00     0.026 A 
HETATM   14  C3  UNL     1       8.971 -18.800 -20.976  1.00  0.00     0.018 A 
HETATM   15  C2  UNL     1       8.243 -18.719 -19.812  1.00  0.00     0.029 A 
HETATM   16  C32 UNL     1       8.518 -19.620 -18.785  1.00  0.00     0.018 A 
HETATM   17  C31 UNL     1       9.502 -20.537 -18.995  1.00  0.00     0.026 A 
BRANCH  15  18
HETATM   18  C1  UNL     1       7.195 -17.735 -19.602  1.00  0.00     0.264 C 
HETATM   19  N1  UNL     1       6.004 -17.778 -20.358  1.00  0.00    -0.057 NA
HETATM   20  O1  UNL     1       7.337 -16.838 -18.746  1.00  0.00    -0.271 OA
ENDBRANCH  15  18
ENDBRANCH   9  12
ENDBRANCH   8   9
BRANCH   8  21
HETATM   21  C6  UNL     1      12.797 -23.372 -18.738  1.00  0.00     0.115 C 
BRANCH  21  22
HETATM   22  C7  UNL     1      14.118 -23.678 -19.251  1.00  0.00    -0.020 A 
HETATM   23  C8  UNL     1      14.332 -24.080 -20.541  1.00  0.00     0.013 A 
HETATM   24  C9  UNL     1      15.616 -24.383 -21.009  1.00  0.00     0.001 A 
HETATM   25  C10 UNL     1      16.685 -24.268 -20.133  1.00  0.00     0.000 A 
HETATM   26  C11 UNL     1      16.472 -23.862 -18.827  1.00  0.00     0.001 A 
HETATM   27  C12 UNL     1      15.204 -23.575 -18.415  1.00  0.00     0.013 A 
ENDBRANCH  21  22
ENDBRANCH   8  21
ENDBRANCH   1   8
BRANCH   7  28
HETATM   28  N4  UNL     1      12.941 -20.377 -16.094  1.00  0.00    -0.273 N 
BRANCH  28  29
HETATM   29  C17 UNL     1      13.988 -19.859 -15.343  1.00  0.00     0.115 C 
BRANCH  29  30
HETATM   30  C18 UNL     1      15.156 -20.796 -15.173  1.00  0.00    -0.020 A 
HETATM   31  C19 UNL     1      14.937 -22.119 -14.846  1.00  0.00     0.013 A 
HETATM   32  C20 UNL     1      15.967 -23.019 -14.672  1.00  0.00     0.001 A 
HETATM   33  C21 UNL     1      17.274 -22.622 -14.823  1.00  0.00     0.000 A 
HETATM   34  C22 UNL     1      17.509 -21.300 -15.151  1.00  0.00     0.001 A 
HETATM   35  C23 UNL     1      16.462 -20.390 -15.326  1.00  0.00     0.013 A 
ENDBRANCH  29  30
ENDBRANCH  28  29
BRANCH  28  36
HETATM   36  S2  UNL     1      11.492 -20.596 -15.190  1.00  0.00     0.265 S 
HETATM   37  O4  UNL     1      10.706 -21.751 -15.799  1.00  0.00    -0.200 OA
HETATM   38  O5  UNL     1      11.771 -21.031 -13.779  1.00  0.00    -0.200 OA
BRANCH  36  39
HETATM   39  C24 UNL     1      10.488 -19.172 -15.151  1.00  0.00     0.080 A 
HETATM   40  C25 UNL     1      11.056 -17.947 -14.896  1.00  0.00     0.026 A 
HETATM   41  C26 UNL     1      10.261 -16.822 -14.858  1.00  0.00     0.018 A 
HETATM   42  C27 UNL     1       8.888 -16.869 -15.069  1.00  0.00     0.029 A 
HETATM   43  C29 UNL     1       8.331 -18.098 -15.323  1.00  0.00     0.018 A 
HETATM   44  C30 UNL     1       9.130 -19.241 -15.363  1.00  0.00     0.026 A 
BRANCH  42  45
HETATM   45  C28 UNL     1       8.075 -15.657 -15.014  1.00  0.00     0.264 C 
HETATM   46  N5  UNL     1       8.572 -14.351 -14.985  1.00  0.00    -0.057 NA
HETATM   47  O6  UNL     1       6.805 -15.850 -14.993  1.00  0.00    -0.271 OA
ENDBRANCH  42  45
ENDBRANCH  36  39
ENDBRANCH  28  36
ENDBRANCH   7  28
TORSDOF 12
ENDMDL
