MODEL 9
REMARK VINA RESULT: -9.783318507      1.720      5.469
REMARK  12 active torsions:
REMARK  status: ('A' for Active; 'I' for Inactive)
REMARK    1  A    between atoms: C1_2  and  C2_4 
REMARK    2  A    between atoms: C5_7  and  S1_8 
REMARK    3  A    between atoms: S1_8  and  N2_11 
REMARK    4  A    between atoms: N2_11  and  C6_12 
REMARK    5  A    between atoms: N2_11  and  C13_19 
REMARK    6  A    between atoms: C6_12  and  C7_13 
REMARK    7  A    between atoms: C16_25  and  N4_26 
REMARK    8  A    between atoms: N4_26  and  C17_27 
REMARK    9  A    between atoms: N4_26  and  S2_34 
REMARK   10  A    between atoms: C17_27  and  C18_28 
REMARK   11  A    between atoms: S2_34  and  C24_37 
REMARK   12  A    between atoms: C27_40  and  C28_41 
ROOT
HETATM    1  C13 UNL     1      12.242 -19.290 -17.024  1.00  0.00     0.152 C 
HETATM    2  C14 UNL     1      13.052 -18.046 -17.285  1.00  0.00     0.260 C 
HETATM    3  N3  UNL     1      13.023 -17.949 -18.751  1.00  0.00    -0.071 N 
ATOM      4  H31 UNL     1      13.638 -17.247 -19.162  1.00  0.00     0.277 HD
ATOM      5  H32 UNL     1      12.171 -17.557 -19.153  1.00  0.00     0.277 HD
HETATM    6  C15 UNL     1      13.306 -19.301 -19.098  1.00  0.00     0.260 C 
HETATM    7  C16 UNL     1      12.416 -20.124 -18.274  1.00  0.00     0.152 C 
ENDROOT
BRANCH   1   8
HETATM    8  N2  UNL     1      12.437 -19.905 -15.794  1.00  0.00    -0.273 N 
BRANCH   8   9
HETATM    9  S1  UNL     1      11.267 -19.960 -14.617  1.00  0.00     0.265 S 
HETATM   10  O2  UNL     1      10.232 -21.035 -14.729  1.00  0.00    -0.200 OA
HETATM   11  O3  UNL     1      11.826 -20.100 -13.199  1.00  0.00    -0.200 OA
BRANCH   9  12
HETATM   12  C5  UNL     1      10.385 -18.441 -14.576  1.00  0.00     0.080 A 
HETATM   13  C4  UNL     1      11.009 -17.260 -14.254  1.00  0.00     0.026 A 
HETATM   14  C3  UNL     1      10.266 -16.091 -14.222  1.00  0.00     0.018 A 
HETATM   15  C2  UNL     1       8.919 -16.063 -14.501  1.00  0.00     0.029 A 
HETATM   16  C32 UNL     1       8.277 -17.256 -14.828  1.00  0.00     0.018 A 
HETATM   17  C31 UNL     1       9.028 -18.392 -14.853  1.00  0.00     0.026 A 
BRANCH  15  18
HETATM   18  C1  UNL     1       8.131 -14.844 -14.472  1.00  0.00     0.264 C 
HETATM   19  N1  UNL     1       7.666 -14.257 -15.667  1.00  0.00    -0.057 NA
HETATM   20  O1  UNL     1       7.854 -14.300 -13.383  1.00  0.00    -0.271 OA
ENDBRANCH  15  18
ENDBRANCH   9  12
ENDBRANCH   8   9
BRANCH   8  21
HETATM   21  C6  UNL     1      13.100 -21.164 -15.929  1.00  0.00     0.115 C 
BRANCH  21  22
HETATM   22  C7  UNL     1      14.517 -21.223 -15.626  1.00  0.00    -0.020 A 
HETATM   23  C8  UNL     1      15.320 -20.116 -15.640  1.00  0.00     0.013 A 
HETATM   24  C9  UNL     1      16.688 -20.202 -15.357  1.00  0.00     0.001 A 
HETATM   25  C10 UNL     1      17.227 -21.445 -15.060  1.00  0.00     0.000 A 
HETATM   26  C11 UNL     1      16.418 -22.568 -15.046  1.00  0.00     0.001 A 
HETATM   27  C12 UNL     1      15.089 -22.436 -15.325  1.00  0.00     0.013 A 
ENDBRANCH  21  22
ENDBRANCH   8  21
ENDBRANCH   1   8
BRANCH   7  28
HETATM   28  N4  UNL     1      11.217 -20.593 -18.795  1.00  0.00    -0.273 N 
BRANCH  28  29
HETATM   29  C17 UNL     1      10.507 -19.978 -19.818  1.00  0.00     0.115 C 
BRANCH  29  30
HETATM   30  C18 UNL     1       9.345 -19.139 -19.353  1.00  0.00    -0.020 A 
HETATM   31  C19 UNL     1       9.572 -17.911 -18.764  1.00  0.00     0.013 A 
HETATM   32  C20 UNL     1       8.548 -17.105 -18.315  1.00  0.00     0.001 A 
HETATM   33  C21 UNL     1       7.238 -17.504 -18.440  1.00  0.00     0.000 A 
HETATM   34  C22 UNL     1       6.996 -18.731 -19.028  1.00  0.00     0.001 A 
HETATM   35  C23 UNL     1       8.037 -19.546 -19.483  1.00  0.00     0.013 A 
ENDBRANCH  29  30
ENDBRANCH  28  29
BRANCH  28  36
HETATM   36  S2  UNL     1      11.157 -22.314 -18.857  1.00  0.00     0.265 S 
HETATM   37  O4  UNL     1      10.760 -22.839 -17.484  1.00  0.00    -0.200 OA
HETATM   38  O5  UNL     1      10.075 -22.804 -19.777  1.00  0.00    -0.200 OA
BRANCH  36  39
HETATM   39  C24 UNL     1      12.671 -23.033 -19.335  1.00  0.00     0.080 A 
HETATM   40  C25 UNL     1      13.111 -22.894 -20.629  1.00  0.00     0.026 A 
HETATM   41  C26 UNL     1      14.304 -23.470 -21.009  1.00  0.00     0.018 A 
HETATM   42  C27 UNL     1      15.097 -24.197 -20.129  1.00  0.00     0.029 A 
HETATM   43  C29 UNL     1      14.647 -24.329 -18.838  1.00  0.00     0.018 A 
HETATM   44  C30 UNL     1      13.441 -23.749 -18.447  1.00  0.00     0.026 A 
BRANCH  42  45
HETATM   45  C28 UNL     1      16.353 -24.799 -20.567  1.00  0.00     0.264 C 
HETATM   46  N5  UNL     1      17.123 -24.364 -21.649  1.00  0.00    -0.057 NA
HETATM   47  O6  UNL     1      16.747 -25.807 -19.876  1.00  0.00    -0.271 OA
ENDBRANCH  42  45
ENDBRANCH  36  39
ENDBRANCH  28  36
ENDBRANCH   7  28
TORSDOF 12
ENDMDL
