MODEL 7
REMARK VINA RESULT: -9.905738508      1.813      5.561
REMARK  12 active torsions:
REMARK  status: ('A' for Active; 'I' for Inactive)
REMARK    1  A    between atoms: C1_2  and  C2_4 
REMARK    2  A    between atoms: C5_7  and  S1_8 
REMARK    3  A    between atoms: S1_8  and  N2_11 
REMARK    4  A    between atoms: N2_11  and  C6_12 
REMARK    5  A    between atoms: N2_11  and  C13_19 
REMARK    6  A    between atoms: C6_12  and  C7_13 
REMARK    7  A    between atoms: C16_25  and  N4_26 
REMARK    8  A    between atoms: N4_26  and  C17_27 
REMARK    9  A    between atoms: N4_26  and  S2_34 
REMARK   10  A    between atoms: C17_27  and  C18_28 
REMARK   11  A    between atoms: S2_34  and  C24_37 
REMARK   12  A    between atoms: C27_40  and  C28_41 
ROOT
HETATM    1  C13 UNL     1      11.959 -19.158 -16.936  1.00  0.00     0.152 C 
HETATM    2  C14 UNL     1      12.324 -17.822 -17.532  1.00  0.00     0.260 C 
HETATM    3  N3  UNL     1      12.055 -18.028 -18.962  1.00  0.00    -0.071 N 
ATOM      4  H31 UNL     1      12.372 -17.286 -19.585  1.00  0.00     0.277 HD
ATOM      5  H32 UNL     1      11.077 -17.962 -19.244  1.00  0.00     0.277 HD
HETATM    6  C15 UNL     1      12.669 -19.300 -19.152  1.00  0.00     0.260 C 
HETATM    7  C16 UNL     1      12.187 -20.148 -18.057  1.00  0.00     0.152 C 
ENDROOT
BRANCH   1   8
HETATM    8  N2  UNL     1      12.502 -19.444 -15.689  1.00  0.00    -0.273 N 
BRANCH   8   9
HETATM    9  S1  UNL     1      11.862 -18.863 -14.272  1.00  0.00     0.265 S 
HETATM   10  O2  UNL     1      11.715 -19.829 -13.138  1.00  0.00    -0.200 OA
HETATM   11  O3  UNL     1      12.639 -17.683 -13.683  1.00  0.00    -0.200 OA
BRANCH   9  12
HETATM   12  C5  UNL     1      10.257 -18.209 -14.562  1.00  0.00     0.080 A 
HETATM   13  C4  UNL     1       9.155 -19.026 -14.644  1.00  0.00     0.026 A 
HETATM   14  C3  UNL     1       7.913 -18.462 -14.889  1.00  0.00     0.018 A 
HETATM   15  C2  UNL     1       7.736 -17.108 -15.056  1.00  0.00     0.029 A 
HETATM   16  C32 UNL     1       8.848 -16.271 -14.975  1.00  0.00     0.018 A 
HETATM   17  C31 UNL     1      10.058 -16.849 -14.733  1.00  0.00     0.026 A 
BRANCH  15  18
HETATM   18  C1  UNL     1       6.439 -16.506 -15.311  1.00  0.00     0.264 C 
HETATM   19  N1  UNL     1       5.352 -17.293 -15.747  1.00  0.00    -0.057 NA
HETATM   20  O1  UNL     1       6.271 -15.281 -15.144  1.00  0.00    -0.271 OA
ENDBRANCH  15  18
ENDBRANCH   9  12
ENDBRANCH   8   9
BRANCH   8  21
HETATM   21  C6  UNL     1      12.864 -20.821 -15.571  1.00  0.00     0.115 C 
BRANCH  21  22
HETATM   22  C7  UNL     1      14.272 -21.147 -15.446  1.00  0.00    -0.020 A 
HETATM   23  C8  UNL     1      14.712 -22.406 -15.142  1.00  0.00     0.013 A 
HETATM   24  C9  UNL     1      16.076 -22.692 -15.014  1.00  0.00     0.001 A 
HETATM   25  C10 UNL     1      16.990 -21.665 -15.201  1.00  0.00     0.000 A 
HETATM   26  C11 UNL     1      16.548 -20.391 -15.507  1.00  0.00     0.001 A 
HETATM   27  C12 UNL     1      15.209 -20.158 -15.625  1.00  0.00     0.013 A 
ENDBRANCH  21  22
ENDBRANCH   8  21
ENDBRANCH   1   8
BRANCH   7  28
HETATM   28  N4  UNL     1      11.116 -21.008 -18.258  1.00  0.00    -0.273 N 
BRANCH  28  29
HETATM   29  C17 UNL     1       9.791 -20.695 -17.987  1.00  0.00     0.115 C 
BRANCH  29  30
HETATM   30  C18 UNL     1       9.225 -19.588 -18.839  1.00  0.00    -0.020 A 
HETATM   31  C19 UNL     1       8.739 -18.441 -18.246  1.00  0.00     0.013 A 
HETATM   32  C20 UNL     1       8.205 -17.400 -18.975  1.00  0.00     0.001 A 
HETATM   33  C21 UNL     1       8.137 -17.470 -20.347  1.00  0.00     0.000 A 
HETATM   34  C22 UNL     1       8.620 -18.613 -20.954  1.00  0.00     0.001 A 
HETATM   35  C23 UNL     1       9.161 -19.668 -20.211  1.00  0.00     0.013 A 
ENDBRANCH  29  30
ENDBRANCH  28  29
BRANCH  28  36
HETATM   36  S2  UNL     1      11.316 -21.986 -19.663  1.00  0.00     0.265 S 
HETATM   37  O4  UNL     1      10.183 -23.003 -19.716  1.00  0.00    -0.200 OA
HETATM   38  O5  UNL     1      11.167 -21.188 -20.927  1.00  0.00    -0.200 OA
BRANCH  36  39
HETATM   39  C24 UNL     1      12.845 -22.822 -19.702  1.00  0.00     0.080 A 
HETATM   40  C25 UNL     1      13.452 -23.072 -20.908  1.00  0.00     0.026 A 
HETATM   41  C26 UNL     1      14.658 -23.740 -20.939  1.00  0.00     0.018 A 
HETATM   42  C27 UNL     1      15.299 -24.180 -19.787  1.00  0.00     0.029 A 
HETATM   43  C29 UNL     1      14.682 -23.925 -18.587  1.00  0.00     0.018 A 
HETATM   44  C30 UNL     1      13.462 -23.249 -18.549  1.00  0.00     0.026 A 
BRANCH  42  45
HETATM   45  C28 UNL     1      16.572 -24.890 -19.858  1.00  0.00     0.264 C 
HETATM   46  N5  UNL     1      17.609 -24.603 -20.749  1.00  0.00    -0.057 NA
HETATM   47  O6  UNL     1      16.710 -25.851 -19.016  1.00  0.00    -0.271 OA
ENDBRANCH  42  45
ENDBRANCH  36  39
ENDBRANCH  28  36
ENDBRANCH   7  28
TORSDOF 12
ENDMDL
