MODEL 1
REMARK VINA RESULT: -11.688248967      0.000      0.000
REMARK  12 active torsions:
REMARK  status: ('A' for Active; 'I' for Inactive)
REMARK    1  A    between atoms: C1_2  and  C2_4 
REMARK    2  A    between atoms: C5_7  and  S1_8 
REMARK    3  A    between atoms: S1_8  and  N2_11 
REMARK    4  A    between atoms: N2_11  and  C6_12 
REMARK    5  A    between atoms: N2_11  and  C13_19 
REMARK    6  A    between atoms: C6_12  and  C7_13 
REMARK    7  A    between atoms: C16_25  and  N4_26 
REMARK    8  A    between atoms: N4_26  and  C17_27 
REMARK    9  A    between atoms: N4_26  and  S2_34 
REMARK   10  A    between atoms: C17_27  and  C18_28 
REMARK   11  A    between atoms: S2_34  and  C24_37 
REMARK   12  A    between atoms: C27_40  and  C28_41 
ROOT
HETATM    1  C13 UNL     1      11.420 -19.084 -17.060  1.00  0.00     0.152 C 
HETATM    2  C14 UNL     1      12.187 -17.788 -17.137  1.00  0.00     0.260 C 
HETATM    3  N3  UNL     1      12.680 -17.791 -18.521  1.00  0.00    -0.071 N 
ATOM      4  H31 UNL     1      13.354 -17.062 -18.754  1.00  0.00     0.277 HD
ATOM      5  H32 UNL     1      12.006 -17.511 -19.233  1.00  0.00     0.277 HD
HETATM    6  C15 UNL     1      13.158 -19.130 -18.614  1.00  0.00     0.260 C 
HETATM    7  C16 UNL     1      12.087 -19.978 -18.081  1.00  0.00     0.152 C 
ENDROOT
BRANCH   1   8
HETATM    8  N2  UNL     1      11.200 -19.594 -15.786  1.00  0.00    -0.273 N 
BRANCH   8   9
HETATM    9  S1  UNL     1      12.304 -19.450 -14.554  1.00  0.00     0.265 S 
HETATM   10  O2  UNL     1      12.839 -18.082 -14.268  1.00  0.00    -0.200 OA
HETATM   11  O3  UNL     1      11.790 -19.961 -13.206  1.00  0.00    -0.200 OA
BRANCH   9  12
HETATM   12  C5  UNL     1      13.703 -20.459 -14.882  1.00  0.00     0.080 A 
HETATM   13  C4  UNL     1      14.878 -19.923 -15.352  1.00  0.00     0.026 A 
HETATM   14  C3  UNL     1      15.950 -20.764 -15.609  1.00  0.00     0.018 A 
HETATM   15  C2  UNL     1      15.885 -22.124 -15.413  1.00  0.00     0.029 A 
HETATM   16  C32 UNL     1      14.698 -22.677 -14.937  1.00  0.00     0.018 A 
HETATM   17  C31 UNL     1      13.659 -21.831 -14.691  1.00  0.00     0.026 A 
BRANCH  15  18
HETATM   18  C1  UNL     1      17.002 -23.014 -15.677  1.00  0.00     0.264 C 
HETATM   19  N1  UNL     1      17.497 -23.869 -14.670  1.00  0.00    -0.057 NA
HETATM   20  O1  UNL     1      17.538 -23.033 -16.804  1.00  0.00    -0.271 OA
ENDBRANCH  15  18
ENDBRANCH   9  12
ENDBRANCH   8   9
BRANCH   8  21
HETATM   21  C6  UNL     1       9.872 -19.327 -15.331  1.00  0.00     0.115 C 
BRANCH  21  22
HETATM   22  C7  UNL     1       9.412 -17.952 -15.339  1.00  0.00    -0.020 A 
HETATM   23  C8  UNL     1       9.644 -17.091 -14.302  1.00  0.00     0.013 A 
HETATM   24  C9  UNL     1       9.177 -15.772 -14.329  1.00  0.00     0.001 A 
HETATM   25  C10 UNL     1       8.463 -15.343 -15.438  1.00  0.00     0.000 A 
HETATM   26  C11 UNL     1       8.226 -16.212 -16.489  1.00  0.00     0.001 A 
HETATM   27  C12 UNL     1       8.702 -17.488 -16.421  1.00  0.00     0.013 A 
ENDBRANCH  21  22
ENDBRANCH   8  21
ENDBRANCH   1   8
BRANCH   7  28
HETATM   28  N4  UNL     1      11.189 -20.594 -18.944  1.00  0.00    -0.273 N 
BRANCH  28  29
HETATM   29  C17 UNL     1      10.837 -20.106 -20.195  1.00  0.00     0.115 C 
BRANCH  29  30
HETATM   30  C18 UNL     1       9.509 -19.394 -20.236  1.00  0.00    -0.020 A 
HETATM   31  C19 UNL     1       8.542 -19.685 -19.295  1.00  0.00     0.013 A 
HETATM   32  C20 UNL     1       7.308 -19.070 -19.287  1.00  0.00     0.001 A 
HETATM   33  C21 UNL     1       6.993 -18.126 -20.235  1.00  0.00     0.000 A 
HETATM   34  C22 UNL     1       7.951 -17.824 -21.183  1.00  0.00     0.001 A 
HETATM   35  C23 UNL     1       9.202 -18.450 -21.188  1.00  0.00     0.013 A 
ENDBRANCH  29  30
ENDBRANCH  28  29
BRANCH  28  36
HETATM   36  S2  UNL     1      11.293 -22.312 -18.882  1.00  0.00     0.265 S 
HETATM   37  O4  UNL     1      11.045 -22.766 -17.449  1.00  0.00    -0.200 OA
HETATM   38  O5  UNL     1      10.203 -22.969 -19.681  1.00  0.00    -0.200 OA
BRANCH  36  39
HETATM   39  C24 UNL     1      12.833 -22.924 -19.423  1.00  0.00     0.080 A 
HETATM   40  C25 UNL     1      13.742 -23.385 -18.502  1.00  0.00     0.026 A 
HETATM   41  C26 UNL     1      14.963 -23.862 -18.929  1.00  0.00     0.018 A 
HETATM   42  C27 UNL     1      15.324 -23.898 -20.271  1.00  0.00     0.029 A 
HETATM   43  C29 UNL     1      14.407 -23.434 -21.182  1.00  0.00     0.018 A 
HETATM   44  C30 UNL     1      13.170 -22.951 -20.756  1.00  0.00     0.026 A 
BRANCH  42  45
HETATM   45  C28 UNL     1      16.628 -24.404 -20.687  1.00  0.00     0.264 C 
HETATM   46  N5  UNL     1      17.694 -24.692 -19.830  1.00  0.00    -0.057 NA
HETATM   47  O6  UNL     1      16.767 -24.584 -21.951  1.00  0.00    -0.271 OA
ENDBRANCH  42  45
ENDBRANCH  36  39
ENDBRANCH  28  36
ENDBRANCH   7  28
TORSDOF 12
ENDMDL
