MODEL 6
REMARK VINA RESULT: -10.342441190      2.285      8.943
REMARK  12 active torsions:
REMARK  status: ('A' for Active; 'I' for Inactive)
REMARK    1  A    between atoms: C1_2  and  C2_4 
REMARK    2  A    between atoms: C5_7  and  S1_8 
REMARK    3  A    between atoms: S1_8  and  N2_11 
REMARK    4  A    between atoms: N2_11  and  C6_12 
REMARK    5  A    between atoms: N2_11  and  C13_19 
REMARK    6  A    between atoms: C6_12  and  C7_13 
REMARK    7  A    between atoms: C16_25  and  N4_26 
REMARK    8  A    between atoms: N4_26  and  C17_27 
REMARK    9  A    between atoms: N4_26  and  S2_34 
REMARK   10  A    between atoms: C17_27  and  C18_28 
REMARK   11  A    between atoms: S2_34  and  C24_37 
REMARK   12  A    between atoms: C27_40  and  C28_41 
ROOT
HETATM    1  C13 UNL     1      12.988 -20.096 -17.689  1.00  0.00     0.152 C 
HETATM    2  C14 UNL     1      12.909 -19.023 -18.746  1.00  0.00     0.260 C 
HETATM    3  N3  UNL     1      12.869 -17.791 -17.946  1.00  0.00    -0.071 N 
ATOM      4  H31 UNL     1      12.668 -16.934 -18.461  1.00  0.00     0.277 HD
ATOM      5  H32 UNL     1      13.767 -17.464 -17.589  1.00  0.00     0.277 HD
HETATM    6  C15 UNL     1      11.908 -18.162 -16.962  1.00  0.00     0.260 C 
HETATM    7  C16 UNL     1      12.315 -19.485 -16.480  1.00  0.00     0.152 C 
ENDROOT
BRANCH   1   8
HETATM    8  N2  UNL     1      12.604 -21.373 -18.078  1.00  0.00    -0.273 N 
BRANCH   8   9
HETATM    9  S1  UNL     1      11.020 -21.871 -18.098  1.00  0.00     0.265 S 
HETATM   10  O2  UNL     1      10.725 -23.190 -18.740  1.00  0.00    -0.200 OA
HETATM   11  O3  UNL     1      10.386 -21.961 -16.708  1.00  0.00    -0.200 OA
BRANCH   9  12
HETATM   12  C5  UNL     1      10.030 -20.690 -18.939  1.00  0.00     0.080 A 
HETATM   13  C4  UNL     1       9.035 -19.998 -18.291  1.00  0.00     0.026 A 
HETATM   14  C3  UNL     1       8.272 -19.086 -19.003  1.00  0.00     0.018 A 
HETATM   15  C2  UNL     1       8.470 -18.843 -20.342  1.00  0.00     0.029 A 
HETATM   16  C32 UNL     1       9.476 -19.540 -21.009  1.00  0.00     0.018 A 
HETATM   17  C31 UNL     1      10.213 -20.430 -20.288  1.00  0.00     0.026 A 
BRANCH  15  18
HETATM   18  C1  UNL     1       7.677 -17.889 -21.098  1.00  0.00     0.264 C 
HETATM   19  N1  UNL     1       6.280 -18.044 -21.215  1.00  0.00    -0.057 NA
HETATM   20  O1  UNL     1       8.227 -16.916 -21.653  1.00  0.00    -0.271 OA
ENDBRANCH  15  18
ENDBRANCH   9  12
ENDBRANCH   8   9
BRANCH   8  21
HETATM   21  C6  UNL     1      13.300 -21.802 -19.250  1.00  0.00     0.115 C 
BRANCH  21  22
HETATM   22  C7  UNL     1      14.306 -22.836 -19.104  1.00  0.00    -0.020 A 
HETATM   23  C8  UNL     1      15.564 -22.578 -18.631  1.00  0.00     0.013 A 
HETATM   24  C9  UNL     1      16.522 -23.592 -18.512  1.00  0.00     0.001 A 
HETATM   25  C10 UNL     1      16.174 -24.881 -18.888  1.00  0.00     0.000 A 
HETATM   26  C11 UNL     1      14.903 -25.145 -19.368  1.00  0.00     0.001 A 
HETATM   27  C12 UNL     1      14.001 -24.126 -19.464  1.00  0.00     0.013 A 
ENDBRANCH  21  22
ENDBRANCH   8  21
ENDBRANCH   1   8
BRANCH   7  28
HETATM   28  N4  UNL     1      13.061 -19.606 -15.315  1.00  0.00    -0.273 N 
BRANCH  28  29
HETATM   29  C17 UNL     1      14.419 -19.333 -15.216  1.00  0.00     0.115 C 
BRANCH  29  30
HETATM   30  C18 UNL     1      15.296 -20.557 -15.153  1.00  0.00    -0.020 A 
HETATM   31  C19 UNL     1      14.732 -21.802 -14.962  1.00  0.00     0.013 A 
HETATM   32  C20 UNL     1      15.485 -22.954 -14.891  1.00  0.00     0.001 A 
HETATM   33  C21 UNL     1      16.854 -22.901 -15.011  1.00  0.00     0.000 A 
HETATM   34  C22 UNL     1      17.433 -21.662 -15.203  1.00  0.00     0.001 A 
HETATM   35  C23 UNL     1      16.665 -20.495 -15.275  1.00  0.00     0.013 A 
ENDBRANCH  29  30
ENDBRANCH  28  29
BRANCH  28  36
HETATM   36  S2  UNL     1      12.167 -19.152 -13.914  1.00  0.00     0.265 S 
HETATM   37  O4  UNL     1      11.957 -20.386 -13.046  1.00  0.00    -0.200 OA
HETATM   38  O5  UNL     1      12.936 -18.202 -13.041  1.00  0.00    -0.200 OA
BRANCH  36  39
HETATM   39  C24 UNL     1      10.620 -18.441 -14.291  1.00  0.00     0.080 A 
HETATM   40  C25 UNL     1      10.454 -17.081 -14.188  1.00  0.00     0.026 A 
HETATM   41  C26 UNL     1       9.229 -16.520 -14.479  1.00  0.00     0.018 A 
HETATM   42  C27 UNL     1       8.135 -17.279 -14.878  1.00  0.00     0.029 A 
HETATM   43  C29 UNL     1       8.313 -18.636 -14.977  1.00  0.00     0.018 A 
HETATM   44  C30 UNL     1       9.550 -19.211 -14.684  1.00  0.00     0.026 A 
BRANCH  42  45
HETATM   45  C28 UNL     1       6.850 -16.651 -15.171  1.00  0.00     0.264 C 
HETATM   46  N5  UNL     1       5.753 -17.290 -15.756  1.00  0.00    -0.057 NA
HETATM   47  O6  UNL     1       6.761 -15.410 -14.851  1.00  0.00    -0.271 OA
ENDBRANCH  42  45
ENDBRANCH  36  39
ENDBRANCH  28  36
ENDBRANCH   7  28
TORSDOF 12
ENDMDL
