MODEL 2
REMARK VINA RESULT: -11.098832840      1.728      7.456
REMARK  12 active torsions:
REMARK  status: ('A' for Active; 'I' for Inactive)
REMARK    1  A    between atoms: C1_2  and  C2_4 
REMARK    2  A    between atoms: C5_7  and  S1_8 
REMARK    3  A    between atoms: S1_8  and  N2_11 
REMARK    4  A    between atoms: N2_11  and  C6_12 
REMARK    5  A    between atoms: N2_11  and  C13_19 
REMARK    6  A    between atoms: C6_12  and  C7_13 
REMARK    7  A    between atoms: C16_25  and  N4_26 
REMARK    8  A    between atoms: N4_26  and  C17_27 
REMARK    9  A    between atoms: N4_26  and  S2_34 
REMARK   10  A    between atoms: C17_27  and  C18_28 
REMARK   11  A    between atoms: S2_34  and  C24_37 
REMARK   12  A    between atoms: C27_40  and  C28_41 
ROOT
HETATM    1  C13 UNL     1      12.159 -19.955 -18.261  1.00  0.00     0.152 C 
HETATM    2  C14 UNL     1      12.800 -19.111 -19.333  1.00  0.00     0.260 C 
HETATM    3  N3  UNL     1      13.470 -18.061 -18.553  1.00  0.00    -0.071 N 
ATOM      4  H31 UNL     1      13.856 -17.286 -19.091  1.00  0.00     0.277 HD
ATOM      5  H32 UNL     1      14.362 -18.321 -18.132  1.00  0.00     0.277 HD
HETATM    6  C15 UNL     1      12.429 -17.724 -17.640  1.00  0.00     0.260 C 
HETATM    7  C16 UNL     1      11.927 -18.997 -17.114  1.00  0.00     0.152 C 
ENDROOT
BRANCH   1   8
HETATM    8  N2  UNL     1      11.102 -20.762 -18.664  1.00  0.00    -0.273 N 
BRANCH   8   9
HETATM    9  S1  UNL     1      11.163 -22.421 -18.609  1.00  0.00     0.265 S 
HETATM   10  O2  UNL     1      10.951 -23.071 -17.278  1.00  0.00    -0.200 OA
HETATM   11  O3  UNL     1      10.162 -23.104 -19.544  1.00  0.00    -0.200 OA
BRANCH   9  12
HETATM   12  C5  UNL     1      12.726 -22.983 -19.180  1.00  0.00     0.080 A 
HETATM   13  C4  UNL     1      13.636 -23.558 -18.325  1.00  0.00     0.026 A 
HETATM   14  C3  UNL     1      14.861 -23.972 -18.822  1.00  0.00     0.018 A 
HETATM   15  C2  UNL     1      15.208 -23.830 -20.146  1.00  0.00     0.029 A 
HETATM   16  C32 UNL     1      14.292 -23.248 -21.021  1.00  0.00     0.018 A 
HETATM   17  C31 UNL     1      13.095 -22.849 -20.509  1.00  0.00     0.026 A 
BRANCH  15  18
HETATM   18  C1  UNL     1      16.488 -24.263 -20.678  1.00  0.00     0.264 C 
HETATM   19  N1  UNL     1      17.583 -24.498 -19.821  1.00  0.00    -0.057 NA
HETATM   20  O1  UNL     1      16.634 -24.432 -21.906  1.00  0.00    -0.271 OA
ENDBRANCH  15  18
ENDBRANCH   9  12
ENDBRANCH   8   9
BRANCH   8  21
HETATM   21  C6  UNL     1       9.847 -20.271 -18.189  1.00  0.00     0.115 C 
BRANCH  21  22
HETATM   22  C7  UNL     1       9.012 -19.529 -19.113  1.00  0.00    -0.020 A 
HETATM   23  C8  UNL     1       7.832 -18.950 -18.737  1.00  0.00     0.013 A 
HETATM   24  C9  UNL     1       7.036 -18.250 -19.653  1.00  0.00     0.001 A 
HETATM   25  C10 UNL     1       7.469 -18.151 -20.967  1.00  0.00     0.000 A 
HETATM   26  C11 UNL     1       8.662 -18.737 -21.351  1.00  0.00     0.001 A 
HETATM   27  C12 UNL     1       9.406 -19.407 -20.425  1.00  0.00     0.013 A 
ENDBRANCH  21  22
ENDBRANCH   8  21
ENDBRANCH   1   8
BRANCH   7  28
HETATM   28  N4  UNL     1      12.385 -19.478 -15.894  1.00  0.00    -0.273 N 
BRANCH  28  29
HETATM   29  C17 UNL     1      13.617 -19.164 -15.335  1.00  0.00     0.115 C 
BRANCH  29  30
HETATM   30  C18 UNL     1      14.607 -20.301 -15.332  1.00  0.00    -0.020 A 
HETATM   31  C19 UNL     1      14.169 -21.597 -15.145  1.00  0.00     0.013 A 
HETATM   32  C20 UNL     1      15.030 -22.673 -15.128  1.00  0.00     0.001 A 
HETATM   33  C21 UNL     1      16.381 -22.490 -15.300  1.00  0.00     0.000 A 
HETATM   34  C22 UNL     1      16.833 -21.199 -15.489  1.00  0.00     0.001 A 
HETATM   35  C23 UNL     1      15.958 -20.108 -15.506  1.00  0.00     0.013 A 
ENDBRANCH  29  30
ENDBRANCH  28  29
BRANCH  28  36
HETATM   36  S2  UNL     1      11.122 -19.626 -14.731  1.00  0.00     0.265 S 
HETATM   37  O4  UNL     1      10.391 -20.941 -14.968  1.00  0.00    -0.200 OA
HETATM   38  O5  UNL     1      11.658 -19.738 -13.332  1.00  0.00    -0.200 OA
BRANCH  36  39
HETATM   39  C24 UNL     1       9.980 -18.310 -14.792  1.00  0.00     0.080 A 
HETATM   40  C25 UNL     1       8.661 -18.569 -15.077  1.00  0.00     0.026 A 
HETATM   41  C26 UNL     1       7.759 -17.528 -15.132  1.00  0.00     0.018 A 
HETATM   42  C27 UNL     1       8.128 -16.206 -14.909  1.00  0.00     0.029 A 
HETATM   43  C29 UNL     1       9.448 -15.961 -14.624  1.00  0.00     0.018 A 
HETATM   44  C30 UNL     1      10.366 -17.010 -14.567  1.00  0.00     0.026 A 
BRANCH  42  45
HETATM   45  C28 UNL     1       7.147 -15.128 -14.982  1.00  0.00     0.264 C 
HETATM   46  N5  UNL     1       7.424 -13.769 -14.806  1.00  0.00    -0.057 NA
HETATM   47  O6  UNL     1       5.942 -15.499 -15.229  1.00  0.00    -0.271 OA
ENDBRANCH  42  45
ENDBRANCH  36  39
ENDBRANCH  28  36
ENDBRANCH   7  28
TORSDOF 12
ENDMDL
