MODEL 6
REMARK VINA RESULT: -10.596057240      1.798      7.603
REMARK  12 active torsions:
REMARK  status: ('A' for Active; 'I' for Inactive)
REMARK    1  A    between atoms: C1_2  and  C2_4 
REMARK    2  A    between atoms: C5_7  and  S1_8 
REMARK    3  A    between atoms: S1_8  and  N2_11 
REMARK    4  A    between atoms: N2_11  and  C6_12 
REMARK    5  A    between atoms: N2_11  and  C13_19 
REMARK    6  A    between atoms: C6_12  and  C7_13 
REMARK    7  A    between atoms: C16_25  and  N4_26 
REMARK    8  A    between atoms: N4_26  and  C17_27 
REMARK    9  A    between atoms: N4_26  and  S2_34 
REMARK   10  A    between atoms: C17_27  and  C18_28 
REMARK   11  A    between atoms: S2_34  and  C24_37 
REMARK   12  A    between atoms: C27_40  and  C28_41 
ROOT
HETATM    1  C13 UNL     1     -11.790  19.490 -18.096  1.00  0.00     0.152 C 
HETATM    2  C14 UNL     1     -12.537  18.668 -19.115  1.00  0.00     0.260 C 
HETATM    3  N3  UNL     1     -13.073  17.566 -18.304  1.00  0.00    -0.071 N 
ATOM      4  H31 UNL     1     -13.501  16.800 -18.824  1.00  0.00     0.277 HD
ATOM      5  H32 UNL     1     -13.913  17.779 -17.765  1.00  0.00     0.277 HD
HETATM    6  C15 UNL     1     -11.917  17.229 -17.543  1.00  0.00     0.260 C 
HETATM    7  C16 UNL     1     -11.390  18.497 -17.028  1.00  0.00     0.152 C 
ENDROOT
BRANCH   1   8
HETATM    8  N2  UNL     1     -10.817  20.348 -18.591  1.00  0.00    -0.273 N 
BRANCH   8   9
HETATM    9  S1  UNL     1     -10.901  21.999 -18.429  1.00  0.00     0.265 S 
HETATM   10  O2  UNL     1     -10.579  22.574 -17.086  1.00  0.00    -0.200 OA
HETATM   11  O3  UNL     1     -10.003  22.760 -19.407  1.00  0.00    -0.200 OA
BRANCH   9  12
HETATM   12  C5  UNL     1     -12.520  22.557 -18.820  1.00  0.00     0.080 A 
HETATM   13  C4  UNL     1     -13.553  22.443 -17.921  1.00  0.00     0.026 A 
HETATM   14  C3  UNL     1     -14.816  22.886 -18.283  1.00  0.00     0.018 A 
HETATM   15  C2  UNL     1     -15.080  23.439 -19.515  1.00  0.00     0.029 A 
HETATM   16  C32 UNL     1     -14.038  23.559 -20.433  1.00  0.00     0.018 A 
HETATM   17  C31 UNL     1     -12.807  23.116 -20.055  1.00  0.00     0.026 A 
BRANCH  15  18
HETATM   18  C1  UNL     1     -16.398  23.908 -19.904  1.00  0.00     0.264 C 
HETATM   19  N1  UNL     1     -16.693  24.192 -21.254  1.00  0.00    -0.057 NA
HETATM   20  O1  UNL     1     -17.288  24.065 -19.043  1.00  0.00    -0.271 OA
ENDBRANCH  15  18
ENDBRANCH   9  12
ENDBRANCH   8   9
BRANCH   8  21
HETATM   21  C6  UNL     1      -9.498  19.865 -18.324  1.00  0.00     0.115 C 
BRANCH  21  22
HETATM   22  C7  UNL     1      -8.794  19.182 -19.391  1.00  0.00    -0.020 A 
HETATM   23  C8  UNL     1      -9.343  18.983 -20.627  1.00  0.00     0.013 A 
HETATM   24  C9  UNL     1      -8.648  18.308 -21.637  1.00  0.00     0.001 A 
HETATM   25  C10 UNL     1      -7.374  17.834 -21.361  1.00  0.00     0.000 A 
HETATM   26  C11 UNL     1      -6.815  18.032 -20.111  1.00  0.00     0.001 A 
HETATM   27  C12 UNL     1      -7.529  18.698 -19.158  1.00  0.00     0.013 A 
ENDBRANCH  21  22
ENDBRANCH   8  21
ENDBRANCH   1   8
BRANCH   7  28
HETATM   28  N4  UNL     1     -11.705  18.913 -15.741  1.00  0.00    -0.273 N 
BRANCH  28  29
HETATM   29  C17 UNL     1     -12.897  18.627 -15.090  1.00  0.00     0.115 C 
BRANCH  29  30
HETATM   30  C18 UNL     1     -13.833  19.801 -14.958  1.00  0.00    -0.020 A 
HETATM   31  C19 UNL     1     -13.407  20.956 -14.333  1.00  0.00     0.013 A 
HETATM   32  C20 UNL     1     -14.221  22.058 -14.179  1.00  0.00     0.001 A 
HETATM   33  C21 UNL     1     -15.512  22.045 -14.653  1.00  0.00     0.000 A 
HETATM   34  C22 UNL     1     -15.951  20.896 -15.282  1.00  0.00     0.001 A 
HETATM   35  C23 UNL     1     -15.123  19.779 -15.436  1.00  0.00     0.013 A 
ENDBRANCH  29  30
ENDBRANCH  28  29
BRANCH  28  36
HETATM   36  S2  UNL     1     -10.335  18.912 -14.697  1.00  0.00     0.265 S 
HETATM   37  O4  UNL     1      -9.542  20.192 -14.928  1.00  0.00    -0.200 OA
HETATM   38  O5  UNL     1     -10.733  18.970 -13.250  1.00  0.00    -0.200 OA
BRANCH  36  39
HETATM   39  C24 UNL     1      -9.293  17.535 -14.939  1.00  0.00     0.080 A 
HETATM   40  C25 UNL     1      -8.092  17.698 -15.584  1.00  0.00     0.026 A 
HETATM   41  C26 UNL     1      -7.271  16.608 -15.782  1.00  0.00     0.018 A 
HETATM   42  C27 UNL     1      -7.608  15.330 -15.351  1.00  0.00     0.029 A 
HETATM   43  C29 UNL     1      -8.812  15.180 -14.707  1.00  0.00     0.018 A 
HETATM   44  C30 UNL     1      -9.647  16.279 -14.504  1.00  0.00     0.026 A 
BRANCH  42  45
HETATM   45  C28 UNL     1      -6.718  14.197 -15.583  1.00  0.00     0.264 C 
HETATM   46  N5  UNL     1      -5.521  14.244 -16.303  1.00  0.00    -0.057 NA
HETATM   47  O6  UNL     1      -7.102  13.085 -15.068  1.00  0.00    -0.271 OA
ENDBRANCH  42  45
ENDBRANCH  36  39
ENDBRANCH  28  36
ENDBRANCH   7  28
TORSDOF 12
ENDMDL
