MODEL 17
REMARK VINA RESULT: -9.217360339      2.197      7.754
REMARK  12 active torsions:
REMARK  status: ('A' for Active; 'I' for Inactive)
REMARK    1  A    between atoms: C1_2  and  C2_4 
REMARK    2  A    between atoms: C5_7  and  S1_8 
REMARK    3  A    between atoms: S1_8  and  N2_11 
REMARK    4  A    between atoms: N2_11  and  C6_12 
REMARK    5  A    between atoms: N2_11  and  C13_19 
REMARK    6  A    between atoms: C6_12  and  C7_13 
REMARK    7  A    between atoms: C16_25  and  N4_26 
REMARK    8  A    between atoms: N4_26  and  C17_27 
REMARK    9  A    between atoms: N4_26  and  S2_34 
REMARK   10  A    between atoms: C17_27  and  C18_28 
REMARK   11  A    between atoms: S2_34  and  C24_37 
REMARK   12  A    between atoms: C27_40  and  C28_41 
ROOT
HETATM    1  C13 UNL     1     -11.229  19.091 -17.726  1.00  0.00     0.152 C 
HETATM    2  C14 UNL     1     -12.053  18.190 -18.610  1.00  0.00     0.260 C 
HETATM    3  N3  UNL     1     -12.400  17.086 -17.703  1.00  0.00    -0.071 N 
ATOM      4  H31 UNL     1     -12.844  16.278 -18.138  1.00  0.00     0.277 HD
ATOM      5  H32 UNL     1     -13.170  17.267 -17.058  1.00  0.00     0.277 HD
HETATM    6  C15 UNL     1     -11.132  16.847 -17.102  1.00  0.00     0.260 C 
HETATM    7  C16 UNL     1     -10.622  18.162 -16.699  1.00  0.00     0.152 C 
ENDROOT
BRANCH   1   8
HETATM    8  N2  UNL     1     -10.390  19.989 -18.374  1.00  0.00    -0.273 N 
BRANCH   8   9
HETATM    9  S1  UNL     1     -10.551  21.636 -18.235  1.00  0.00     0.265 S 
HETATM   10  O2  UNL     1     -10.172  22.254 -16.926  1.00  0.00    -0.200 OA
HETATM   11  O3  UNL     1      -9.760  22.422 -19.284  1.00  0.00    -0.200 OA
BRANCH   9  12
HETATM   12  C5  UNL     1     -12.219  22.102 -18.526  1.00  0.00     0.080 A 
HETATM   13  C4  UNL     1     -13.198  21.162 -18.739  1.00  0.00     0.026 A 
HETATM   14  C3  UNL     1     -14.497  21.582 -18.978  1.00  0.00     0.018 A 
HETATM   15  C2  UNL     1     -14.850  22.912 -19.012  1.00  0.00     0.029 A 
HETATM   16  C32 UNL     1     -13.863  23.872 -18.798  1.00  0.00     0.018 A 
HETATM   17  C31 UNL     1     -12.594  23.435 -18.565  1.00  0.00     0.026 A 
BRANCH  15  18
HETATM   18  C1  UNL     1     -16.208  23.363 -19.260  1.00  0.00     0.264 C 
HETATM   19  N1  UNL     1     -17.199  23.249 -18.263  1.00  0.00    -0.057 NA
HETATM   20  O1  UNL     1     -16.513  23.860 -20.363  1.00  0.00    -0.271 OA
ENDBRANCH  15  18
ENDBRANCH   9  12
ENDBRANCH   8   9
BRANCH   8  21
HETATM   21  C6  UNL     1      -9.020  19.590 -18.291  1.00  0.00     0.115 C 
BRANCH  21  22
HETATM   22  C7  UNL     1      -8.428  18.941 -19.444  1.00  0.00    -0.020 A 
HETATM   23  C8  UNL     1      -7.163  18.423 -19.429  1.00  0.00     0.013 A 
HETATM   24  C9  UNL     1      -6.609  17.813 -20.561  1.00  0.00     0.001 A 
HETATM   25  C10 UNL     1      -7.372  17.742 -21.717  1.00  0.00     0.000 A 
HETATM   26  C11 UNL     1      -8.652  18.267 -21.736  1.00  0.00     0.001 A 
HETATM   27  C12 UNL     1      -9.153  18.849 -20.609  1.00  0.00     0.013 A 
ENDBRANCH  21  22
ENDBRANCH   8  21
ENDBRANCH   1   8
BRANCH   7  28
HETATM   28  N4  UNL     1     -10.784  18.603 -15.392  1.00  0.00    -0.273 N 
BRANCH  28  29
HETATM   29  C17 UNL     1     -11.904  18.355 -14.609  1.00  0.00     0.115 C 
BRANCH  29  30
HETATM   30  C18 UNL     1     -12.759  19.568 -14.344  1.00  0.00    -0.020 A 
HETATM   31  C19 UNL     1     -13.639  20.015 -15.308  1.00  0.00     0.013 A 
HETATM   32  C20 UNL     1     -14.441  21.120 -15.123  1.00  0.00     0.001 A 
HETATM   33  C21 UNL     1     -14.392  21.830 -13.947  1.00  0.00     0.000 A 
HETATM   34  C22 UNL     1     -13.515  21.394 -12.972  1.00  0.00     0.001 A 
HETATM   35  C23 UNL     1     -12.703  20.272 -13.163  1.00  0.00     0.013 A 
ENDBRANCH  29  30
ENDBRANCH  28  29
BRANCH  28  36
HETATM   36  S2  UNL     1      -9.308  18.581 -14.504  1.00  0.00     0.265 S 
HETATM   37  O4  UNL     1      -8.514  19.837 -14.843  1.00  0.00    -0.200 OA
HETATM   38  O5  UNL     1      -9.543  18.670 -13.023  1.00  0.00    -0.200 OA
BRANCH  36  39
HETATM   39  C24 UNL     1      -8.332  17.175 -14.835  1.00  0.00     0.080 A 
HETATM   40  C25 UNL     1      -8.680  15.963 -14.290  1.00  0.00     0.026 A 
HETATM   41  C26 UNL     1      -7.905  14.852 -14.545  1.00  0.00     0.018 A 
HETATM   42  C27 UNL     1      -6.767  14.902 -15.342  1.00  0.00     0.029 A 
HETATM   43  C29 UNL     1      -6.429  16.119 -15.881  1.00  0.00     0.018 A 
HETATM   44  C30 UNL     1      -7.210  17.247 -15.627  1.00  0.00     0.026 A 
BRANCH  42  45
HETATM   45  C28 UNL     1      -5.965  13.707 -15.587  1.00  0.00     0.264 C 
HETATM   46  N5  UNL     1      -6.147  12.471 -14.962  1.00  0.00    -0.057 NA
HETATM   47  O6  UNL     1      -5.026  13.846 -16.452  1.00  0.00    -0.271 OA
ENDBRANCH  42  45
ENDBRANCH  36  39
ENDBRANCH  28  36
ENDBRANCH   7  28
TORSDOF 12
ENDMDL
