MODEL 4
REMARK VINA RESULT: -10.684246861      3.275      8.014
REMARK  12 active torsions:
REMARK  status: ('A' for Active; 'I' for Inactive)
REMARK    1  A    between atoms: C1_2  and  C2_4 
REMARK    2  A    between atoms: C5_7  and  S1_8 
REMARK    3  A    between atoms: S1_8  and  N2_11 
REMARK    4  A    between atoms: N2_11  and  C6_12 
REMARK    5  A    between atoms: N2_11  and  C13_19 
REMARK    6  A    between atoms: C6_12  and  C7_13 
REMARK    7  A    between atoms: C16_25  and  N4_26 
REMARK    8  A    between atoms: N4_26  and  C17_27 
REMARK    9  A    between atoms: N4_26  and  S2_34 
REMARK   10  A    between atoms: C17_27  and  C18_28 
REMARK   11  A    between atoms: S2_34  and  C24_37 
REMARK   12  A    between atoms: C27_40  and  C28_41 
ROOT
HETATM    1  C13 UNL     1     -10.422  19.322 -19.007  1.00  0.00     0.152 C 
HETATM    2  C14 UNL     1     -10.369  19.562 -20.494  1.00  0.00     0.260 C 
HETATM    3  N3  UNL     1      -9.315  18.634 -20.929  1.00  0.00    -0.071 N 
ATOM      4  H31 UNL     1      -9.009  18.733 -21.897  1.00  0.00     0.277 HD
ATOM      5  H32 UNL     1      -9.596  17.659 -21.030  1.00  0.00     0.277 HD
HETATM    6  C15 UNL     1      -8.327  18.895 -19.937  1.00  0.00     0.260 C 
HETATM    7  C16 UNL     1      -9.028  18.856 -18.649  1.00  0.00     0.152 C 
ENDROOT
BRANCH   1   8
HETATM    8  N2  UNL     1     -10.991  20.331 -18.241  1.00  0.00    -0.273 N 
BRANCH   8   9
HETATM    9  S1  UNL     1     -10.809  21.944 -18.593  1.00  0.00     0.265 S 
HETATM   10  O2  UNL     1     -10.422  22.852 -17.468  1.00  0.00    -0.200 OA
HETATM   11  O3  UNL     1      -9.781  22.221 -19.692  1.00  0.00    -0.200 OA
BRANCH   9  12
HETATM   12  C5  UNL     1     -12.307  22.589 -19.243  1.00  0.00     0.080 A 
HETATM   13  C4  UNL     1     -12.588  22.531 -20.587  1.00  0.00     0.026 A 
HETATM   14  C3  UNL     1     -13.779  23.068 -21.052  1.00  0.00     0.018 A 
HETATM   15  C2  UNL     1     -14.698  23.660 -20.217  1.00  0.00     0.029 A 
HETATM   16  C32 UNL     1     -14.422  23.724 -18.853  1.00  0.00     0.018 A 
HETATM   17  C31 UNL     1     -13.246  23.190 -18.420  1.00  0.00     0.026 A 
BRANCH  15  18
HETATM   18  C1  UNL     1     -15.949  24.224 -20.693  1.00  0.00     0.264 C 
HETATM   19  N1  UNL     1     -17.107  24.192 -19.888  1.00  0.00    -0.057 NA
HETATM   20  O1  UNL     1     -16.013  24.746 -21.825  1.00  0.00    -0.271 OA
ENDBRANCH  15  18
ENDBRANCH   9  12
ENDBRANCH   8   9
BRANCH   8  21
HETATM   21  C6  UNL     1     -12.340  20.026 -17.880  1.00  0.00     0.115 C 
BRANCH  21  22
HETATM   22  C7  UNL     1     -12.712  20.130 -16.482  1.00  0.00    -0.020 A 
HETATM   23  C8  UNL     1     -11.839  20.552 -15.517  1.00  0.00     0.013 A 
HETATM   24  C9  UNL     1     -12.218  20.632 -14.172  1.00  0.00     0.001 A 
HETATM   25  C10 UNL     1     -13.511  20.269 -13.825  1.00  0.00     0.000 A 
HETATM   26  C11 UNL     1     -14.396  19.841 -14.798  1.00  0.00     0.001 A 
HETATM   27  C12 UNL     1     -13.984  19.782 -16.097  1.00  0.00     0.013 A 
ENDBRANCH  21  22
ENDBRANCH   8  21
ENDBRANCH   1   8
BRANCH   7  28
HETATM   28  N4  UNL     1      -9.014  17.699 -17.881  1.00  0.00    -0.273 N 
BRANCH  28  29
HETATM   29  C17 UNL     1     -10.143  17.099 -17.338  1.00  0.00     0.115 C 
BRANCH  29  30
HETATM   30  C18 UNL     1     -10.299  17.297 -15.852  1.00  0.00    -0.020 A 
HETATM   31  C19 UNL     1      -9.288  17.893 -15.125  1.00  0.00     0.013 A 
HETATM   32  C20 UNL     1      -9.374  18.094 -13.764  1.00  0.00     0.001 A 
HETATM   33  C21 UNL     1     -10.494  17.701 -13.070  1.00  0.00     0.000 A 
HETATM   34  C22 UNL     1     -11.514  17.104 -13.785  1.00  0.00     0.001 A 
HETATM   35  C23 UNL     1     -11.424  16.901 -15.165  1.00  0.00     0.013 A 
ENDBRANCH  29  30
ENDBRANCH  28  29
BRANCH  28  36
HETATM   36  S2  UNL     1      -7.828  16.570 -18.417  1.00  0.00     0.265 S 
HETATM   37  O4  UNL     1      -8.204  15.185 -17.904  1.00  0.00    -0.200 OA
HETATM   38  O5  UNL     1      -7.822  16.430 -19.913  1.00  0.00    -0.200 OA
BRANCH  36  39
HETATM   39  C24 UNL     1      -6.217  16.965 -17.883  1.00  0.00     0.080 A 
HETATM   40  C25 UNL     1      -5.299  17.440 -18.787  1.00  0.00     0.026 A 
HETATM   41  C26 UNL     1      -4.022  17.746 -18.366  1.00  0.00     0.018 A 
HETATM   42  C27 UNL     1      -3.614  17.594 -17.046  1.00  0.00     0.029 A 
HETATM   43  C29 UNL     1      -4.540  17.118 -16.151  1.00  0.00     0.018 A 
HETATM   44  C30 UNL     1      -5.834  16.807 -16.571  1.00  0.00     0.026 A 
BRANCH  42  45
HETATM   45  C28 UNL     1      -2.251  17.921 -16.637  1.00  0.00     0.264 C 
HETATM   46  N5  UNL     1      -1.194  18.208 -17.503  1.00  0.00    -0.057 NA
HETATM   47  O6  UNL     1      -2.050  17.936 -15.368  1.00  0.00    -0.271 OA
ENDBRANCH  42  45
ENDBRANCH  36  39
ENDBRANCH  28  36
ENDBRANCH   7  28
TORSDOF 12
ENDMDL
