MODEL 1
REMARK VINA RESULT: -11.898973949      0.000      0.000
REMARK  12 active torsions:
REMARK  status: ('A' for Active; 'I' for Inactive)
REMARK    1  A    between atoms: C1_2  and  C2_4 
REMARK    2  A    between atoms: C5_7  and  S1_8 
REMARK    3  A    between atoms: S1_8  and  N2_11 
REMARK    4  A    between atoms: N2_11  and  C6_12 
REMARK    5  A    between atoms: N2_11  and  C13_19 
REMARK    6  A    between atoms: C6_12  and  C7_13 
REMARK    7  A    between atoms: C16_25  and  N4_26 
REMARK    8  A    between atoms: N4_26  and  C17_27 
REMARK    9  A    between atoms: N4_26  and  S2_34 
REMARK   10  A    between atoms: C17_27  and  C18_28 
REMARK   11  A    between atoms: S2_34  and  C24_37 
REMARK   12  A    between atoms: C27_40  and  C28_41 
ROOT
HETATM    1  C13 UNL     1     -11.189  18.654 -16.938  1.00  0.00     0.152 C 
HETATM    2  C14 UNL     1     -11.880  17.322 -17.079  1.00  0.00     0.260 C 
HETATM    3  N3  UNL     1     -12.459  17.404 -18.428  1.00  0.00    -0.071 N 
ATOM      4  H31 UNL     1     -13.101  16.654 -18.681  1.00  0.00     0.277 HD
ATOM      5  H32 UNL     1     -11.815  17.227 -19.199  1.00  0.00     0.277 HD
HETATM    6  C15 UNL     1     -13.021  18.712 -18.379  1.00  0.00     0.260 C 
HETATM    7  C16 UNL     1     -11.972  19.583 -17.840  1.00  0.00     0.152 C 
ENDROOT
BRANCH   1   8
HETATM    8  N2  UNL     1     -10.920  19.073 -15.641  1.00  0.00    -0.273 N 
BRANCH   8   9
HETATM    9  S1  UNL     1     -11.964  18.818 -14.376  1.00  0.00     0.265 S 
HETATM   10  O2  UNL     1     -12.562  17.452 -14.244  1.00  0.00    -0.200 OA
HETATM   11  O3  UNL     1     -11.353  19.113 -13.004  1.00  0.00    -0.200 OA
BRANCH   9  12
HETATM   12  C5  UNL     1     -13.319  19.931 -14.482  1.00  0.00     0.080 A 
HETATM   13  C4  UNL     1     -13.279  21.167 -13.882  1.00  0.00     0.026 A 
HETATM   14  C3  UNL     1     -14.380  22.003 -13.983  1.00  0.00     0.018 A 
HETATM   15  C2  UNL     1     -15.520  21.644 -14.665  1.00  0.00     0.029 A 
HETATM   16  C32 UNL     1     -15.570  20.393 -15.277  1.00  0.00     0.018 A 
HETATM   17  C31 UNL     1     -14.476  19.589 -15.163  1.00  0.00     0.026 A 
BRANCH  15  18
HETATM   18  C1  UNL     1     -16.679  22.512 -14.779  1.00  0.00     0.264 C 
HETATM   19  N1  UNL     1     -17.456  22.832 -13.646  1.00  0.00    -0.057 NA
HETATM   20  O1  UNL     1     -17.000  22.989 -15.887  1.00  0.00    -0.271 OA
ENDBRANCH  15  18
ENDBRANCH   9  12
ENDBRANCH   8   9
BRANCH   8  21
HETATM   21  C6  UNL     1      -9.569  18.800 -15.265  1.00  0.00     0.115 C 
BRANCH  21  22
HETATM   22  C7  UNL     1      -9.118  17.423 -15.297  1.00  0.00    -0.020 A 
HETATM   23  C8  UNL     1      -9.332  16.553 -14.263  1.00  0.00     0.013 A 
HETATM   24  C9  UNL     1      -8.875  15.231 -14.313  1.00  0.00     0.001 A 
HETATM   25  C10 UNL     1      -8.188  14.809 -15.442  1.00  0.00     0.000 A 
HETATM   26  C11 UNL     1      -7.969  15.686 -16.489  1.00  0.00     0.001 A 
HETATM   27  C12 UNL     1      -8.435  16.965 -16.399  1.00  0.00     0.013 A 
ENDBRANCH  21  22
ENDBRANCH   8  21
ENDBRANCH   1   8
BRANCH   7  28
HETATM   28  N4  UNL     1     -11.169  20.323 -18.698  1.00  0.00    -0.273 N 
BRANCH  28  29
HETATM   29  C17 UNL     1     -10.911  19.989 -20.021  1.00  0.00     0.115 C 
BRANCH  29  30
HETATM   30  C18 UNL     1      -9.642  19.201 -20.229  1.00  0.00    -0.020 A 
HETATM   31  C19 UNL     1      -8.601  19.322 -19.331  1.00  0.00     0.013 A 
HETATM   32  C20 UNL     1      -7.417  18.631 -19.473  1.00  0.00     0.001 A 
HETATM   33  C21 UNL     1      -7.228  17.781 -20.537  1.00  0.00     0.000 A 
HETATM   34  C22 UNL     1      -8.262  17.650 -21.443  1.00  0.00     0.001 A 
HETATM   35  C23 UNL     1      -9.463  18.352 -21.296  1.00  0.00     0.013 A 
ENDBRANCH  29  30
ENDBRANCH  28  29
BRANCH  28  36
HETATM   36  S2  UNL     1     -11.317  22.019 -18.436  1.00  0.00     0.265 S 
HETATM   37  O4  UNL     1     -11.209  22.294 -16.941  1.00  0.00    -0.200 OA
HETATM   38  O5  UNL     1     -10.175  22.782 -19.044  1.00  0.00    -0.200 OA
BRANCH  36  39
HETATM   39  C24 UNL     1     -12.816  22.676 -19.037  1.00  0.00     0.080 A 
HETATM   40  C25 UNL     1     -13.948  22.603 -18.264  1.00  0.00     0.026 A 
HETATM   41  C26 UNL     1     -15.135  23.115 -18.742  1.00  0.00     0.018 A 
HETATM   42  C27 UNL     1     -15.241  23.713 -19.993  1.00  0.00     0.029 A 
HETATM   43  C29 UNL     1     -14.102  23.780 -20.757  1.00  0.00     0.018 A 
HETATM   44  C30 UNL     1     -12.898  23.263 -20.279  1.00  0.00     0.026 A 
BRANCH  42  45
HETATM   45  C28 UNL     1     -16.516  24.239 -20.471  1.00  0.00     0.264 C 
HETATM   46  N5  UNL     1     -17.593  24.607 -19.661  1.00  0.00    -0.057 NA
HETATM   47  O6  UNL     1     -16.615  24.358 -21.746  1.00  0.00    -0.271 OA
ENDBRANCH  42  45
ENDBRANCH  36  39
ENDBRANCH  28  36
ENDBRANCH   7  28
TORSDOF 12
ENDMDL
