MODEL 2
REMARK VINA RESULT: -10.869286240      3.126      7.981
REMARK  12 active torsions:
REMARK  status: ('A' for Active; 'I' for Inactive)
REMARK    1  A    between atoms: C1_2  and  C2_4 
REMARK    2  A    between atoms: C5_7  and  S1_8 
REMARK    3  A    between atoms: S1_8  and  N2_11 
REMARK    4  A    between atoms: N2_11  and  C6_12 
REMARK    5  A    between atoms: N2_11  and  C13_19 
REMARK    6  A    between atoms: C6_12  and  C7_13 
REMARK    7  A    between atoms: C16_25  and  N4_26 
REMARK    8  A    between atoms: N4_26  and  C17_27 
REMARK    9  A    between atoms: N4_26  and  S2_34 
REMARK   10  A    between atoms: C17_27  and  C18_28 
REMARK   11  A    between atoms: S2_34  and  C24_37 
REMARK   12  A    between atoms: C27_40  and  C28_41 
ROOT
HETATM    1  C13 UNL     1     -10.479  19.338 -19.111  1.00  0.00     0.152 C 
HETATM    2  C14 UNL     1     -11.081  19.352 -20.493  1.00  0.00     0.260 C 
HETATM    3  N3  UNL     1     -10.124  18.546 -21.265  1.00  0.00    -0.071 N 
ATOM      4  H31 UNL     1     -10.261  18.542 -22.275  1.00  0.00     0.277 HD
ATOM      5  H32 UNL     1     -10.214  17.535 -21.165  1.00  0.00     0.277 HD
HETATM    6  C15 UNL     1      -8.897  19.107 -20.808  1.00  0.00     0.260 C 
HETATM    7  C16 UNL     1      -8.996  19.157 -19.346  1.00  0.00     0.152 C 
ENDROOT
BRANCH   1   8
HETATM    8  N2  UNL     1     -10.888  20.350 -18.252  1.00  0.00    -0.273 N 
BRANCH   8   9
HETATM    9  S1  UNL     1     -10.756  21.962 -18.629  1.00  0.00     0.265 S 
HETATM   10  O2  UNL     1     -10.366  22.895 -17.526  1.00  0.00    -0.200 OA
HETATM   11  O3  UNL     1      -9.763  22.251 -19.758  1.00  0.00    -0.200 OA
BRANCH   9  12
HETATM   12  C5  UNL     1     -12.287  22.559 -19.250  1.00  0.00     0.080 A 
HETATM   13  C4  UNL     1     -12.501  22.713 -20.599  1.00  0.00     0.026 A 
HETATM   14  C3  UNL     1     -13.722  23.201 -21.037  1.00  0.00     0.018 A 
HETATM   15  C2  UNL     1     -14.735  23.543 -20.172  1.00  0.00     0.029 A 
HETATM   16  C32 UNL     1     -14.527  23.390 -18.802  1.00  0.00     0.018 A 
HETATM   17  C31 UNL     1     -13.320  22.909 -18.395  1.00  0.00     0.026 A 
BRANCH  15  18
HETATM   18  C1  UNL     1     -16.019  24.054 -20.620  1.00  0.00     0.264 C 
HETATM   19  N1  UNL     1     -17.081  24.235 -19.710  1.00  0.00    -0.057 NA
HETATM   20  O1  UNL     1     -16.196  24.340 -21.822  1.00  0.00    -0.271 OA
ENDBRANCH  15  18
ENDBRANCH   9  12
ENDBRANCH   8   9
BRANCH   8  21
HETATM   21  C6  UNL     1     -12.150  20.058 -17.649  1.00  0.00     0.115 C 
BRANCH  21  22
HETATM   22  C7  UNL     1     -12.162  19.639 -16.261  1.00  0.00    -0.020 A 
HETATM   23  C8  UNL     1     -11.930  20.506 -15.229  1.00  0.00     0.013 A 
HETATM   24  C9  UNL     1     -11.933  20.075 -13.897  1.00  0.00     0.001 A 
HETATM   25  C10 UNL     1     -12.178  18.735 -13.635  1.00  0.00     0.000 A 
HETATM   26  C11 UNL     1     -12.413  17.855 -14.677  1.00  0.00     0.001 A 
HETATM   27  C12 UNL     1     -12.403  18.320 -15.959  1.00  0.00     0.013 A 
ENDBRANCH  21  22
ENDBRANCH   8  21
ENDBRANCH   1   8
BRANCH   7  28
HETATM   28  N4  UNL     1      -8.435  18.148 -18.573  1.00  0.00    -0.273 N 
BRANCH  28  29
HETATM   29  C17 UNL     1      -9.159  17.148 -17.936  1.00  0.00     0.115 C 
BRANCH  29  30
HETATM   30  C18 UNL     1      -9.050  17.163 -16.433  1.00  0.00    -0.020 A 
HETATM   31  C19 UNL     1      -8.713  18.330 -15.777  1.00  0.00     0.013 A 
HETATM   32  C20 UNL     1      -8.594  18.401 -14.406  1.00  0.00     0.001 A 
HETATM   33  C21 UNL     1      -8.812  17.289 -13.627  1.00  0.00     0.000 A 
HETATM   34  C22 UNL     1      -9.151  16.114 -14.270  1.00  0.00     0.001 A 
HETATM   35  C23 UNL     1      -9.271  16.045 -15.662  1.00  0.00     0.013 A 
ENDBRANCH  29  30
ENDBRANCH  28  29
BRANCH  28  36
HETATM   36  S2  UNL     1      -6.923  17.609 -19.196  1.00  0.00     0.265 S 
HETATM   37  O4  UNL     1      -7.181  16.710 -20.399  1.00  0.00    -0.200 OA
HETATM   38  O5  UNL     1      -6.104  18.744 -19.742  1.00  0.00    -0.200 OA
BRANCH  36  39
HETATM   39  C24 UNL     1      -5.969  16.741 -18.022  1.00  0.00     0.080 A 
HETATM   40  C25 UNL     1      -4.990  17.402 -17.321  1.00  0.00     0.026 A 
HETATM   41  C26 UNL     1      -4.232  16.714 -16.398  1.00  0.00     0.018 A 
HETATM   42  C27 UNL     1      -4.415  15.361 -16.139  1.00  0.00     0.029 A 
HETATM   43  C29 UNL     1      -5.397  14.712 -16.845  1.00  0.00     0.018 A 
HETATM   44  C30 UNL     1      -6.168  15.402 -17.781  1.00  0.00     0.026 A 
BRANCH  42  45
HETATM   45  C28 UNL     1      -3.588  14.663 -15.158  1.00  0.00     0.264 C 
HETATM   46  N5  UNL     1      -2.296  15.034 -14.780  1.00  0.00    -0.057 NA
HETATM   47  O6  UNL     1      -4.130  13.628 -14.624  1.00  0.00    -0.271 OA
ENDBRANCH  42  45
ENDBRANCH  36  39
ENDBRANCH  28  36
ENDBRANCH   7  28
TORSDOF 12
ENDMDL
