MODEL 10
REMARK VINA RESULT: -9.576897557      1.949      5.577
REMARK  12 active torsions:
REMARK  status: ('A' for Active; 'I' for Inactive)
REMARK    1  A    between atoms: C1_2  and  C2_4 
REMARK    2  A    between atoms: C5_7  and  S1_8 
REMARK    3  A    between atoms: S1_8  and  N2_11 
REMARK    4  A    between atoms: N2_11  and  C6_12 
REMARK    5  A    between atoms: N2_11  and  C13_19 
REMARK    6  A    between atoms: C6_12  and  C7_13 
REMARK    7  A    between atoms: C16_25  and  N4_26 
REMARK    8  A    between atoms: N4_26  and  C17_27 
REMARK    9  A    between atoms: N4_26  and  S2_34 
REMARK   10  A    between atoms: C17_27  and  C18_28 
REMARK   11  A    between atoms: S2_34  and  C24_37 
REMARK   12  A    between atoms: C27_40  and  C28_41 
ROOT
HETATM    1  C13 UNL     1     -11.563  18.509 -16.625  1.00  0.00     0.152 C 
HETATM    2  C14 UNL     1     -11.988  17.242 -17.323  1.00  0.00     0.260 C 
HETATM    3  N3  UNL     1     -11.958  17.634 -18.740  1.00  0.00    -0.071 N 
ATOM      4  H31 UNL     1     -12.354  16.960 -19.395  1.00  0.00     0.277 HD
ATOM      5  H32 UNL     1     -11.038  17.644 -19.178  1.00  0.00     0.277 HD
HETATM    6  C15 UNL     1     -12.624  18.891 -18.666  1.00  0.00     0.260 C 
HETATM    7  C16 UNL     1     -11.992  19.618 -17.560  1.00  0.00     0.152 C 
ENDROOT
BRANCH   1   8
HETATM    8  N2  UNL     1     -11.904  18.616 -15.283  1.00  0.00    -0.273 N 
BRANCH   8   9
HETATM    9  S1  UNL     1     -11.152  17.740 -14.089  1.00  0.00     0.265 S 
HETATM   10  O2  UNL     1     -11.075  18.359 -12.729  1.00  0.00    -0.200 OA
HETATM   11  O3  UNL     1     -11.771  16.359 -13.857  1.00  0.00    -0.200 OA
BRANCH   9  12
HETATM   12  C5  UNL     1      -9.496  17.387 -14.556  1.00  0.00     0.080 A 
HETATM   13  C4  UNL     1      -8.524  18.358 -14.534  1.00  0.00     0.026 A 
HETATM   14  C3  UNL     1      -7.235  18.032 -14.926  1.00  0.00     0.018 A 
HETATM   15  C2  UNL     1      -6.886  16.768 -15.339  1.00  0.00     0.029 A 
HETATM   16  C32 UNL     1      -7.865  15.776 -15.365  1.00  0.00     0.018 A 
HETATM   17  C31 UNL     1      -9.124  16.120 -14.976  1.00  0.00     0.026 A 
BRANCH  15  18
HETATM   18  C1  UNL     1      -5.538  16.415 -15.750  1.00  0.00     0.264 C 
HETATM   19  N1  UNL     1      -5.152  15.064 -15.875  1.00  0.00    -0.057 NA
HETATM   20  O1  UNL     1      -4.703  17.308 -15.999  1.00  0.00    -0.271 OA
ENDBRANCH  15  18
ENDBRANCH   9  12
ENDBRANCH   8   9
BRANCH   8  21
HETATM   21  C6  UNL     1     -12.093  19.977 -14.890  1.00  0.00     0.115 C 
BRANCH  21  22
HETATM   22  C7  UNL     1     -13.451  20.468 -14.768  1.00  0.00    -0.020 A 
HETATM   23  C8  UNL     1     -14.534  19.756 -15.204  1.00  0.00     0.013 A 
HETATM   24  C9  UNL     1     -15.836  20.258 -15.087  1.00  0.00     0.001 A 
HETATM   25  C10 UNL     1     -16.014  21.509 -14.515  1.00  0.00     0.000 A 
HETATM   26  C11 UNL     1     -14.921  22.233 -14.073  1.00  0.00     0.001 A 
HETATM   27  C12 UNL     1     -13.671  21.702 -14.205  1.00  0.00     0.013 A 
ENDBRANCH  21  22
ENDBRANCH   8  21
ENDBRANCH   1   8
BRANCH   7  28
HETATM   28  N4  UNL     1     -10.987  20.542 -17.816  1.00  0.00    -0.273 N 
BRANCH  28  29
HETATM   29  C17 UNL     1      -9.628  20.280 -17.707  1.00  0.00     0.115 C 
BRANCH  29  30
HETATM   30  C18 UNL     1      -9.112  19.247 -18.675  1.00  0.00    -0.020 A 
HETATM   31  C19 UNL     1      -8.535  18.086 -18.203  1.00  0.00     0.013 A 
HETATM   32  C20 UNL     1      -8.041  17.110 -19.042  1.00  0.00     0.001 A 
HETATM   33  C21 UNL     1      -8.109  17.263 -20.407  1.00  0.00     0.000 A 
HETATM   34  C22 UNL     1      -8.685  18.420 -20.894  1.00  0.00     0.001 A 
HETATM   35  C23 UNL     1      -9.185  19.408 -20.040  1.00  0.00     0.013 A 
ENDBRANCH  29  30
ENDBRANCH  28  29
BRANCH  28  36
HETATM   36  S2  UNL     1     -11.380  21.593 -19.124  1.00  0.00     0.265 S 
HETATM   37  O4  UNL     1     -10.369  22.732 -19.157  1.00  0.00    -0.200 OA
HETATM   38  O5  UNL     1     -11.228  20.912 -20.455  1.00  0.00    -0.200 OA
BRANCH  36  39
HETATM   39  C24 UNL     1     -12.990  22.253 -19.011  1.00  0.00     0.080 A 
HETATM   40  C25 UNL     1     -13.580  22.797 -20.125  1.00  0.00     0.026 A 
HETATM   41  C26 UNL     1     -14.850  23.326 -20.034  1.00  0.00     0.018 A 
HETATM   42  C27 UNL     1     -15.573  23.334 -18.846  1.00  0.00     0.029 A 
HETATM   43  C29 UNL     1     -14.972  22.787 -17.740  1.00  0.00     0.018 A 
HETATM   44  C30 UNL     1     -13.688  22.250 -17.825  1.00  0.00     0.026 A 
BRANCH  42  45
HETATM   45  C28 UNL     1     -16.914  23.908 -18.785  1.00  0.00     0.264 C 
HETATM   46  N5  UNL     1     -17.662  24.090 -17.619  1.00  0.00    -0.057 NA
HETATM   47  O6  UNL     1     -17.410  24.262 -19.916  1.00  0.00    -0.271 OA
ENDBRANCH  42  45
ENDBRANCH  36  39
ENDBRANCH  28  36
ENDBRANCH   7  28
TORSDOF 12
ENDMDL
