MODEL 5
REMARK VINA RESULT: -11.118644249      1.220      4.936
REMARK  10 active torsions:
REMARK  status: ('A' for Active; 'I' for Inactive)
REMARK    1  A    between atoms: C4_5  and  S1_6 
REMARK    2  A    between atoms: S1_6  and  N2_9 
REMARK    3  A    between atoms: N2_9  and  C5_10 
REMARK    4  A    between atoms: N2_9  and  C12_17 
REMARK    5  A    between atoms: C5_10  and  C6_11 
REMARK    6  A    between atoms: C15_23  and  N4_24 
REMARK    7  A    between atoms: N4_24  and  C16_25 
REMARK    8  A    between atoms: N4_24  and  S2_32 
REMARK    9  A    between atoms: C16_25  and  C17_26 
REMARK   10  A    between atoms: S2_32  and  C23_35 
ROOT
HETATM    1  C12 UNL     1     -12.451 -20.135  18.098  1.00  0.00     0.152 C 
HETATM    2  C13 UNL     1     -13.577 -19.552  18.923  1.00  0.00     0.260 C 
HETATM    3  N3  UNL     1     -13.603 -18.144  18.730  1.00  0.00    -0.071 N 
ATOM      4  H31 UNL     1     -13.423 -17.635  19.595  1.00  0.00     0.277 HD
ATOM      5  H32 UNL     1     -14.545 -17.799  18.548  1.00  0.00     0.277 HD
HETATM    6  C14 UNL     1     -12.691 -17.782  17.697  1.00  0.00     0.260 C 
HETATM    7  C15 UNL     1     -11.984 -19.023  17.207  1.00  0.00     0.152 C 
ENDROOT
BRANCH   1   8
HETATM    8  N2  UNL     1     -11.390 -20.702  18.865  1.00  0.00    -0.273 N 
BRANCH   8   9
HETATM    9  S1  UNL     1     -11.261 -22.390  18.837  1.00  0.00     0.265 S 
HETATM   10  O1  UNL     1     -11.071 -22.851  17.413  1.00  0.00    -0.200 OA
HETATM   11  O2  UNL     1     -10.080 -22.894  19.635  1.00  0.00    -0.200 OA
BRANCH   9  12
HETATM   12  C4  UNL     1     -12.689 -23.197  19.456  1.00  0.00     0.080 A 
HETATM   13  C3  UNL     1     -13.478 -24.038  18.701  1.00  0.00     0.027 A 
HETATM   14  C2  UNL     1     -14.597 -24.662  19.211  1.00  0.00     0.028 A 
HETATM   15  C1  UNL     1     -14.968 -24.459  20.529  1.00  0.00     0.046 A 
HETATM   16  N1  UNL     1     -16.130 -25.102  21.073  1.00  0.00    -0.102 NA
HETATM   17  C30 UNL     1     -14.190 -23.620  21.301  1.00  0.00     0.028 A 
HETATM   18  C29 UNL     1     -13.075 -23.006  20.771  1.00  0.00     0.027 A 
ENDBRANCH   9  12
ENDBRANCH   8   9
BRANCH   8  19
HETATM   19  C5  UNL     1     -11.067 -20.105  20.100  1.00  0.00     0.115 C 
BRANCH  19  20
HETATM   20  C6  UNL     1      -9.789 -19.309  19.991  1.00  0.00    -0.020 A 
HETATM   21  C7  UNL     1      -9.426 -18.408  20.966  1.00  0.00     0.013 A 
HETATM   22  C8  UNL     1      -8.249 -17.667  20.872  1.00  0.00     0.001 A 
HETATM   23  C9  UNL     1      -7.419 -17.824  19.792  1.00  0.00     0.000 A 
HETATM   24  C10 UNL     1      -7.761 -18.711  18.816  1.00  0.00     0.001 A 
HETATM   25  C11 UNL     1      -8.941 -19.452  18.913  1.00  0.00     0.013 A 
ENDBRANCH  19  20
ENDBRANCH   8  19
ENDBRANCH   1   8
BRANCH   7  26
HETATM   26  N4  UNL     1     -12.000 -19.247  15.848  1.00  0.00    -0.273 N 
BRANCH  26  27
HETATM   27  C16 UNL     1     -12.416 -20.507  15.400  1.00  0.00     0.115 C 
BRANCH  27  28
HETATM   28  C17 UNL     1     -13.834 -20.822  15.377  1.00  0.00    -0.020 A 
HETATM   29  C18 UNL     1     -14.265 -22.117  15.429  1.00  0.00     0.013 A 
HETATM   30  C19 UNL     1     -15.597 -22.481  15.408  1.00  0.00     0.001 A 
HETATM   31  C20 UNL     1     -16.544 -21.509  15.330  1.00  0.00     0.000 A 
HETATM   32  C21 UNL     1     -16.161 -20.191  15.275  1.00  0.00     0.001 A 
HETATM   33  C22 UNL     1     -14.797 -19.847  15.299  1.00  0.00     0.013 A 
ENDBRANCH  27  28
ENDBRANCH  26  27
BRANCH  26  34
HETATM   34  S2  UNL     1     -11.278 -18.303  14.711  1.00  0.00     0.265 S 
HETATM   35  O3  UNL     1     -12.114 -17.136  14.214  1.00  0.00    -0.200 OA
HETATM   36  O4  UNL     1     -11.095 -19.133  13.438  1.00  0.00    -0.200 OA
BRANCH  34  37
HETATM   37  C23 UNL     1      -9.661 -17.709  15.085  1.00  0.00     0.080 A 
HETATM   38  C24 UNL     1      -8.588 -18.424  14.586  1.00  0.00     0.027 A 
HETATM   39  C25 UNL     1      -7.320 -17.976  14.871  1.00  0.00     0.028 A 
HETATM   40  C26 UNL     1      -7.093 -16.839  15.637  1.00  0.00     0.046 A 
HETATM   41  N5  UNL     1      -5.744 -16.431  15.895  1.00  0.00    -0.102 NA
HETATM   42  C27 UNL     1      -8.169 -16.138  16.126  1.00  0.00     0.028 A 
HETATM   43  C28 UNL     1      -9.445 -16.574  15.849  1.00  0.00     0.027 A 
ENDBRANCH  34  37
ENDBRANCH  26  34
ENDBRANCH   7  26
TORSDOF 10
ENDMDL
