MODEL 2
REMARK VINA RESULT: -11.427408842      1.779      8.460
REMARK  10 active torsions:
REMARK  status: ('A' for Active; 'I' for Inactive)
REMARK    1  A    between atoms: C4_5  and  S1_6 
REMARK    2  A    between atoms: S1_6  and  N2_9 
REMARK    3  A    between atoms: N2_9  and  C5_10 
REMARK    4  A    between atoms: N2_9  and  C12_17 
REMARK    5  A    between atoms: C5_10  and  C6_11 
REMARK    6  A    between atoms: C15_23  and  N4_24 
REMARK    7  A    between atoms: N4_24  and  C16_25 
REMARK    8  A    between atoms: N4_24  and  S2_32 
REMARK    9  A    between atoms: C16_25  and  C17_26 
REMARK   10  A    between atoms: S2_32  and  C23_35 
ROOT
HETATM    1  C12 UNL     1     -12.580 -19.865  17.282  1.00  0.00     0.152 C 
HETATM    2  C13 UNL     1     -12.824 -18.466  17.804  1.00  0.00     0.260 C 
HETATM    3  N3  UNL     1     -13.897 -18.507  18.734  1.00  0.00    -0.071 N 
ATOM      4  H31 UNL     1     -14.695 -17.952  18.424  1.00  0.00     0.277 HD
ATOM      5  H32 UNL     1     -13.683 -17.993  19.589  1.00  0.00     0.277 HD
HETATM    6  C14 UNL     1     -14.257 -19.860  18.997  1.00  0.00     0.260 C 
HETATM    7  C15 UNL     1     -13.397 -20.770  18.153  1.00  0.00     0.152 C 
ENDROOT
BRANCH   1   8
HETATM    8  N2  UNL     1     -12.868 -20.036  15.895  1.00  0.00    -0.273 N 
BRANCH   8   9
HETATM    9  S1  UNL     1     -11.550 -19.947  14.836  1.00  0.00     0.265 S 
HETATM   10  O1  UNL     1     -10.553 -21.022  15.192  1.00  0.00    -0.200 OA
HETATM   11  O2  UNL     1     -11.949 -20.163  13.395  1.00  0.00    -0.200 OA
BRANCH   9  12
HETATM   12  C4  UNL     1     -10.706 -18.413  14.918  1.00  0.00     0.080 A 
HETATM   13  C3  UNL     1      -9.631 -18.176  15.746  1.00  0.00     0.027 A 
HETATM   14  C2  UNL     1      -8.983 -16.959  15.793  1.00  0.00     0.028 A 
HETATM   15  C1  UNL     1      -9.403 -15.915  14.987  1.00  0.00     0.046 A 
HETATM   16  N1  UNL     1      -8.739 -14.644  15.024  1.00  0.00    -0.102 NA
HETATM   17  C30 UNL     1     -10.480 -16.133  14.150  1.00  0.00     0.028 A 
HETATM   18  C29 UNL     1     -11.113 -17.358  14.119  1.00  0.00     0.027 A 
ENDBRANCH   9  12
ENDBRANCH   8   9
BRANCH   8  19
HETATM   19  C5  UNL     1     -14.067 -19.493  15.391  1.00  0.00     0.115 C 
BRANCH  19  20
HETATM   20  C6  UNL     1     -15.114 -20.569  15.230  1.00  0.00    -0.020 A 
HETATM   21  C7  UNL     1     -14.763 -21.872  14.964  1.00  0.00     0.013 A 
HETATM   22  C8  UNL     1     -15.723 -22.870  14.813  1.00  0.00     0.001 A 
HETATM   23  C9  UNL     1     -17.055 -22.569  14.927  1.00  0.00     0.000 A 
HETATM   24  C10 UNL     1     -17.425 -21.284  15.190  1.00  0.00     0.001 A 
HETATM   25  C11 UNL     1     -16.460 -20.286  15.341  1.00  0.00     0.013 A 
ENDBRANCH  19  20
ENDBRANCH   8  19
ENDBRANCH   1   8
BRANCH   7  26
HETATM   26  N4  UNL     1     -12.738 -21.784  18.813  1.00  0.00    -0.273 N 
BRANCH  26  27
HETATM   27  C16 UNL     1     -13.134 -23.100  18.547  1.00  0.00     0.115 C 
BRANCH  27  28
HETATM   28  C17 UNL     1     -14.383 -23.593  19.102  1.00  0.00    -0.020 A 
HETATM   29  C18 UNL     1     -14.414 -24.203  20.325  1.00  0.00     0.013 A 
HETATM   30  C19 UNL     1     -15.567 -24.694  20.905  1.00  0.00     0.001 A 
HETATM   31  C20 UNL     1     -16.744 -24.573  20.235  1.00  0.00     0.000 A 
HETATM   32  C21 UNL     1     -16.765 -23.967  19.003  1.00  0.00     0.001 A 
HETATM   33  C22 UNL     1     -15.576 -23.475  18.435  1.00  0.00     0.013 A 
ENDBRANCH  27  28
ENDBRANCH  26  27
BRANCH  26  34
HETATM   34  S2  UNL     1     -11.753 -21.599  20.118  1.00  0.00     0.265 S 
HETATM   35  O3  UNL     1     -11.062 -22.867  20.591  1.00  0.00    -0.200 OA
HETATM   36  O4  UNL     1     -12.616 -21.232  21.327  1.00  0.00    -0.200 OA
BRANCH  34  37
HETATM   37  C23 UNL     1     -10.551 -20.312  20.027  1.00  0.00     0.080 A 
HETATM   38  C24 UNL     1     -10.627 -19.303  20.970  1.00  0.00     0.027 A 
HETATM   39  C25 UNL     1      -9.700 -18.289  20.911  1.00  0.00     0.028 A 
HETATM   40  C26 UNL     1      -8.703 -18.255  19.944  1.00  0.00     0.046 A 
HETATM   41  N5  UNL     1      -7.771 -17.167  19.943  1.00  0.00    -0.102 NA
HETATM   42  C27 UNL     1      -8.640 -19.264  19.014  1.00  0.00     0.028 A 
HETATM   43  C28 UNL     1      -9.561 -20.286  19.059  1.00  0.00     0.027 A 
ENDBRANCH  34  37
ENDBRANCH  26  34
ENDBRANCH   7  26
TORSDOF 10
ENDMDL
