MODEL 3
REMARK VINA RESULT: -11.364285337      1.783      8.480
REMARK  10 active torsions:
REMARK  status: ('A' for Active; 'I' for Inactive)
REMARK    1  A    between atoms: C4_5  and  S1_6 
REMARK    2  A    between atoms: S1_6  and  N2_9 
REMARK    3  A    between atoms: N2_9  and  C5_10 
REMARK    4  A    between atoms: N2_9  and  C12_17 
REMARK    5  A    between atoms: C5_10  and  C6_11 
REMARK    6  A    between atoms: C15_23  and  N4_24 
REMARK    7  A    between atoms: N4_24  and  C16_25 
REMARK    8  A    between atoms: N4_24  and  S2_32 
REMARK    9  A    between atoms: C16_25  and  C17_26 
REMARK   10  A    between atoms: S2_32  and  C23_35 
ROOT
HETATM    1  C12 UNL     1     -12.586 -19.862  17.299  1.00  0.00     0.152 C 
HETATM    2  C13 UNL     1     -12.843 -18.467  17.823  1.00  0.00     0.260 C 
HETATM    3  N3  UNL     1     -13.930 -18.515  18.738  1.00  0.00    -0.071 N 
ATOM      4  H31 UNL     1     -14.725 -17.962  18.419  1.00  0.00     0.277 HD
ATOM      5  H32 UNL     1     -13.730 -18.005  19.598  1.00  0.00     0.277 HD
HETATM    6  C14 UNL     1     -14.288 -19.871  18.990  1.00  0.00     0.260 C 
HETATM    7  C15 UNL     1     -13.413 -20.774  18.154  1.00  0.00     0.152 C 
ENDROOT
BRANCH   1   8
HETATM    8  N2  UNL     1     -12.854 -20.027  15.906  1.00  0.00    -0.273 N 
BRANCH   8   9
HETATM    9  S1  UNL     1     -11.521 -19.928  14.867  1.00  0.00     0.265 S 
HETATM   10  O1  UNL     1     -10.534 -21.014  15.220  1.00  0.00    -0.200 OA
HETATM   11  O2  UNL     1     -11.902 -20.119  13.417  1.00  0.00    -0.200 OA
BRANCH   9  12
HETATM   12  C4  UNL     1     -10.672 -18.399  14.985  1.00  0.00     0.080 A 
HETATM   13  C3  UNL     1      -9.674 -18.149  15.902  1.00  0.00     0.027 A 
HETATM   14  C2  UNL     1      -9.019 -16.938  15.975  1.00  0.00     0.028 A 
HETATM   15  C1  UNL     1      -9.352 -15.912  15.106  1.00  0.00     0.046 A 
HETATM   16  N1  UNL     1      -8.680 -14.647  15.170  1.00  0.00    -0.102 NA
HETATM   17  C30 UNL     1     -10.350 -16.144  14.180  1.00  0.00     0.028 A 
HETATM   18  C29 UNL     1     -10.991 -17.364  14.125  1.00  0.00     0.027 A 
ENDBRANCH   9  12
ENDBRANCH   8   9
BRANCH   8  19
HETATM   19  C5  UNL     1     -14.048 -19.487  15.388  1.00  0.00     0.115 C 
BRANCH  19  20
HETATM   20  C6  UNL     1     -15.095 -20.562  15.225  1.00  0.00    -0.020 A 
HETATM   21  C7  UNL     1     -16.436 -20.274  15.338  1.00  0.00     0.013 A 
HETATM   22  C8  UNL     1     -17.408 -21.261  15.190  1.00  0.00     0.001 A 
HETATM   23  C9  UNL     1     -17.044 -22.556  14.927  1.00  0.00     0.000 A 
HETATM   24  C10 UNL     1     -15.721 -22.862  14.812  1.00  0.00     0.001 A 
HETATM   25  C11 UNL     1     -14.749 -21.870  14.960  1.00  0.00     0.013 A 
ENDBRANCH  19  20
ENDBRANCH   8  19
ENDBRANCH   1   8
BRANCH   7  26
HETATM   26  N4  UNL     1     -12.759 -21.789  18.818  1.00  0.00    -0.273 N 
BRANCH  26  27
HETATM   27  C16 UNL     1     -13.152 -23.105  18.546  1.00  0.00     0.115 C 
BRANCH  27  28
HETATM   28  C17 UNL     1     -14.384 -23.613  19.124  1.00  0.00    -0.020 A 
HETATM   29  C18 UNL     1     -15.574 -23.477  18.466  1.00  0.00     0.013 A 
HETATM   30  C19 UNL     1     -16.778 -23.935  18.963  1.00  0.00     0.001 A 
HETATM   31  C20 UNL     1     -16.798 -24.558  20.172  1.00  0.00     0.000 A 
HETATM   32  C21 UNL     1     -15.628 -24.719  20.871  1.00  0.00     0.001 A 
HETATM   33  C22 UNL     1     -14.414 -24.243  20.342  1.00  0.00     0.013 A 
ENDBRANCH  27  28
ENDBRANCH  26  27
BRANCH  26  34
HETATM   34  S2  UNL     1     -11.787 -21.605  20.132  1.00  0.00     0.265 S 
HETATM   35  O3  UNL     1     -11.080 -22.868  20.594  1.00  0.00    -0.200 OA
HETATM   36  O4  UNL     1     -12.665 -21.267  21.340  1.00  0.00    -0.200 OA
BRANCH  34  37
HETATM   37  C23 UNL     1     -10.605 -20.298  20.068  1.00  0.00     0.080 A 
HETATM   38  C24 UNL     1      -9.611 -20.385  19.109  1.00  0.00     0.027 A 
HETATM   39  C25 UNL     1      -8.680 -19.376  19.048  1.00  0.00     0.028 A 
HETATM   40  C26 UNL     1      -8.712 -18.287  19.911  1.00  0.00     0.046 A 
HETATM   41  N5  UNL     1      -7.708 -17.273  19.789  1.00  0.00    -0.102 NA
HETATM   42  C27 UNL     1      -9.705 -18.214  20.857  1.00  0.00     0.028 A 
HETATM   43  C28 UNL     1     -10.645 -19.217  20.932  1.00  0.00     0.027 A 
ENDBRANCH  34  37
ENDBRANCH  26  34
ENDBRANCH   7  26
TORSDOF 10
ENDMDL
