MODEL 1
REMARK VINA RESULT: -12.037406776      0.000      0.000
REMARK  10 active torsions:
REMARK  status: ('A' for Active; 'I' for Inactive)
REMARK    1  A    between atoms: C4_5  and  S1_6 
REMARK    2  A    between atoms: S1_6  and  N2_9 
REMARK    3  A    between atoms: N2_9  and  C5_10 
REMARK    4  A    between atoms: N2_9  and  C12_17 
REMARK    5  A    between atoms: C5_10  and  C6_11 
REMARK    6  A    between atoms: C15_23  and  N4_24 
REMARK    7  A    between atoms: N4_24  and  C16_25 
REMARK    8  A    between atoms: N4_24  and  S2_32 
REMARK    9  A    between atoms: C16_25  and  C17_26 
REMARK   10  A    between atoms: S2_32  and  C23_35 
ROOT
HETATM    1  C12 UNL     1     -12.134 -20.063  17.912  1.00  0.00     0.152 C 
HETATM    2  C13 UNL     1     -13.290 -19.342  18.570  1.00  0.00     0.260 C 
HETATM    3  N3  UNL     1     -13.178 -17.953  18.296  1.00  0.00    -0.071 N 
ATOM      4  H31 UNL     1     -13.051 -17.403  19.146  1.00  0.00     0.277 HD
ATOM      5  H32 UNL     1     -14.063 -17.550  17.989  1.00  0.00     0.277 HD
HETATM    6  C14 UNL     1     -12.133 -17.730  17.354  1.00  0.00     0.260 C 
HETATM    7  C15 UNL     1     -11.483 -19.051  17.019  1.00  0.00     0.152 C 
ENDROOT
BRANCH   1   8
HETATM    8  N2  UNL     1     -11.213 -20.658  18.826  1.00  0.00    -0.273 N 
BRANCH   8   9
HETATM    9  S1  UNL     1     -11.128 -22.349  18.814  1.00  0.00     0.265 S 
HETATM   10  O1  UNL     1     -10.953 -22.828  17.394  1.00  0.00    -0.200 OA
HETATM   11  O2  UNL     1      -9.959 -22.875  19.615  1.00  0.00    -0.200 OA
BRANCH   9  12
HETATM   12  C4  UNL     1     -12.575 -23.113  19.442  1.00  0.00     0.080 A 
HETATM   13  C3  UNL     1     -13.397 -23.925  18.691  1.00  0.00     0.027 A 
HETATM   14  C2  UNL     1     -14.531 -24.515  19.208  1.00  0.00     0.028 A 
HETATM   15  C1  UNL     1     -14.884 -24.307  20.531  1.00  0.00     0.046 A 
HETATM   16  N1  UNL     1     -16.060 -24.914  21.082  1.00  0.00    -0.102 NA
HETATM   17  C30 UNL     1     -14.072 -23.496  21.299  1.00  0.00     0.028 A 
HETATM   18  C29 UNL     1     -12.943 -22.915  20.762  1.00  0.00     0.027 A 
ENDBRANCH   9  12
ENDBRANCH   8   9
BRANCH   8  19
HETATM   19  C5  UNL     1     -11.059 -20.068  20.097  1.00  0.00     0.115 C 
BRANCH  19  20
HETATM   20  C6  UNL     1      -9.756 -19.310  20.180  1.00  0.00    -0.020 A 
HETATM   21  C7  UNL     1      -9.512 -18.423  21.203  1.00  0.00     0.013 A 
HETATM   22  C8  UNL     1      -8.312 -17.718  21.286  1.00  0.00     0.001 A 
HETATM   23  C9  UNL     1      -7.339 -17.897  20.337  1.00  0.00     0.000 A 
HETATM   24  C10 UNL     1      -7.561 -18.772  19.316  1.00  0.00     0.001 A 
HETATM   25  C11 UNL     1      -8.764 -19.477  19.236  1.00  0.00     0.013 A 
ENDBRANCH  19  20
ENDBRANCH   8  19
ENDBRANCH   1   8
BRANCH   7  26
HETATM   26  N4  UNL     1     -11.369 -19.363  15.682  1.00  0.00    -0.273 N 
BRANCH  26  27
HETATM   27  C16 UNL     1     -10.085 -19.395  15.126  1.00  0.00     0.115 C 
BRANCH  27  28
HETATM   28  C17 UNL     1      -9.340 -18.156  14.984  1.00  0.00    -0.020 A 
HETATM   29  C18 UNL     1      -8.053 -18.057  15.433  1.00  0.00     0.013 A 
HETATM   30  C19 UNL     1      -7.294 -16.908  15.330  1.00  0.00     0.001 A 
HETATM   31  C20 UNL     1      -7.842 -15.806  14.753  1.00  0.00     0.000 A 
HETATM   32  C21 UNL     1      -9.132 -15.855  14.285  1.00  0.00     0.001 A 
HETATM   33  C22 UNL     1      -9.884 -17.039  14.403  1.00  0.00     0.013 A 
ENDBRANCH  27  28
ENDBRANCH  26  27
BRANCH  26  34
HETATM   34  S2  UNL     1     -12.603 -19.386  14.594  1.00  0.00     0.265 S 
HETATM   35  O3  UNL     1     -12.197 -19.691  13.162  1.00  0.00    -0.200 OA
HETATM   36  O4  UNL     1     -13.170 -17.970  14.474  1.00  0.00    -0.200 OA
BRANCH  34  37
HETATM   37  C23 UNL     1     -13.998 -20.386  14.999  1.00  0.00     0.080 A 
HETATM   38  C24 UNL     1     -15.196 -19.738  15.243  1.00  0.00     0.027 A 
HETATM   39  C25 UNL     1     -16.292 -20.503  15.565  1.00  0.00     0.028 A 
HETATM   40  C26 UNL     1     -16.229 -21.888  15.648  1.00  0.00     0.046 A 
HETATM   41  N5  UNL     1     -17.412 -22.620  15.989  1.00  0.00    -0.102 NA
HETATM   42  C27 UNL     1     -15.032 -22.518  15.403  1.00  0.00     0.028 A 
HETATM   43  C28 UNL     1     -13.925 -21.767  15.080  1.00  0.00     0.027 A 
ENDBRANCH  34  37
ENDBRANCH  26  34
ENDBRANCH   7  26
TORSDOF 10
ENDMDL
