MODEL 4
REMARK VINA RESULT: -11.175518787      1.431      7.143
REMARK  10 active torsions:
REMARK  status: ('A' for Active; 'I' for Inactive)
REMARK    1  A    between atoms: C4_5  and  S1_6 
REMARK    2  A    between atoms: S1_6  and  N2_9 
REMARK    3  A    between atoms: N2_9  and  C5_10 
REMARK    4  A    between atoms: N2_9  and  C12_17 
REMARK    5  A    between atoms: C5_10  and  C6_11 
REMARK    6  A    between atoms: C15_23  and  N4_24 
REMARK    7  A    between atoms: N4_24  and  C16_25 
REMARK    8  A    between atoms: N4_24  and  S2_32 
REMARK    9  A    between atoms: C16_25  and  C17_26 
REMARK   10  A    between atoms: S2_32  and  C23_35 
ROOT
HETATM    1  C12 UNL     1     -12.547 -19.451  17.190  1.00  0.00     0.152 C 
HETATM    2  C13 UNL     1     -13.264 -18.242  17.751  1.00  0.00     0.260 C 
HETATM    3  N3  UNL     1     -14.181 -18.677  18.745  1.00  0.00    -0.071 N 
ATOM      4  H31 UNL     1     -15.147 -18.463  18.496  1.00  0.00     0.277 HD
ATOM      5  H32 UNL     1     -14.121 -18.115  19.594  1.00  0.00     0.277 HD
HETATM    6  C14 UNL     1     -13.990 -20.064  19.006  1.00  0.00     0.260 C 
HETATM    7  C15 UNL     1     -12.908 -20.590  18.093  1.00  0.00     0.152 C 
ENDROOT
BRANCH   1   8
HETATM    8  N2  UNL     1     -12.839 -19.726  15.820  1.00  0.00    -0.273 N 
BRANCH   8   9
HETATM    9  S1  UNL     1     -11.535 -19.652  14.743  1.00  0.00     0.265 S 
HETATM   10  O1  UNL     1     -10.627 -20.834  14.981  1.00  0.00    -0.200 OA
HETATM   11  O2  UNL     1     -11.973 -19.704  13.298  1.00  0.00    -0.200 OA
BRANCH   9  12
HETATM   12  C4  UNL     1     -10.564 -18.206  14.940  1.00  0.00     0.080 A 
HETATM   13  C3  UNL     1      -9.489 -18.119  15.798  1.00  0.00     0.027 A 
HETATM   14  C2  UNL     1      -8.739 -16.970  15.935  1.00  0.00     0.028 A 
HETATM   15  C1  UNL     1      -9.052 -15.842  15.195  1.00  0.00     0.046 A 
HETATM   16  N1  UNL     1      -8.281 -14.640  15.327  1.00  0.00    -0.102 NA
HETATM   17  C30 UNL     1     -10.125 -15.910  14.330  1.00  0.00     0.028 A 
HETATM   18  C29 UNL     1     -10.861 -17.070  14.208  1.00  0.00     0.027 A 
ENDBRANCH   9  12
ENDBRANCH   8   9
BRANCH   8  19
HETATM   19  C5  UNL     1     -14.065 -19.270  15.295  1.00  0.00     0.115 C 
BRANCH  19  20
HETATM   20  C6  UNL     1     -15.070 -20.394  15.230  1.00  0.00    -0.020 A 
HETATM   21  C7  UNL     1     -14.668 -21.703  15.093  1.00  0.00     0.013 A 
HETATM   22  C8  UNL     1     -15.590 -22.746  15.031  1.00  0.00     0.001 A 
HETATM   23  C9  UNL     1     -16.933 -22.486  15.107  1.00  0.00     0.000 A 
HETATM   24  C10 UNL     1     -17.353 -21.196  15.243  1.00  0.00     0.001 A 
HETATM   25  C11 UNL     1     -16.426 -20.153  15.305  1.00  0.00     0.013 A 
ENDBRANCH  19  20
ENDBRANCH   8  19
ENDBRANCH   1   8
BRANCH   7  26
HETATM   26  N4  UNL     1     -11.875 -21.279  18.692  1.00  0.00    -0.273 N 
BRANCH  26  27
HETATM   27  C16 UNL     1     -10.571 -20.826  18.463  1.00  0.00     0.115 C 
BRANCH  27  28
HETATM   28  C17 UNL     1      -9.958 -19.911  19.410  1.00  0.00    -0.020 A 
HETATM   29  C18 UNL     1      -8.702 -19.417  19.196  1.00  0.00     0.013 A 
HETATM   30  C19 UNL     1      -8.065 -18.548  20.059  1.00  0.00     0.001 A 
HETATM   31  C20 UNL     1      -8.709 -18.151  21.189  1.00  0.00     0.000 A 
HETATM   32  C21 UNL     1      -9.974 -18.619  21.449  1.00  0.00     0.001 A 
HETATM   33  C22 UNL     1     -10.601 -19.504  20.553  1.00  0.00     0.013 A 
ENDBRANCH  27  28
ENDBRANCH  26  27
BRANCH  26  34
HETATM   34  S2  UNL     1     -11.988 -22.766  19.387  1.00  0.00     0.265 S 
HETATM   35  O3  UNL     1     -11.136 -22.966  20.628  1.00  0.00    -0.200 OA
HETATM   36  O4  UNL     1     -11.399 -23.797  18.421  1.00  0.00    -0.200 OA
BRANCH  34  37
HETATM   37  C23 UNL     1     -13.613 -23.360  19.727  1.00  0.00     0.080 A 
HETATM   38  C24 UNL     1     -13.958 -23.547  21.053  1.00  0.00     0.027 A 
HETATM   39  C25 UNL     1     -15.220 -24.013  21.335  1.00  0.00     0.028 A 
HETATM   40  C26 UNL     1     -16.144 -24.297  20.336  1.00  0.00     0.046 A 
HETATM   41  N5  UNL     1     -17.441 -24.780  20.704  1.00  0.00    -0.102 NA
HETATM   42  C27 UNL     1     -15.787 -24.106  19.023  1.00  0.00     0.028 A 
HETATM   43  C28 UNL     1     -14.527 -23.640  18.724  1.00  0.00     0.027 A 
ENDBRANCH  34  37
ENDBRANCH  26  34
ENDBRANCH   7  26
TORSDOF 10
ENDMDL
