MODEL 4
REMARK VINA RESULT: -10.897113223      1.311      7.108
REMARK  10 active torsions:
REMARK  status: ('A' for Active; 'I' for Inactive)
REMARK    1  A    between atoms: C4_5  and  S1_6 
REMARK    2  A    between atoms: S1_6  and  N2_9 
REMARK    3  A    between atoms: N2_9  and  C5_10 
REMARK    4  A    between atoms: N2_9  and  C12_17 
REMARK    5  A    between atoms: C5_10  and  C6_11 
REMARK    6  A    between atoms: C15_23  and  N4_24 
REMARK    7  A    between atoms: N4_24  and  C16_25 
REMARK    8  A    between atoms: N4_24  and  S2_32 
REMARK    9  A    between atoms: C16_25  and  C17_26 
REMARK   10  A    between atoms: S2_32  and  C23_35 
ROOT
HETATM    1  C12 UNL     1     -17.380  18.798  -6.432  1.00  0.00     0.152 C 
HETATM    2  C13 UNL     1     -16.708  17.589  -5.819  1.00  0.00     0.260 C 
HETATM    3  N3  UNL     1     -15.753  18.033  -4.865  1.00  0.00    -0.071 N 
ATOM      4  H31 UNL     1     -14.802  17.764  -5.118  1.00  0.00     0.277 HD
ATOM      5  H32 UNL     1     -15.823  17.520  -3.986  1.00  0.00     0.277 HD
HETATM    6  C14 UNL     1     -15.878  19.439  -4.675  1.00  0.00     0.260 C 
HETATM    7  C15 UNL     1     -16.952  19.966  -5.597  1.00  0.00     0.152 C 
ENDROOT
BRANCH   1   8
HETATM    8  N2  UNL     1     -17.102  18.987  -7.819  1.00  0.00    -0.273 N 
BRANCH   8   9
HETATM    9  S1  UNL     1     -18.371  18.664  -8.892  1.00  0.00     0.265 S 
HETATM   10  O1  UNL     1     -19.246  19.888  -9.009  1.00  0.00    -0.200 OA
HETATM   11  O2  UNL     1     -17.882  18.325 -10.282  1.00  0.00    -0.200 OA
BRANCH   9  12
HETATM   12  C4  UNL     1     -19.395  17.343  -8.365  1.00  0.00     0.080 A 
HETATM   13  C3  UNL     1     -19.184  16.027  -8.714  1.00  0.00     0.027 A 
HETATM   14  C2  UNL     1     -20.004  15.004  -8.286  1.00  0.00     0.028 A 
HETATM   15  C1  UNL     1     -21.091  15.277  -7.472  1.00  0.00     0.046 A 
HETATM   16  N1  UNL     1     -21.953  14.224  -7.020  1.00  0.00    -0.102 NA
HETATM   17  C30 UNL     1     -21.319  16.590  -7.113  1.00  0.00     0.028 A 
HETATM   18  C29 UNL     1     -20.486  17.597  -7.552  1.00  0.00     0.027 A 
ENDBRANCH   9  12
ENDBRANCH   8   9
BRANCH   8  19
HETATM   19  C5  UNL     1     -15.822  18.639  -8.297  1.00  0.00     0.115 C 
BRANCH  19  20
HETATM   20  C6  UNL     1     -14.955  19.865  -8.445  1.00  0.00    -0.020 A 
HETATM   21  C7  UNL     1     -15.331  20.911  -9.257  1.00  0.00     0.013 A 
HETATM   22  C8  UNL     1     -14.536  22.046  -9.401  1.00  0.00     0.001 A 
HETATM   23  C9  UNL     1     -13.346  22.145  -8.728  1.00  0.00     0.000 A 
HETATM   24  C10 UNL     1     -12.955  21.121  -7.918  1.00  0.00     0.001 A 
HETATM   25  C11 UNL     1     -13.755  19.985  -7.776  1.00  0.00     0.013 A 
ENDBRANCH  19  20
ENDBRANCH   8  19
ENDBRANCH   1   8
BRANCH   7  26
HETATM   26  N4  UNL     1     -17.942  20.731  -5.019  1.00  0.00    -0.273 N 
BRANCH  26  27
HETATM   27  C16 UNL     1     -19.249  20.230  -5.040  1.00  0.00     0.115 C 
BRANCH  27  28
HETATM   28  C17 UNL     1     -19.723  19.431  -3.923  1.00  0.00    -0.020 A 
HETATM   29  C18 UNL     1     -20.893  18.731  -4.008  1.00  0.00     0.013 A 
HETATM   30  C19 UNL     1     -21.398  17.957  -2.982  1.00  0.00     0.001 A 
HETATM   31  C20 UNL     1     -20.705  17.877  -1.815  1.00  0.00     0.000 A 
HETATM   32  C21 UNL     1     -19.522  18.562  -1.680  1.00  0.00     0.001 A 
HETATM   33  C22 UNL     1     -19.030  19.343  -2.742  1.00  0.00     0.013 A 
ENDBRANCH  27  28
ENDBRANCH  26  27
BRANCH  26  34
HETATM   34  S2  UNL     1     -17.806  22.314  -4.592  1.00  0.00     0.265 S 
HETATM   35  O3  UNL     1     -18.792  22.785  -3.537  1.00  0.00    -0.200 OA
HETATM   36  O4  UNL     1     -18.188  23.174  -5.798  1.00  0.00    -0.200 OA
BRANCH  34  37
HETATM   37  C23 UNL     1     -16.198  22.877  -4.141  1.00  0.00     0.080 A 
HETATM   38  C24 UNL     1     -15.986  23.205  -2.814  1.00  0.00     0.027 A 
HETATM   39  C25 UNL     1     -14.738  23.649  -2.447  1.00  0.00     0.028 A 
HETATM   40  C26 UNL     1     -13.700  23.775  -3.362  1.00  0.00     0.046 A 
HETATM   41  N5  UNL     1     -12.425  24.246  -2.907  1.00  0.00    -0.102 NA
HETATM   42  C27 UNL     1     -13.924  23.446  -4.676  1.00  0.00     0.028 A 
HETATM   43  C28 UNL     1     -15.168  23.000  -5.060  1.00  0.00     0.027 A 
ENDBRANCH  34  37
ENDBRANCH  26  34
ENDBRANCH   7  26
TORSDOF 10
ENDMDL
