MODEL 1
REMARK VINA RESULT: -11.235331205      0.000      0.000
REMARK  10 active torsions:
REMARK  status: ('A' for Active; 'I' for Inactive)
REMARK    1  A    between atoms: C4_5  and  S1_6 
REMARK    2  A    between atoms: S1_6  and  N2_9 
REMARK    3  A    between atoms: N2_9  and  C5_10 
REMARK    4  A    between atoms: N2_9  and  C12_17 
REMARK    5  A    between atoms: C5_10  and  C6_11 
REMARK    6  A    between atoms: C15_23  and  N4_24 
REMARK    7  A    between atoms: N4_24  and  C16_25 
REMARK    8  A    between atoms: N4_24  and  S2_32 
REMARK    9  A    between atoms: C16_25  and  C17_26 
REMARK   10  A    between atoms: S2_32  and  C23_35 
ROOT
HETATM    1  C12 UNL     1     -16.919  19.875  -5.357  1.00  0.00     0.152 C 
HETATM    2  C13 UNL     1     -15.787  19.133  -4.680  1.00  0.00     0.260 C 
HETATM    3  N3  UNL     1     -15.955  17.740  -4.905  1.00  0.00    -0.071 N 
ATOM      4  H31 UNL     1     -16.096  17.226  -4.036  1.00  0.00     0.277 HD
ATOM      5  H32 UNL     1     -15.087  17.293  -5.202  1.00  0.00     0.277 HD
HETATM    6  C14 UNL     1     -17.014  17.526  -5.833  1.00  0.00     0.260 C 
HETATM    7  C15 UNL     1     -17.615  18.858  -6.210  1.00  0.00     0.152 C 
ENDROOT
BRANCH   1   8
HETATM    8  N2  UNL     1     -17.810  20.537  -4.460  1.00  0.00    -0.273 N 
BRANCH   8   9
HETATM    9  S1  UNL     1     -17.820  22.229  -4.521  1.00  0.00     0.265 S 
HETATM   10  O1  UNL     1     -18.104  22.673  -5.935  1.00  0.00    -0.200 OA
HETATM   11  O2  UNL     1     -18.884  22.834  -3.635  1.00  0.00    -0.200 OA
BRANCH   9  12
HETATM   12  C4  UNL     1     -16.288  22.941  -4.054  1.00  0.00     0.080 A 
HETATM   13  C3  UNL     1     -15.199  23.031  -4.895  1.00  0.00     0.027 A 
HETATM   14  C2  UNL     1     -14.004  23.597  -4.505  1.00  0.00     0.028 A 
HETATM   15  C1  UNL     1     -13.859  24.105  -3.225  1.00  0.00     0.046 A 
HETATM   16  N1  UNL     1     -12.622  24.696  -2.805  1.00  0.00    -0.102 NA
HETATM   17  C30 UNL     1     -14.938  24.023  -2.367  1.00  0.00     0.028 A 
HETATM   18  C29 UNL     1     -16.125  23.454  -2.779  1.00  0.00     0.027 A 
ENDBRANCH   9  12
ENDBRANCH   8   9
BRANCH   8  19
HETATM   19  C5  UNL     1     -17.986  19.992  -3.172  1.00  0.00     0.115 C 
BRANCH  19  20
HETATM   20  C6  UNL     1     -19.329  19.311  -3.059  1.00  0.00    -0.020 A 
HETATM   21  C7  UNL     1     -19.650  18.546  -1.961  1.00  0.00     0.013 A 
HETATM   22  C8  UNL     1     -20.887  17.913  -1.850  1.00  0.00     0.001 A 
HETATM   23  C9  UNL     1     -21.820  18.041  -2.846  1.00  0.00     0.000 A 
HETATM   24  C10 UNL     1     -21.521  18.794  -3.942  1.00  0.00     0.001 A 
HETATM   25  C11 UNL     1     -20.281  19.428  -4.050  1.00  0.00     0.013 A 
ENDBRANCH  19  20
ENDBRANCH   8  19
ENDBRANCH   1   8
BRANCH   7  26
HETATM   26  N4  UNL     1     -17.725  19.127  -7.557  1.00  0.00    -0.273 N 
BRANCH  26  27
HETATM   27  C16 UNL     1     -19.010  19.181  -8.108  1.00  0.00     0.115 C 
BRANCH  27  28
HETATM   28  C17 UNL     1     -19.792  17.961  -8.212  1.00  0.00    -0.020 A 
HETATM   29  C18 UNL     1     -21.034  17.874  -7.649  1.00  0.00     0.013 A 
HETATM   30  C19 UNL     1     -21.824  16.743  -7.710  1.00  0.00     0.001 A 
HETATM   31  C20 UNL     1     -21.354  15.647  -8.363  1.00  0.00     0.000 A 
HETATM   32  C21 UNL     1     -20.112  15.684  -8.947  1.00  0.00     0.001 A 
HETATM   33  C22 UNL     1     -19.327  16.850  -8.869  1.00  0.00     0.013 A 
ENDBRANCH  27  28
ENDBRANCH  26  27
BRANCH  26  34
HETATM   34  S2  UNL     1     -16.496  19.074  -8.650  1.00  0.00     0.265 S 
HETATM   35  O3  UNL     1     -16.922  19.167 -10.106  1.00  0.00    -0.200 OA
HETATM   36  O4  UNL     1     -15.855  17.686  -8.590  1.00  0.00    -0.200 OA
BRANCH  34  37
HETATM   37  C23 UNL     1     -15.156  20.190  -8.391  1.00  0.00     0.080 A 
HETATM   38  C24 UNL     1     -15.317  21.491  -8.831  1.00  0.00     0.027 A 
HETATM   39  C25 UNL     1     -14.280  22.373  -8.639  1.00  0.00     0.028 A 
HETATM   40  C26 UNL     1     -13.092  21.995  -8.023  1.00  0.00     0.046 A 
HETATM   41  N5  UNL     1     -12.054  22.968  -7.858  1.00  0.00    -0.102 NA
HETATM   42  C27 UNL     1     -12.947  20.700  -7.591  1.00  0.00     0.028 A 
HETATM   43  C28 UNL     1     -13.976  19.804  -7.776  1.00  0.00     0.027 A 
ENDBRANCH  34  37
ENDBRANCH  26  34
ENDBRANCH   7  26
TORSDOF 10
ENDMDL
