MODEL 9
REMARK VINA RESULT: -10.615121251      1.504      5.019
REMARK  10 active torsions:
REMARK  status: ('A' for Active; 'I' for Inactive)
REMARK    1  A    between atoms: C4_5  and  S1_6 
REMARK    2  A    between atoms: S1_6  and  N2_9 
REMARK    3  A    between atoms: N2_9  and  C5_10 
REMARK    4  A    between atoms: N2_9  and  C12_17 
REMARK    5  A    between atoms: C5_10  and  C6_11 
REMARK    6  A    between atoms: C15_23  and  N4_24 
REMARK    7  A    between atoms: N4_24  and  C16_25 
REMARK    8  A    between atoms: N4_24  and  S2_32 
REMARK    9  A    between atoms: C16_25  and  C17_26 
REMARK   10  A    between atoms: S2_32  and  C23_35 
ROOT
HETATM    1  C12 UNL     1     -16.542  20.272  -5.352  1.00  0.00     0.152 C 
HETATM    2  C13 UNL     1     -15.163  20.225  -4.734  1.00  0.00     0.260 C 
HETATM    3  N3  UNL     1     -14.758  18.868  -4.623  1.00  0.00    -0.071 N 
ATOM      4  H31 UNL     1     -14.616  18.588  -3.652  1.00  0.00     0.277 HD
ATOM      5  H32 UNL     1     -13.806  18.723  -4.959  1.00  0.00     0.277 HD
HETATM    6  C14 UNL     1     -15.696  18.028  -5.290  1.00  0.00     0.260 C 
HETATM    7  C15 UNL     1     -16.816  18.881  -5.837  1.00  0.00     0.152 C 
ENDROOT
BRANCH   1   8
HETATM    8  N2  UNL     1     -17.563  20.757  -4.481  1.00  0.00    -0.273 N 
BRANCH   8   9
HETATM    9  S1  UNL     1     -17.762  22.437  -4.416  1.00  0.00     0.265 S 
HETATM   10  O1  UNL     1     -18.001  22.964  -5.810  1.00  0.00    -0.200 OA
HETATM   11  O2  UNL     1     -18.944  22.848  -3.570  1.00  0.00    -0.200 OA
BRANCH   9  12
HETATM   12  C4  UNL     1     -16.355  23.270  -3.783  1.00  0.00     0.080 A 
HETATM   13  C3  UNL     1     -15.556  24.101  -4.539  1.00  0.00     0.027 A 
HETATM   14  C2  UNL     1     -14.454  24.746  -4.018  1.00  0.00     0.028 A 
HETATM   15  C1  UNL     1     -14.110  24.575  -2.688  1.00  0.00     0.046 A 
HETATM   16  N1  UNL     1     -12.967  25.239  -2.133  1.00  0.00    -0.102 NA
HETATM   17  C30 UNL     1     -14.899  23.746  -1.915  1.00  0.00     0.028 A 
HETATM   18  C29 UNL     1     -15.997  23.111  -2.456  1.00  0.00     0.027 A 
ENDBRANCH   9  12
ENDBRANCH   8   9
BRANCH   8  19
HETATM   19  C5  UNL     1     -17.766  20.091  -3.255  1.00  0.00     0.115 C 
BRANCH  19  20
HETATM   20  C6  UNL     1     -19.092  19.371  -3.251  1.00  0.00    -0.020 A 
HETATM   21  C7  UNL     1     -20.075  19.682  -4.163  1.00  0.00     0.013 A 
HETATM   22  C8  UNL     1     -21.303  19.023  -4.164  1.00  0.00     0.001 A 
HETATM   23  C9  UNL     1     -21.560  18.040  -3.245  1.00  0.00     0.000 A 
HETATM   24  C10 UNL     1     -20.600  17.717  -2.333  1.00  0.00     0.001 A 
HETATM   25  C11 UNL     1     -19.371  18.379  -2.334  1.00  0.00     0.013 A 
ENDBRANCH  19  20
ENDBRANCH   8  19
ENDBRANCH   1   8
BRANCH   7  26
HETATM   26  N4  UNL     1     -17.118  18.720  -7.172  1.00  0.00    -0.273 N 
BRANCH  26  27
HETATM   27  C16 UNL     1     -16.053  18.614  -8.074  1.00  0.00     0.115 C 
BRANCH  27  28
HETATM   28  C17 UNL     1     -15.224  19.777  -8.336  1.00  0.00    -0.020 A 
HETATM   29  C18 UNL     1     -13.904  19.792  -7.980  1.00  0.00     0.013 A 
HETATM   30  C19 UNL     1     -13.065  20.866  -8.199  1.00  0.00     0.001 A 
HETATM   31  C20 UNL     1     -13.564  21.980  -8.800  1.00  0.00     0.000 A 
HETATM   32  C21 UNL     1     -14.884  22.014  -9.176  1.00  0.00     0.001 A 
HETATM   33  C22 UNL     1     -15.717  20.905  -8.942  1.00  0.00     0.013 A 
ENDBRANCH  27  28
ENDBRANCH  26  27
BRANCH  26  34
HETATM   34  S2  UNL     1     -18.594  18.962  -7.857  1.00  0.00     0.265 S 
HETATM   35  O3  UNL     1     -18.592  19.077  -9.372  1.00  0.00    -0.200 OA
HETATM   36  O4  UNL     1     -19.106  20.340  -7.430  1.00  0.00    -0.200 OA
BRANCH  34  37
HETATM   37  C23 UNL     1     -19.879  17.850  -7.386  1.00  0.00     0.080 A 
HETATM   38  C24 UNL     1     -21.141  18.079  -7.903  1.00  0.00     0.027 A 
HETATM   39  C25 UNL     1     -22.154  17.223  -7.542  1.00  0.00     0.028 A 
HETATM   40  C26 UNL     1     -21.945  16.149  -6.684  1.00  0.00     0.046 A 
HETATM   41  N5  UNL     1     -23.049  15.299  -6.352  1.00  0.00    -0.102 NA
HETATM   42  C27 UNL     1     -20.686  15.934  -6.179  1.00  0.00     0.028 A 
HETATM   43  C28 UNL     1     -19.660  16.783  -6.530  1.00  0.00     0.027 A 
ENDBRANCH  34  37
ENDBRANCH  26  34
ENDBRANCH   7  26
TORSDOF 10
ENDMDL
