MODEL 2
REMARK VINA RESULT: -11.197700580      0.061      1.043
REMARK  10 active torsions:
REMARK  status: ('A' for Active; 'I' for Inactive)
REMARK    1  A    between atoms: C4_5  and  S1_6 
REMARK    2  A    between atoms: S1_6  and  N2_9 
REMARK    3  A    between atoms: N2_9  and  C5_10 
REMARK    4  A    between atoms: N2_9  and  C12_17 
REMARK    5  A    between atoms: C5_10  and  C6_11 
REMARK    6  A    between atoms: C15_23  and  N4_24 
REMARK    7  A    between atoms: N4_24  and  C16_25 
REMARK    8  A    between atoms: N4_24  and  S2_32 
REMARK    9  A    between atoms: C16_25  and  C17_26 
REMARK   10  A    between atoms: S2_32  and  C23_35 
ROOT
HETATM    1  C12 UNL     1     -16.923  19.860  -5.357  1.00  0.00     0.152 C 
HETATM    2  C13 UNL     1     -15.789  19.116  -4.686  1.00  0.00     0.260 C 
HETATM    3  N3  UNL     1     -15.961  17.724  -4.910  1.00  0.00    -0.071 N 
ATOM      4  H31 UNL     1     -16.099  17.209  -4.040  1.00  0.00     0.277 HD
ATOM      5  H32 UNL     1     -15.096  17.274  -5.211  1.00  0.00     0.277 HD
HETATM    6  C14 UNL     1     -17.025  17.511  -5.833  1.00  0.00     0.260 C 
HETATM    7  C15 UNL     1     -17.625  18.845  -6.207  1.00  0.00     0.152 C 
ENDROOT
BRANCH   1   8
HETATM    8  N2  UNL     1     -17.808  20.524  -4.456  1.00  0.00    -0.273 N 
BRANCH   8   9
HETATM    9  S1  UNL     1     -17.804  22.216  -4.507  1.00  0.00     0.265 S 
HETATM   10  O1  UNL     1     -18.072  22.671  -5.921  1.00  0.00    -0.200 OA
HETATM   11  O2  UNL     1     -18.872  22.824  -3.628  1.00  0.00    -0.200 OA
BRANCH   9  12
HETATM   12  C4  UNL     1     -16.271  22.913  -4.022  1.00  0.00     0.080 A 
HETATM   13  C3  UNL     1     -16.034  23.441  -2.770  1.00  0.00     0.027 A 
HETATM   14  C2  UNL     1     -14.819  23.984  -2.411  1.00  0.00     0.028 A 
HETATM   15  C1  UNL     1     -13.774  24.015  -3.320  1.00  0.00     0.046 A 
HETATM   16  N1  UNL     1     -12.504  24.577  -2.960  1.00  0.00    -0.102 NA
HETATM   17  C30 UNL     1     -13.992  23.491  -4.578  1.00  0.00     0.028 A 
HETATM   18  C29 UNL     1     -15.216  22.952  -4.916  1.00  0.00     0.027 A 
ENDBRANCH   9  12
ENDBRANCH   8   9
BRANCH   8  19
HETATM   19  C5  UNL     1     -17.989  19.972  -3.171  1.00  0.00     0.115 C 
BRANCH  19  20
HETATM   20  C6  UNL     1     -19.338  19.304  -3.061  1.00  0.00    -0.020 A 
HETATM   21  C7  UNL     1     -20.284  19.441  -4.051  1.00  0.00     0.013 A 
HETATM   22  C8  UNL     1     -21.532  18.829  -3.957  1.00  0.00     0.001 A 
HETATM   23  C9  UNL     1     -21.846  18.067  -2.861  1.00  0.00     0.000 A 
HETATM   24  C10 UNL     1     -20.923  17.919  -1.869  1.00  0.00     0.001 A 
HETATM   25  C11 UNL     1     -19.673  18.534  -1.968  1.00  0.00     0.013 A 
ENDBRANCH  19  20
ENDBRANCH   8  19
ENDBRANCH   1   8
BRANCH   7  26
HETATM   26  N4  UNL     1     -17.741  19.113  -7.554  1.00  0.00    -0.273 N 
BRANCH  26  27
HETATM   27  C16 UNL     1     -19.029  19.168  -8.099  1.00  0.00     0.115 C 
BRANCH  27  28
HETATM   28  C17 UNL     1     -19.811  17.948  -8.203  1.00  0.00    -0.020 A 
HETATM   29  C18 UNL     1     -21.046  17.855  -7.625  1.00  0.00     0.013 A 
HETATM   30  C19 UNL     1     -21.835  16.724  -7.686  1.00  0.00     0.001 A 
HETATM   31  C20 UNL     1     -21.372  15.633  -8.352  1.00  0.00     0.000 A 
HETATM   32  C21 UNL     1     -20.136  15.676  -8.950  1.00  0.00     0.001 A 
HETATM   33  C22 UNL     1     -19.352  16.842  -8.873  1.00  0.00     0.013 A 
ENDBRANCH  27  28
ENDBRANCH  26  27
BRANCH  26  34
HETATM   34  S2  UNL     1     -16.518  19.059  -8.653  1.00  0.00     0.265 S 
HETATM   35  O3  UNL     1     -16.951  19.150 -10.106  1.00  0.00    -0.200 OA
HETATM   36  O4  UNL     1     -15.875  17.672  -8.593  1.00  0.00    -0.200 OA
BRANCH  34  37
HETATM   37  C23 UNL     1     -15.177  20.176  -8.401  1.00  0.00     0.080 A 
HETATM   38  C24 UNL     1     -15.341  21.477  -8.840  1.00  0.00     0.027 A 
HETATM   39  C25 UNL     1     -14.303  22.360  -8.655  1.00  0.00     0.028 A 
HETATM   40  C26 UNL     1     -13.112  21.983  -8.045  1.00  0.00     0.046 A 
HETATM   41  N5  UNL     1     -12.074  22.957  -7.886  1.00  0.00    -0.102 NA
HETATM   42  C27 UNL     1     -12.964  20.688  -7.613  1.00  0.00     0.028 A 
HETATM   43  C28 UNL     1     -13.994  19.792  -7.792  1.00  0.00     0.027 A 
ENDBRANCH  34  37
ENDBRANCH  26  34
ENDBRANCH   7  26
TORSDOF 10
ENDMDL
