MODEL 5
REMARK VINA RESULT: -10.894123409      1.458      7.251
REMARK  10 active torsions:
REMARK  status: ('A' for Active; 'I' for Inactive)
REMARK    1  A    between atoms: C4_5  and  S1_6 
REMARK    2  A    between atoms: S1_6  and  N2_9 
REMARK    3  A    between atoms: N2_9  and  C5_10 
REMARK    4  A    between atoms: N2_9  and  C12_17 
REMARK    5  A    between atoms: C5_10  and  C6_11 
REMARK    6  A    between atoms: C15_23  and  N4_24 
REMARK    7  A    between atoms: N4_24  and  C16_25 
REMARK    8  A    between atoms: N4_24  and  S2_32 
REMARK    9  A    between atoms: C16_25  and  C17_26 
REMARK   10  A    between atoms: S2_32  and  C23_35 
ROOT
HETATM    1  C12 UNL     1     -16.216  19.490  -6.221  1.00  0.00     0.152 C 
HETATM    2  C13 UNL     1     -15.301  18.477  -5.569  1.00  0.00     0.260 C 
HETATM    3  N3  UNL     1     -14.516  19.138  -4.585  1.00  0.00    -0.071 N 
ATOM      4  H31 UNL     1     -13.519  19.100  -4.801  1.00  0.00     0.277 HD
ATOM      5  H32 UNL     1     -14.496  18.625  -3.704  1.00  0.00     0.277 HD
HETATM    6  C14 UNL     1     -14.977  20.475  -4.418  1.00  0.00     0.260 C 
HETATM    7  C15 UNL     1     -16.109  20.729  -5.385  1.00  0.00     0.152 C 
ENDROOT
BRANCH   1   8
HETATM    8  N2  UNL     1     -15.937  19.735  -7.599  1.00  0.00    -0.273 N 
BRANCH   8   9
HETATM    9  S1  UNL     1     -17.242  19.592  -8.668  1.00  0.00     0.265 S 
HETATM   10  O1  UNL     1     -18.189  20.747  -8.454  1.00  0.00    -0.200 OA
HETATM   11  O2  UNL     1     -16.811  19.624 -10.116  1.00  0.00    -0.200 OA
BRANCH   9  12
HETATM   12  C4  UNL     1     -18.163  18.119  -8.432  1.00  0.00     0.080 A 
HETATM   13  C3  UNL     1     -19.188  17.997  -7.518  1.00  0.00     0.027 A 
HETATM   14  C2  UNL     1     -19.898  16.827  -7.351  1.00  0.00     0.028 A 
HETATM   15  C1  UNL     1     -19.597  15.714  -8.117  1.00  0.00     0.046 A 
HETATM   16  N1  UNL     1     -20.328  14.491  -7.954  1.00  0.00    -0.102 NA
HETATM   17  C30 UNL     1     -18.573  15.816  -9.038  1.00  0.00     0.028 A 
HETATM   18  C29 UNL     1     -17.876  16.996  -9.188  1.00  0.00     0.027 A 
ENDBRANCH   9  12
ENDBRANCH   8   9
BRANCH   8  19
HETATM   19  C5  UNL     1     -14.699  19.302  -8.117  1.00  0.00     0.115 C 
BRANCH  19  20
HETATM   20  C6  UNL     1     -13.767  20.471  -8.323  1.00  0.00    -0.020 A 
HETATM   21  C7  UNL     1     -12.425  20.372  -8.035  1.00  0.00     0.013 A 
HETATM   22  C8  UNL     1     -11.558  21.447  -8.221  1.00  0.00     0.001 A 
HETATM   23  C9  UNL     1     -12.031  22.641  -8.700  1.00  0.00     0.000 A 
HETATM   24  C10 UNL     1     -13.358  22.760  -8.991  1.00  0.00     0.001 A 
HETATM   25  C11 UNL     1     -14.224  21.681  -8.804  1.00  0.00     0.013 A 
ENDBRANCH  19  20
ENDBRANCH   8  19
ENDBRANCH   1   8
BRANCH   7  26
HETATM   26  N4  UNL     1     -17.273  21.239  -4.853  1.00  0.00    -0.273 N 
BRANCH  26  27
HETATM   27  C16 UNL     1     -18.460  20.535  -5.086  1.00  0.00     0.115 C 
BRANCH  27  28
HETATM   28  C17 UNL     1     -19.019  19.712  -4.027  1.00  0.00    -0.020 A 
HETATM   29  C18 UNL     1     -20.333  19.339  -4.050  1.00  0.00     0.013 A 
HETATM   30  C19 UNL     1     -20.924  18.562  -3.073  1.00  0.00     0.001 A 
HETATM   31  C20 UNL     1     -20.170  18.136  -2.025  1.00  0.00     0.000 A 
HETATM   32  C21 UNL     1     -18.843  18.484  -1.957  1.00  0.00     0.001 A 
HETATM   33  C22 UNL     1     -18.266  19.278  -2.966  1.00  0.00     0.013 A 
ENDBRANCH  27  28
ENDBRANCH  26  27
BRANCH  26  34
HETATM   34  S2  UNL     1     -17.467  22.756  -4.245  1.00  0.00     0.265 S 
HETATM   35  O3  UNL     1     -18.580  22.905  -3.223  1.00  0.00    -0.200 OA
HETATM   36  O4  UNL     1     -17.941  23.673  -5.375  1.00  0.00    -0.200 OA
BRANCH  34  37
HETATM   37  C23 UNL     1     -16.023  23.547  -3.615  1.00  0.00     0.080 A 
HETATM   38  C24 UNL     1     -15.670  23.278  -2.305  1.00  0.00     0.027 A 
HETATM   39  C25 UNL     1     -14.549  23.890  -1.796  1.00  0.00     0.028 A 
HETATM   40  C26 UNL     1     -13.772  24.758  -2.555  1.00  0.00     0.046 A 
HETATM   41  N5  UNL     1     -12.617  25.360  -1.958  1.00  0.00    -0.102 NA
HETATM   42  C27 UNL     1     -14.134  25.015  -3.855  1.00  0.00     0.028 A 
HETATM   43  C28 UNL     1     -15.255  24.411  -4.378  1.00  0.00     0.027 A 
ENDBRANCH  34  37
ENDBRANCH  26  34
ENDBRANCH   7  26
TORSDOF 10
ENDMDL
