MODEL 3
REMARK VINA RESULT: -11.042101478      1.038      1.454
REMARK  10 active torsions:
REMARK  status: ('A' for Active; 'I' for Inactive)
REMARK    1  A    between atoms: C4_5  and  S1_6 
REMARK    2  A    between atoms: S1_6  and  N2_9 
REMARK    3  A    between atoms: N2_9  and  C5_10 
REMARK    4  A    between atoms: N2_9  and  C12_17 
REMARK    5  A    between atoms: C5_10  and  C6_11 
REMARK    6  A    between atoms: C15_23  and  N4_24 
REMARK    7  A    between atoms: N4_24  and  C16_25 
REMARK    8  A    between atoms: N4_24  and  S2_32 
REMARK    9  A    between atoms: C16_25  and  C17_26 
REMARK   10  A    between atoms: S2_32  and  C23_35 
ROOT
HETATM    1  C12 UNL     1     -16.494  20.430  -5.191  1.00  0.00     0.152 C 
HETATM    2  C13 UNL     1     -15.103  20.312  -4.609  1.00  0.00     0.260 C 
HETATM    3  N3  UNL     1     -14.733  18.940  -4.584  1.00  0.00    -0.071 N 
ATOM      4  H31 UNL     1     -14.578  18.601  -3.635  1.00  0.00     0.277 HD
ATOM      5  H32 UNL     1     -13.793  18.790  -4.950  1.00  0.00     0.277 HD
HETATM    6  C14 UNL     1     -15.708  18.165  -5.276  1.00  0.00     0.260 C 
HETATM    7  C15 UNL     1     -16.815  19.076  -5.748  1.00  0.00     0.152 C 
ENDROOT
BRANCH   1   8
HETATM    8  N2  UNL     1     -17.483  20.890  -4.270  1.00  0.00    -0.273 N 
BRANCH   8   9
HETATM    9  S1  UNL     1     -17.667  22.567  -4.139  1.00  0.00     0.265 S 
HETATM   10  O1  UNL     1     -17.993  23.139  -5.497  1.00  0.00    -0.200 OA
HETATM   11  O2  UNL     1     -18.789  22.956  -3.205  1.00  0.00    -0.200 OA
BRANCH   9  12
HETATM   12  C4  UNL     1     -16.217  23.374  -3.573  1.00  0.00     0.080 A 
HETATM   13  C3  UNL     1     -15.470  24.235  -4.349  1.00  0.00     0.027 A 
HETATM   14  C2  UNL     1     -14.333  24.858  -3.881  1.00  0.00     0.028 A 
HETATM   15  C1  UNL     1     -13.898  24.634  -2.585  1.00  0.00     0.046 A 
HETATM   16  N1  UNL     1     -12.717  25.276  -2.085  1.00  0.00    -0.102 NA
HETATM   17  C30 UNL     1     -14.633  23.775  -1.793  1.00  0.00     0.028 A 
HETATM   18  C29 UNL     1     -15.768  23.162  -2.281  1.00  0.00     0.027 A 
ENDBRANCH   9  12
ENDBRANCH   8   9
BRANCH   8  19
HETATM   19  C5  UNL     1     -17.650  20.181  -3.063  1.00  0.00     0.115 C 
BRANCH  19  20
HETATM   20  C6  UNL     1     -18.988  19.483  -3.033  1.00  0.00    -0.020 A 
HETATM   21  C7  UNL     1     -19.896  19.639  -4.056  1.00  0.00     0.013 A 
HETATM   22  C8  UNL     1     -21.134  18.999  -4.036  1.00  0.00     0.001 A 
HETATM   23  C9  UNL     1     -21.477  18.192  -2.983  1.00  0.00     0.000 A 
HETATM   24  C10 UNL     1     -20.592  18.025  -1.960  1.00  0.00     0.001 A 
HETATM   25  C11 UNL     1     -19.352  18.667  -1.983  1.00  0.00     0.013 A 
ENDBRANCH  19  20
ENDBRANCH   8  19
ENDBRANCH   1   8
BRANCH   7  26
HETATM   26  N4  UNL     1     -17.151  19.001  -7.082  1.00  0.00    -0.273 N 
BRANCH  26  27
HETATM   27  C16 UNL     1     -17.651  17.784  -7.562  1.00  0.00     0.115 C 
BRANCH  27  28
HETATM   28  C17 UNL     1     -19.065  17.487  -7.411  1.00  0.00    -0.020 A 
HETATM   29  C18 UNL     1     -19.494  16.564  -6.499  1.00  0.00     0.013 A 
HETATM   30  C19 UNL     1     -20.822  16.236  -6.311  1.00  0.00     0.001 A 
HETATM   31  C20 UNL     1     -21.768  16.856  -7.066  1.00  0.00     0.000 A 
HETATM   32  C21 UNL     1     -21.387  17.792  -7.996  1.00  0.00     0.001 A 
HETATM   33  C22 UNL     1     -20.026  18.108  -8.168  1.00  0.00     0.013 A 
ENDBRANCH  27  28
ENDBRANCH  26  27
BRANCH  26  34
HETATM   34  S2  UNL     1     -16.727  20.088  -8.242  1.00  0.00     0.265 S 
HETATM   35  O3  UNL     1     -17.629  21.306  -8.347  1.00  0.00    -0.200 OA
HETATM   36  O4  UNL     1     -16.911  19.431  -9.612  1.00  0.00    -0.200 OA
BRANCH  34  37
HETATM   37  C23 UNL     1     -15.051  20.637  -8.239  1.00  0.00     0.080 A 
HETATM   38  C24 UNL     1     -14.822  21.987  -8.434  1.00  0.00     0.027 A 
HETATM   39  C25 UNL     1     -13.521  22.430  -8.438  1.00  0.00     0.028 A 
HETATM   40  C26 UNL     1     -12.446  21.568  -8.252  1.00  0.00     0.046 A 
HETATM   41  N5  UNL     1     -11.116  22.101  -8.269  1.00  0.00    -0.102 NA
HETATM   42  C27 UNL     1     -12.689  20.230  -8.059  1.00  0.00     0.028 A 
HETATM   43  C28 UNL     1     -13.986  19.770  -8.052  1.00  0.00     0.027 A 
ENDBRANCH  34  37
ENDBRANCH  26  34
ENDBRANCH   7  26
TORSDOF 10
ENDMDL
