MODEL 6
REMARK VINA RESULT: -10.860934219      1.428      4.985
REMARK  10 active torsions:
REMARK  status: ('A' for Active; 'I' for Inactive)
REMARK    1  A    between atoms: C4_5  and  S1_6 
REMARK    2  A    between atoms: S1_6  and  N2_9 
REMARK    3  A    between atoms: N2_9  and  C5_10 
REMARK    4  A    between atoms: N2_9  and  C12_17 
REMARK    5  A    between atoms: C5_10  and  C6_11 
REMARK    6  A    between atoms: C15_23  and  N4_24 
REMARK    7  A    between atoms: N4_24  and  C16_25 
REMARK    8  A    between atoms: N4_24  and  S2_32 
REMARK    9  A    between atoms: C16_25  and  C17_26 
REMARK   10  A    between atoms: S2_32  and  C23_35 
ROOT
HETATM    1  C12 UNL     1     -16.757  20.067  -5.283  1.00  0.00     0.152 C 
HETATM    2  C13 UNL     1     -15.490  19.585  -4.612  1.00  0.00     0.260 C 
HETATM    3  N3  UNL     1     -15.424  18.170  -4.724  1.00  0.00    -0.071 N 
ATOM      4  H31 UNL     1     -15.443  17.711  -3.813  1.00  0.00     0.277 HD
ATOM      5  H32 UNL     1     -14.504  17.852  -5.031  1.00  0.00     0.277 HD
HETATM    6  C14 UNL     1     -16.464  17.705  -5.579  1.00  0.00     0.260 C 
HETATM    7  C15 UNL     1     -17.299  18.882  -6.023  1.00  0.00     0.152 C 
ENDROOT
BRANCH   1   8
HETATM    8  N2  UNL     1     -17.715  20.640  -4.394  1.00  0.00    -0.273 N 
BRANCH   8   9
HETATM    9  S1  UNL     1     -17.841  22.328  -4.411  1.00  0.00     0.265 S 
HETATM   10  O1  UNL     1     -18.071  22.796  -5.827  1.00  0.00    -0.200 OA
HETATM   11  O2  UNL     1     -18.997  22.831  -3.577  1.00  0.00    -0.200 OA
BRANCH   9  12
HETATM   12  C4  UNL     1     -16.395  23.130  -3.830  1.00  0.00     0.080 A 
HETATM   13  C3  UNL     1     -15.362  23.531  -4.650  1.00  0.00     0.027 A 
HETATM   14  C2  UNL     1     -14.234  24.161  -4.170  1.00  0.00     0.028 A 
HETATM   15  C1  UNL     1     -14.102  24.417  -2.815  1.00  0.00     0.046 A 
HETATM   16  N1  UNL     1     -12.934  25.071  -2.301  1.00  0.00    -0.102 NA
HETATM   17  C30 UNL     1     -15.126  24.023  -1.977  1.00  0.00     0.028 A 
HETATM   18  C29 UNL     1     -16.246  23.394  -2.479  1.00  0.00     0.027 A 
ENDBRANCH   9  12
ENDBRANCH   8   9
BRANCH   8  19
HETATM   19  C5  UNL     1     -17.886  20.048  -3.127  1.00  0.00     0.115 C 
BRANCH  19  20
HETATM   20  C6  UNL     1     -19.214  19.334  -3.045  1.00  0.00    -0.020 A 
HETATM   21  C7  UNL     1     -20.179  19.512  -4.010  1.00  0.00     0.013 A 
HETATM   22  C8  UNL     1     -21.407  18.858  -3.941  1.00  0.00     0.001 A 
HETATM   23  C9  UNL     1     -21.683  18.013  -2.898  1.00  0.00     0.000 A 
HETATM   24  C10 UNL     1     -20.740  17.823  -1.932  1.00  0.00     0.001 A 
HETATM   25  C11 UNL     1     -19.510  18.480  -2.004  1.00  0.00     0.013 A 
ENDBRANCH  19  20
ENDBRANCH   8  19
ENDBRANCH   1   8
BRANCH   7  26
HETATM   26  N4  UNL     1     -17.503  19.018  -7.379  1.00  0.00    -0.273 N 
BRANCH  26  27
HETATM   27  C16 UNL     1     -17.143  20.233  -7.974  1.00  0.00     0.115 C 
BRANCH  27  28
HETATM   28  C17 UNL     1     -15.737  20.584  -8.080  1.00  0.00    -0.020 A 
HETATM   29  C18 UNL     1     -15.331  21.885  -7.979  1.00  0.00     0.013 A 
HETATM   30  C19 UNL     1     -14.012  22.284  -8.074  1.00  0.00     0.001 A 
HETATM   31  C20 UNL     1     -13.053  21.342  -8.278  1.00  0.00     0.000 A 
HETATM   32  C21 UNL     1     -13.410  20.021  -8.385  1.00  0.00     0.001 A 
HETATM   33  C22 UNL     1     -14.762  19.642  -8.285  1.00  0.00     0.013 A 
ENDBRANCH  27  28
ENDBRANCH  26  27
BRANCH  26  34
HETATM   34  S2  UNL     1     -18.421  18.024  -8.316  1.00  0.00     0.265 S 
HETATM   35  O3  UNL     1     -17.662  16.903  -9.006  1.00  0.00    -0.200 OA
HETATM   36  O4  UNL     1     -18.951  18.833  -9.503  1.00  0.00    -0.200 OA
BRANCH  34  37
HETATM   37  C23 UNL     1     -19.864  17.341  -7.569  1.00  0.00     0.080 A 
HETATM   38  C24 UNL     1     -21.090  17.816  -7.999  1.00  0.00     0.027 A 
HETATM   39  C25 UNL     1     -22.225  17.296  -7.424  1.00  0.00     0.028 A 
HETATM   40  C26 UNL     1     -22.172  16.319  -6.436  1.00  0.00     0.046 A 
HETATM   41  N5  UNL     1     -23.397  15.824  -5.881  1.00  0.00    -0.102 NA
HETATM   42  C27 UNL     1     -20.948  15.857  -6.019  1.00  0.00     0.028 A 
HETATM   43  C28 UNL     1     -19.802  16.368  -6.585  1.00  0.00     0.027 A 
ENDBRANCH  34  37
ENDBRANCH  26  34
ENDBRANCH   7  26
TORSDOF 10
ENDMDL
