MODEL 7
REMARK VINA RESULT: -10.794788462      1.411      5.034
REMARK  10 active torsions:
REMARK  status: ('A' for Active; 'I' for Inactive)
REMARK    1  A    between atoms: C4_5  and  S1_6 
REMARK    2  A    between atoms: S1_6  and  N2_9 
REMARK    3  A    between atoms: N2_9  and  C5_10 
REMARK    4  A    between atoms: N2_9  and  C12_17 
REMARK    5  A    between atoms: C5_10  and  C6_11 
REMARK    6  A    between atoms: C15_23  and  N4_24 
REMARK    7  A    between atoms: N4_24  and  C16_25 
REMARK    8  A    between atoms: N4_24  and  S2_32 
REMARK    9  A    between atoms: C16_25  and  C17_26 
REMARK   10  A    between atoms: S2_32  and  C23_35 
ROOT
HETATM    1  C12 UNL     1     -16.757  20.049  -5.273  1.00  0.00     0.152 C 
HETATM    2  C13 UNL     1     -15.497  19.566  -4.590  1.00  0.00     0.260 C 
HETATM    3  N3  UNL     1     -15.429  18.152  -4.703  1.00  0.00    -0.071 N 
ATOM      4  H31 UNL     1     -15.457  17.692  -3.793  1.00  0.00     0.277 HD
ATOM      5  H32 UNL     1     -14.507  17.834  -5.001  1.00  0.00     0.277 HD
HETATM    6  C14 UNL     1     -16.461  17.687  -5.568  1.00  0.00     0.260 C 
HETATM    7  C15 UNL     1     -17.292  18.864  -6.019  1.00  0.00     0.152 C 
ENDROOT
BRANCH   1   8
HETATM    8  N2  UNL     1     -17.723  20.621  -4.393  1.00  0.00    -0.273 N 
BRANCH   8   9
HETATM    9  S1  UNL     1     -17.846  22.310  -4.405  1.00  0.00     0.265 S 
HETATM   10  O1  UNL     1     -18.039  22.784  -5.824  1.00  0.00    -0.200 OA
HETATM   11  O2  UNL     1     -19.021  22.811  -3.598  1.00  0.00    -0.200 OA
BRANCH   9  12
HETATM   12  C4  UNL     1     -16.413  23.106  -3.784  1.00  0.00     0.080 A 
HETATM   13  C3  UNL     1     -16.232  23.426  -2.456  1.00  0.00     0.027 A 
HETATM   14  C2  UNL     1     -15.094  24.052  -1.992  1.00  0.00     0.028 A 
HETATM   15  C1  UNL     1     -14.075  24.385  -2.868  1.00  0.00     0.046 A 
HETATM   16  N1  UNL     1     -12.886  25.036  -2.399  1.00  0.00    -0.102 NA
HETATM   17  C30 UNL     1     -14.238  24.072  -4.203  1.00  0.00     0.028 A 
HETATM   18  C29 UNL     1     -15.384  23.445  -4.646  1.00  0.00     0.027 A 
ENDBRANCH   9  12
ENDBRANCH   8   9
BRANCH   8  19
HETATM   19  C5  UNL     1     -17.911  20.025  -3.129  1.00  0.00     0.115 C 
BRANCH  19  20
HETATM   20  C6  UNL     1     -19.236  19.305  -3.069  1.00  0.00    -0.020 A 
HETATM   21  C7  UNL     1     -19.532  18.440  -2.040  1.00  0.00     0.013 A 
HETATM   22  C8  UNL     1     -20.752  17.772  -1.978  1.00  0.00     0.001 A 
HETATM   23  C9  UNL     1     -21.696  17.964  -2.953  1.00  0.00     0.000 A 
HETATM   24  C10 UNL     1     -21.423  18.817  -3.980  1.00  0.00     0.001 A 
HETATM   25  C11 UNL     1     -20.199  19.486  -4.040  1.00  0.00     0.013 A 
ENDBRANCH  19  20
ENDBRANCH   8  19
ENDBRANCH   1   8
BRANCH   7  26
HETATM   26  N4  UNL     1     -17.483  19.001  -7.377  1.00  0.00    -0.273 N 
BRANCH  26  27
HETATM   27  C16 UNL     1     -17.133  20.222  -7.965  1.00  0.00     0.115 C 
BRANCH  27  28
HETATM   28  C17 UNL     1     -15.730  20.581  -8.079  1.00  0.00    -0.020 A 
HETATM   29  C18 UNL     1     -15.333  21.887  -8.017  1.00  0.00     0.013 A 
HETATM   30  C19 UNL     1     -14.017  22.292  -8.122  1.00  0.00     0.001 A 
HETATM   31  C20 UNL     1     -13.051  21.351  -8.297  1.00  0.00     0.000 A 
HETATM   32  C21 UNL     1     -13.399  20.025  -8.365  1.00  0.00     0.001 A 
HETATM   33  C22 UNL     1     -14.748  19.639  -8.256  1.00  0.00     0.013 A 
ENDBRANCH  27  28
ENDBRANCH  26  27
BRANCH  26  34
HETATM   34  S2  UNL     1     -18.377  17.998  -8.326  1.00  0.00     0.265 S 
HETATM   35  O3  UNL     1     -17.610  16.845  -8.950  1.00  0.00    -0.200 OA
HETATM   36  O4  UNL     1     -18.839  18.781  -9.557  1.00  0.00    -0.200 OA
BRANCH  34  37
HETATM   37  C23 UNL     1     -19.865  17.362  -7.626  1.00  0.00     0.080 A 
HETATM   38  C24 UNL     1     -19.746  16.360  -6.680  1.00  0.00     0.027 A 
HETATM   39  C25 UNL     1     -20.897  15.851  -6.126  1.00  0.00     0.028 A 
HETATM   40  C26 UNL     1     -22.157  16.311  -6.488  1.00  0.00     0.046 A 
HETATM   41  N5  UNL     1     -23.313  15.732  -5.870  1.00  0.00    -0.102 NA
HETATM   42  C27 UNL     1     -22.260  17.306  -7.429  1.00  0.00     0.028 A 
HETATM   43  C28 UNL     1     -21.117  17.826  -7.993  1.00  0.00     0.027 A 
ENDBRANCH  34  37
ENDBRANCH  26  34
ENDBRANCH   7  26
TORSDOF 10
ENDMDL
