MODEL 3
REMARK VINA RESULT: -4.231974718      0.655      1.106
REMARK  7 active torsions:
REMARK  status: ('A' for Active; 'I' for Inactive)
REMARK    1  A    between atoms: N1_2  and  C3_4 
REMARK    2  A    between atoms: C3_4  and  C4_5 
REMARK    3  A    between atoms: C4_5  and  C5_6 
REMARK    4  A    between atoms: C5_6  and  C6_7 
REMARK    5  A    between atoms: C6_7  and  C7_8 
REMARK    6  A    between atoms: C7_8  and  N2_9 
REMARK    7  A    between atoms: C7_8  and  C8_13 
ROOT
HETATM    1  C7  UNL     1     -22.657 -17.473 -20.233  1.00  0.00     0.283 C 
ENDROOT
BRANCH   1   2
HETATM    2  C6  UNL     1     -23.952 -18.249 -20.213  1.00  0.00     0.044 C 
BRANCH   2   3
HETATM    3  C5  UNL     1     -24.476 -18.512 -18.838  1.00  0.00     0.004 C 
BRANCH   3   4
HETATM    4  C4  UNL     1     -25.451 -19.667 -18.906  1.00  0.00     0.030 C 
BRANCH   4   5
HETATM    5  C3  UNL     1     -25.751 -20.266 -17.564  1.00  0.00     0.271 C 
BRANCH   5   6
HETATM    6  N1  UNL     1     -26.539 -19.312 -16.787  1.00  0.00     0.080 N 
HETATM    7  C1  UNL     1     -25.971 -19.223 -15.436  1.00  0.00     0.309 C 
HETATM    8  C2  UNL     1     -27.911 -19.721 -16.698  1.00  0.00     0.309 C 
ENDBRANCH   5   6
ENDBRANCH   4   5
ENDBRANCH   3   4
ENDBRANCH   2   3
ENDBRANCH   1   2
BRANCH   1   9
HETATM    9  N2  UNL     1     -22.813 -16.439 -19.204  1.00  0.00    -0.065 N 
ATOM     10  H23 UNL     1     -23.441 -15.682 -19.473  1.00  0.00     0.275 HD
ATOM     11  H22 UNL     1     -23.340 -16.747 -18.388  1.00  0.00     0.275 HD
ATOM     12  H21 UNL     1     -21.864 -16.131 -18.990  1.00  0.00     0.275 HD
ENDBRANCH   1   9
BRANCH   1  13
HETATM   13  C8  UNL     1     -22.403 -16.832 -21.544  1.00  0.00     0.204 C 
HETATM   14  O1  UNL     1     -21.197 -16.669 -21.912  1.00  0.00    -0.646 OA
HETATM   15  O2  UNL     1     -23.413 -16.406 -22.378  1.00  0.00    -0.646 OA
ENDBRANCH   1  13
TORSDOF 7
ENDMDL
