MODEL 2
REMARK VINA RESULT: -4.243278589      0.750      1.106
REMARK  7 active torsions:
REMARK  status: ('A' for Active; 'I' for Inactive)
REMARK    1  A    between atoms: N1_2  and  C3_4 
REMARK    2  A    between atoms: C3_4  and  C4_5 
REMARK    3  A    between atoms: C4_5  and  C5_6 
REMARK    4  A    between atoms: C5_6  and  C6_7 
REMARK    5  A    between atoms: C6_7  and  C7_8 
REMARK    6  A    between atoms: C7_8  and  N2_9 
REMARK    7  A    between atoms: C7_8  and  C8_13 
ROOT
HETATM    1  C7  UNL     1     -22.663 -17.456 -20.231  1.00  0.00     0.283 C 
ENDROOT
BRANCH   1   2
HETATM    2  C6  UNL     1     -23.954 -18.236 -20.205  1.00  0.00     0.044 C 
BRANCH   2   3
HETATM    3  C5  UNL     1     -24.447 -18.542 -18.828  1.00  0.00     0.004 C 
BRANCH   3   4
HETATM    4  C4  UNL     1     -25.468 -19.656 -18.917  1.00  0.00     0.030 C 
BRANCH   4   5
HETATM    5  C3  UNL     1     -26.282 -19.811 -17.667  1.00  0.00     0.271 C 
BRANCH   5   6
HETATM    6  N1  UNL     1     -27.417 -20.686 -17.948  1.00  0.00     0.080 N 
HETATM    7  C1  UNL     1     -27.015 -21.670 -18.962  1.00  0.00     0.309 C 
HETATM    8  C2  UNL     1     -28.543 -19.940 -18.432  1.00  0.00     0.309 C 
ENDBRANCH   5   6
ENDBRANCH   4   5
ENDBRANCH   3   4
ENDBRANCH   2   3
ENDBRANCH   1   2
BRANCH   1   9
HETATM    9  N2  UNL     1     -22.822 -16.415 -19.210  1.00  0.00    -0.065 N 
ATOM     10  H23 UNL     1     -22.061 -16.382 -18.532  1.00  0.00     0.275 HD
ATOM     11  H22 UNL     1     -22.704 -15.467 -19.567  1.00  0.00     0.275 HD
ATOM     12  H21 UNL     1     -23.738 -16.587 -18.794  1.00  0.00     0.275 HD
ENDBRANCH   1   9
BRANCH   1  13
HETATM   13  C8  UNL     1     -22.409 -16.825 -21.546  1.00  0.00     0.204 C 
HETATM   14  O1  UNL     1     -21.203 -16.679 -21.923  1.00  0.00    -0.646 OA
HETATM   15  O2  UNL     1     -23.418 -16.391 -22.376  1.00  0.00    -0.646 OA
ENDBRANCH   1  13
TORSDOF 7
ENDMDL
