MODEL 1
REMARK VINA RESULT: -4.258318252      0.000      0.000
REMARK  7 active torsions:
REMARK  status: ('A' for Active; 'I' for Inactive)
REMARK    1  A    between atoms: N1_2  and  C3_4 
REMARK    2  A    between atoms: C3_4  and  C4_5 
REMARK    3  A    between atoms: C4_5  and  C5_6 
REMARK    4  A    between atoms: C5_6  and  C6_7 
REMARK    5  A    between atoms: C6_7  and  C7_8 
REMARK    6  A    between atoms: C7_8  and  N2_9 
REMARK    7  A    between atoms: C7_8  and  C8_13 
ROOT
HETATM    1  C7  UNL     1     -22.661 -17.443 -20.244  1.00  0.00     0.283 C 
ENDROOT
BRANCH   1   2
HETATM    2  C6  UNL     1     -23.958 -18.214 -20.224  1.00  0.00     0.044 C 
BRANCH   2   3
HETATM    3  C5  UNL     1     -24.432 -18.562 -18.850  1.00  0.00     0.004 C 
BRANCH   3   4
HETATM    4  C4  UNL     1     -25.482 -19.647 -18.962  1.00  0.00     0.030 C 
BRANCH   4   5
HETATM    5  C3  UNL     1     -25.558 -20.521 -17.746  1.00  0.00     0.271 C 
BRANCH   5   6
HETATM    6  N1  UNL     1     -26.883 -20.384 -17.147  1.00  0.00     0.080 N 
HETATM    7  C1  UNL     1     -27.832 -19.975 -18.191  1.00  0.00     0.309 C 
HETATM    8  C2  UNL     1     -26.882 -19.405 -16.098  1.00  0.00     0.309 C 
ENDBRANCH   5   6
ENDBRANCH   4   5
ENDBRANCH   3   4
ENDBRANCH   2   3
ENDBRANCH   1   2
BRANCH   1   9
HETATM    9  N2  UNL     1     -22.818 -16.401 -19.223  1.00  0.00    -0.065 N 
ATOM     10  H23 UNL     1     -23.149 -15.509 -19.592  1.00  0.00     0.275 HD
ATOM     11  H22 UNL     1     -23.598 -16.562 -18.586  1.00  0.00     0.275 HD
ATOM     12  H21 UNL     1     -21.911 -16.343 -18.759  1.00  0.00     0.275 HD
ENDBRANCH   1   9
BRANCH   1  13
HETATM   13  C8  UNL     1     -22.398 -16.812 -21.558  1.00  0.00     0.204 C 
HETATM   14  O1  UNL     1     -21.190 -16.688 -21.936  1.00  0.00    -0.646 OA
HETATM   15  O2  UNL     1     -23.401 -16.357 -22.384  1.00  0.00    -0.646 OA
ENDBRANCH   1  13
TORSDOF 7
ENDMDL
