MODEL 12
REMARK VINA RESULT: -3.826854851      3.711      5.782
REMARK  7 active torsions:
REMARK  status: ('A' for Active; 'I' for Inactive)
REMARK    1  A    between atoms: N1_2  and  C2_5 
REMARK    2  A    between atoms: C2_5  and  C3_6 
REMARK    3  A    between atoms: C3_6  and  C4_7 
REMARK    4  A    between atoms: C4_7  and  C5_8 
REMARK    5  A    between atoms: C5_8  and  C6_9 
REMARK    6  A    between atoms: C6_9  and  N2_10 
REMARK    7  A    between atoms: C6_9  and  C7_14 
ROOT
HETATM    1  C5  UNL     1     -25.407 -19.872 -17.504  1.00  0.00     0.044 C 
ENDROOT
BRANCH   1   2
HETATM    2  C4  UNL     1     -24.225 -19.186 -18.053  1.00  0.00     0.004 C 
BRANCH   2   3
HETATM    3  C3  UNL     1     -24.401 -18.659 -19.459  1.00  0.00     0.027 C 
BRANCH   3   4
HETATM    4  C2  UNL     1     -23.256 -17.852 -19.950  1.00  0.00     0.231 C 
BRANCH   4   5
HETATM    5  N1  UNL     1     -23.478 -17.518 -21.334  1.00  0.00    -0.079 N 
HETATM    6  C1  UNL     1     -22.517 -16.592 -21.869  1.00  0.00     0.266 C 
ATOM      7  H12 UNL     1     -24.427 -17.172 -21.473  1.00  0.00     0.276 HD
ATOM      8  H11 UNL     1     -23.519 -18.363 -21.905  1.00  0.00     0.276 HD
ENDBRANCH   4   5
ENDBRANCH   3   4
ENDBRANCH   2   3
ENDBRANCH   1   2
BRANCH   1   9
HETATM    9  C6  UNL     1     -26.376 -20.268 -18.587  1.00  0.00     0.283 C 
BRANCH   9  10
HETATM   10  N2  UNL     1     -27.744 -19.917 -18.173  1.00  0.00    -0.065 N 
ATOM     11  H23 UNL     1     -27.765 -19.100 -17.562  1.00  0.00     0.275 HD
ATOM     12  H22 UNL     1     -28.295 -19.538 -18.942  1.00  0.00     0.275 HD
ATOM     13  H21 UNL     1     -28.188 -20.729 -17.744  1.00  0.00     0.275 HD
ENDBRANCH   9  10
BRANCH   9  14
HETATM   14  C7  UNL     1     -26.357 -21.719 -18.852  1.00  0.00     0.204 C 
HETATM   15  O1  UNL     1     -25.808 -22.549 -18.115  1.00  0.00    -0.646 OA
HETATM   16  O2  UNL     1     -26.992 -22.228 -20.004  1.00  0.00    -0.646 OA
ENDBRANCH   9  14
ENDBRANCH   1   9
TORSDOF 7
ENDMDL
