MODEL 2
REMARK VINA RESULT: -4.060277100      1.235      1.490
REMARK  7 active torsions:
REMARK  status: ('A' for Active; 'I' for Inactive)
REMARK    1  A    between atoms: N1_2  and  C2_5 
REMARK    2  A    between atoms: C2_5  and  C3_6 
REMARK    3  A    between atoms: C3_6  and  C4_7 
REMARK    4  A    between atoms: C4_7  and  C5_8 
REMARK    5  A    between atoms: C5_8  and  C6_9 
REMARK    6  A    between atoms: C6_9  and  N2_10 
REMARK    7  A    between atoms: C6_9  and  C7_14 
ROOT
HETATM    1  C5  UNL     1     -23.874 -18.257 -20.345  1.00  0.00     0.044 C 
ENDROOT
BRANCH   1   2
HETATM    2  C4  UNL     1     -24.378 -18.568 -18.996  1.00  0.00     0.004 C 
BRANCH   2   3
HETATM    3  C3  UNL     1     -25.298 -19.765 -18.929  1.00  0.00     0.027 C 
BRANCH   3   4
HETATM    4  C2  UNL     1     -26.255 -19.729 -17.796  1.00  0.00     0.231 C 
BRANCH   4   5
HETATM    5  N1  UNL     1     -27.464 -20.412 -18.182  1.00  0.00    -0.079 N 
HETATM    6  C1  UNL     1     -28.640 -19.585 -18.129  1.00  0.00     0.266 C 
ATOM      7  H12 UNL     1     -27.594 -21.256 -17.625  1.00  0.00     0.276 HD
ATOM      8  H11 UNL     1     -27.361 -20.831 -19.106  1.00  0.00     0.276 HD
ENDBRANCH   4   5
ENDBRANCH   3   4
ENDBRANCH   2   3
ENDBRANCH   1   2
BRANCH   1   9
HETATM    9  C6  UNL     1     -22.609 -17.441 -20.293  1.00  0.00     0.283 C 
BRANCH   9  10
HETATM   10  N2  UNL     1     -22.747 -16.385 -19.277  1.00  0.00    -0.065 N 
ATOM     11  H23 UNL     1     -23.702 -16.311 -18.925  1.00  0.00     0.275 HD
ATOM     12  H22 UNL     1     -22.287 -16.630 -18.401  1.00  0.00     0.275 HD
ATOM     13  H21 UNL     1     -22.408 -15.501 -19.658  1.00  0.00     0.275 HD
ENDBRANCH   9  10
BRANCH   9  14
HETATM   14  C7  UNL     1     -22.318 -16.777 -21.578  1.00  0.00     0.204 C 
HETATM   15  O1  UNL     1     -23.186 -16.298 -22.320  1.00  0.00    -0.646 OA
HETATM   16  O2  UNL     1     -20.984 -16.662 -22.020  1.00  0.00    -0.646 OA
ENDBRANCH   9  14
ENDBRANCH   1   9
TORSDOF 7
ENDMDL
