MODEL 4
REMARK VINA RESULT: -4.015118206      3.671      5.043
REMARK  7 active torsions:
REMARK  status: ('A' for Active; 'I' for Inactive)
REMARK    1  A    between atoms: N1_2  and  C2_5 
REMARK    2  A    between atoms: C2_5  and  C3_6 
REMARK    3  A    between atoms: C3_6  and  C4_7 
REMARK    4  A    between atoms: C4_7  and  C5_8 
REMARK    5  A    between atoms: C5_8  and  C6_9 
REMARK    6  A    between atoms: C6_9  and  N2_10 
REMARK    7  A    between atoms: C6_9  and  C7_14 
ROOT
HETATM    1  C5  UNL     1     -20.929 -17.515 -18.826  1.00  0.00     0.044 C 
ENDROOT
BRANCH   1   2
HETATM    2  C4  UNL     1     -20.899 -18.219 -17.533  1.00  0.00     0.004 C 
BRANCH   2   3
HETATM    3  C3  UNL     1     -19.689 -19.100 -17.324  1.00  0.00     0.027 C 
BRANCH   3   4
HETATM    4  C2  UNL     1     -18.686 -19.019 -18.415  1.00  0.00     0.231 C 
BRANCH   4   5
HETATM    5  N1  UNL     1     -17.559 -19.852 -18.078  1.00  0.00    -0.079 N 
HETATM    6  C1  UNL     1     -17.764 -21.247 -18.357  1.00  0.00     0.266 C 
ATOM      7  H12 UNL     1     -17.290 -19.716 -17.103  1.00  0.00     0.276 HD
ATOM      8  H11 UNL     1     -16.713 -19.514 -18.536  1.00  0.00     0.276 HD
ENDBRANCH   4   5
ENDBRANCH   3   4
ENDBRANCH   2   3
ENDBRANCH   1   2
BRANCH   1   9
HETATM    9  C6  UNL     1     -22.338 -17.218 -19.267  1.00  0.00     0.283 C 
BRANCH   9  10
HETATM   10  N2  UNL     1     -23.249 -18.236 -18.718  1.00  0.00    -0.065 N 
ATOM     11  H23 UNL     1     -23.373 -19.025 -19.353  1.00  0.00     0.275 HD
ATOM     12  H22 UNL     1     -22.834 -18.743 -17.936  1.00  0.00     0.275 HD
ATOM     13  H21 UNL     1     -24.136 -17.799 -18.468  1.00  0.00     0.275 HD
ENDBRANCH   9  10
BRANCH   9  14
HETATM   14  C7  UNL     1     -22.484 -17.247 -20.735  1.00  0.00     0.204 C 
HETATM   15  O1  UNL     1     -21.651 -16.774 -21.521  1.00  0.00    -0.646 OA
HETATM   16  O2  UNL     1     -23.624 -17.840 -21.314  1.00  0.00    -0.646 OA
ENDBRANCH   9  14
ENDBRANCH   1   9
TORSDOF 7
ENDMDL
