MODEL 1
REMARK VINA RESULT: -4.080973865      0.000      0.000
REMARK  7 active torsions:
REMARK  status: ('A' for Active; 'I' for Inactive)
REMARK    1  A    between atoms: N1_2  and  C2_5 
REMARK    2  A    between atoms: C2_5  and  C3_6 
REMARK    3  A    between atoms: C3_6  and  C4_7 
REMARK    4  A    between atoms: C4_7  and  C5_8 
REMARK    5  A    between atoms: C5_8  and  C6_9 
REMARK    6  A    between atoms: C6_9  and  N2_10 
REMARK    7  A    between atoms: C6_9  and  C7_14 
ROOT
HETATM    1  C5  UNL     1     -23.851 -18.231 -20.303  1.00  0.00     0.044 C 
ENDROOT
BRANCH   1   2
HETATM    2  C4  UNL     1     -24.285 -18.572 -18.938  1.00  0.00     0.004 C 
BRANCH   2   3
HETATM    3  C3  UNL     1     -25.320 -19.671 -18.862  1.00  0.00     0.027 C 
BRANCH   3   4
HETATM    4  C2  UNL     1     -26.009 -19.764 -17.551  1.00  0.00     0.231 C 
BRANCH   4   5
HETATM    5  N1  UNL     1     -25.304 -18.950 -16.593  1.00  0.00    -0.079 N 
HETATM    6  C1  UNL     1     -26.059 -18.672 -15.401  1.00  0.00     0.266 C 
ATOM      7  H12 UNL     1     -24.982 -18.084 -17.025  1.00  0.00     0.276 HD
ATOM      8  H11 UNL     1     -24.404 -19.369 -16.359  1.00  0.00     0.276 HD
ENDBRANCH   4   5
ENDBRANCH   3   4
ENDBRANCH   2   3
ENDBRANCH   1   2
BRANCH   1   9
HETATM    9  C6  UNL     1     -22.575 -17.430 -20.299  1.00  0.00     0.283 C 
BRANCH   9  10
HETATM   10  N2  UNL     1     -22.669 -16.363 -19.289  1.00  0.00    -0.065 N 
ATOM     11  H23 UNL     1     -23.585 -15.917 -19.283  1.00  0.00     0.275 HD
ATOM     12  H22 UNL     1     -22.681 -16.732 -18.338  1.00  0.00     0.275 HD
ATOM     13  H21 UNL     1     -21.914 -15.692 -19.433  1.00  0.00     0.275 HD
ENDBRANCH   9  10
BRANCH   9  14
HETATM   14  C7  UNL     1     -22.318 -16.781 -21.599  1.00  0.00     0.204 C 
HETATM   15  O1  UNL     1     -23.206 -16.326 -22.331  1.00  0.00    -0.646 OA
HETATM   16  O2  UNL     1     -20.994 -16.652 -22.067  1.00  0.00    -0.646 OA
ENDBRANCH   9  14
ENDBRANCH   1   9
TORSDOF 7
ENDMDL
