MODEL 4
REMARK VINA RESULT: -10.412509146      1.668      2.314
REMARK  14 active torsions:
REMARK  status: ('A' for Active; 'I' for Inactive)
REMARK    1  A    between atoms: C2_2  and  N1_5 
REMARK       I    between atoms: N1_5  and  C5_7 
REMARK    2  A    between atoms: C5_7  and  C6_9 
REMARK    3  A    between atoms: N2_11  and  C8_12 
REMARK    4  A    between atoms: C8_12  and  C9_13 
REMARK    5  A    between atoms: N4_22  and  C16_23 
REMARK    6  A    between atoms: C16_23  and  C17_24 
REMARK    7  A    between atoms: C17_24  and  O2_25 
REMARK    8  A    between atoms: C17_24  and  C18_27 
REMARK    9  A    between atoms: C18_27  and  C19_28 
REMARK   10  A    between atoms: C19_28  and  C20_29 
REMARK   11  A    between atoms: C19_28  and  C27_36 
REMARK   12  A    between atoms: C20_29  and  C21_30 
REMARK       I    between atoms: C27_36  and  N5_38 
REMARK   13  A    between atoms: N5_38  and  C28_40 
REMARK   14  A    between atoms: C36_48  and  O4_49 
ROOT
HETATM    1  C17 UNL     1      29.322 -10.904   0.366  1.00  0.00     0.147 C 
ENDROOT
BRANCH   1   2
HETATM    2  C16 UNL     1      28.358 -12.026   0.638  1.00  0.00     0.305 C 
BRANCH   2   3
HETATM    3  N4  UNL     1      28.913 -13.335   0.639  1.00  0.00     0.108 N 
HETATM    4  C6  UNL     1      29.660 -13.733   1.780  1.00  0.00     0.342 C 
HETATM    5  C7  UNL     1      28.851 -14.228   2.924  1.00  0.00     0.318 C 
HETATM    6  N2  UNL     1      27.745 -15.073   2.613  1.00  0.00     0.097 N 
HETATM    7  C14 UNL     1      26.967 -14.551   1.505  1.00  0.00     0.303 C 
HETATM    8  C15 UNL     1      27.849 -14.277   0.335  1.00  0.00     0.303 C 
BRANCH   4   9
HETATM    9  C5  UNL     1      30.702 -14.729   1.327  1.00  0.00     0.253 C 
HETATM   10  N1  UNL     1      31.511 -15.390   2.290  1.00  0.00    -0.351 N 
ATOM     11  H1  UNL     1      31.384 -15.194   3.283  1.00  0.00     0.163 HD
HETATM   12  O1  UNL     1      30.863 -14.977   0.104  1.00  0.00    -0.271 OA
BRANCH  10  13
HETATM   13  C2  UNL     1      32.515 -16.340   1.862  1.00  0.00     0.022 C 
HETATM   14  C1  UNL     1      31.882 -17.539   1.200  1.00  0.00     0.037 C 
HETATM   15  C3  UNL     1      33.272 -16.837   3.085  1.00  0.00     0.037 C 
HETATM   16  C4  UNL     1      33.506 -15.700   0.899  1.00  0.00     0.037 C 
ENDBRANCH  10  13
ENDBRANCH   4   9
BRANCH   6  17
HETATM   17  C8  UNL     1      28.053 -16.464   2.460  1.00  0.00     0.312 C 
BRANCH  17  18
HETATM   18  C9  UNL     1      28.358 -17.044   3.817  1.00  0.00    -0.015 A 
HETATM   19  C10 UNL     1      27.409 -17.050   4.811  1.00  0.00     0.011 A 
HETATM   20  C11 UNL     1      27.700 -17.581   6.039  1.00  0.00     0.018 A 
HETATM   21  C12 UNL     1      28.946 -18.107   6.272  1.00  0.00     0.087 A 
HETATM   22  N3  UNL     1      29.877 -18.103   5.302  1.00  0.00    -0.375 N 
HETATM   23  C13 UNL     1      29.597 -17.581   4.088  1.00  0.00     0.096 A 
ATOM     24  H3  UNL     1      30.800 -18.496   5.483  1.00  0.00     0.164 HD
ENDBRANCH  17  18
ENDBRANCH   6  17
ENDBRANCH   2   3
ENDBRANCH   1   2
BRANCH   1  25
HETATM   25  O2  UNL     1      30.027 -10.715   1.585  1.00  0.00    -0.394 OA
ATOM     26  H2  UNL     1      29.710  -9.889   1.930  1.00  0.00     0.210 HD
ENDBRANCH   1  25
BRANCH   1  27
HETATM   27  C18 UNL     1      30.387 -11.347  -0.608  1.00  0.00     0.047 C 
BRANCH  27  28
HETATM   28  C19 UNL     1      30.674 -10.375  -1.721  1.00  0.00     0.084 C 
BRANCH  28  29
HETATM   29  C20 UNL     1      31.834 -10.707  -2.551  1.00  0.00     0.052 C 
BRANCH  29  30
HETATM   30  C21 UNL     1      32.332  -9.646  -3.437  1.00  0.00    -0.057 A 
HETATM   31  C22 UNL     1      32.322  -8.346  -2.918  1.00  0.00     0.007 A 
HETATM   32  C23 UNL     1      32.799  -7.268  -3.640  1.00  0.00     0.001 A 
HETATM   33  C24 UNL     1      33.304  -7.442  -4.910  1.00  0.00     0.000 A 
HETATM   34  C25 UNL     1      33.316  -8.718  -5.428  1.00  0.00     0.001 A 
HETATM   35  C26 UNL     1      32.835  -9.813  -4.700  1.00  0.00     0.007 A 
ENDBRANCH  29  30
ENDBRANCH  28  29
BRANCH  28  36
HETATM   36  C27 UNL     1      29.478 -10.038  -2.496  1.00  0.00     0.222 C 
HETATM   37  O3  UNL     1      28.731 -10.908  -2.962  1.00  0.00    -0.273 OA
HETATM   38  N5  UNL     1      29.100  -8.687  -2.761  1.00  0.00    -0.350 N 
ATOM     39  H5  UNL     1      29.677  -7.927  -2.400  1.00  0.00     0.163 HD
BRANCH  38  40
HETATM   40  C28 UNL     1      27.929  -8.377  -3.522  1.00  0.00     0.147 C 
HETATM   41  C29 UNL     1      27.075  -7.362  -2.887  1.00  0.00    -0.027 A 
HETATM   42  C30 UNL     1      26.099  -7.472  -1.929  1.00  0.00     0.010 A 
HETATM   43  C34 UNL     1      27.385  -6.129  -3.406  1.00  0.00    -0.047 A 
HETATM   44  C31 UNL     1      25.426  -6.362  -1.483  1.00  0.00     0.001 A 
HETATM   45  C32 UNL     1      25.752  -5.128  -2.018  1.00  0.00     0.001 A 
HETATM   46  C33 UNL     1      26.739  -4.980  -2.992  1.00  0.00     0.008 A 
HETATM   47  C35 UNL     1      28.471  -6.263  -4.425  1.00  0.00     0.073 C 
HETATM   48  C36 UNL     1      28.371  -7.722  -4.819  1.00  0.00     0.149 C 
BRANCH  48  49
HETATM   49  O4  UNL     1      29.647  -8.175  -5.103  1.00  0.00    -0.393 OA
ATOM     50  H4  UNL     1      29.906  -7.800  -5.936  1.00  0.00     0.210 HD
ENDBRANCH  48  49
ENDBRANCH  38  40
ENDBRANCH  28  36
ENDBRANCH  27  28
ENDBRANCH   1  27
TORSDOF 14
ENDMDL
