MODEL 1
REMARK VINA RESULT: -10.669189214      0.000      0.000
REMARK  14 active torsions:
REMARK  status: ('A' for Active; 'I' for Inactive)
REMARK    1  A    between atoms: C2_2  and  N1_5 
REMARK       I    between atoms: N1_5  and  C5_7 
REMARK    2  A    between atoms: C5_7  and  C6_9 
REMARK    3  A    between atoms: N2_11  and  C8_12 
REMARK    4  A    between atoms: C8_12  and  C9_13 
REMARK    5  A    between atoms: N4_22  and  C16_23 
REMARK    6  A    between atoms: C16_23  and  C17_24 
REMARK    7  A    between atoms: C17_24  and  O2_25 
REMARK    8  A    between atoms: C17_24  and  C18_27 
REMARK    9  A    between atoms: C18_27  and  C19_28 
REMARK   10  A    between atoms: C19_28  and  C20_29 
REMARK   11  A    between atoms: C19_28  and  C27_36 
REMARK   12  A    between atoms: C20_29  and  C21_30 
REMARK       I    between atoms: C27_36  and  N5_38 
REMARK   13  A    between atoms: N5_38  and  C28_40 
REMARK   14  A    between atoms: C36_48  and  O4_49 
ROOT
HETATM    1  C17 UNL     1      28.543 -11.788  -2.717  1.00  0.00     0.147 C 
ENDROOT
BRANCH   1   2
HETATM    2  C16 UNL     1      28.813 -11.859  -1.240  1.00  0.00     0.305 C 
BRANCH   2   3
HETATM    3  N4  UNL     1      29.263 -13.115  -0.750  1.00  0.00     0.108 N 
HETATM    4  C6  UNL     1      29.970 -13.127   0.483  1.00  0.00     0.342 C 
HETATM    5  C7  UNL     1      29.118 -13.118   1.700  1.00  0.00     0.318 C 
HETATM    6  N2  UNL     1      27.951 -13.936   1.676  1.00  0.00     0.097 N 
HETATM    7  C14 UNL     1      27.223 -13.796   0.429  1.00  0.00     0.303 C 
HETATM    8  C15 UNL     1      28.130 -14.025  -0.731  1.00  0.00     0.303 C 
BRANCH   4   9
HETATM    9  C5  UNL     1      30.933 -14.291   0.453  1.00  0.00     0.253 C 
HETATM   10  N1  UNL     1      31.567 -14.712   1.653  1.00  0.00    -0.351 N 
ATOM     11  H1  UNL     1      31.368 -14.231   2.530  1.00  0.00     0.163 HD
HETATM   12  O1  UNL     1      31.182 -14.890  -0.625  1.00  0.00    -0.271 OA
BRANCH  10  13
HETATM   13  C2  UNL     1      32.495 -15.822   1.630  1.00  0.00     0.022 C 
HETATM   14  C1  UNL     1      31.784 -17.120   1.342  1.00  0.00     0.037 C 
HETATM   15  C3  UNL     1      33.143 -15.947   3.001  1.00  0.00     0.037 C 
HETATM   16  C4  UNL     1      33.587 -15.607   0.591  1.00  0.00     0.037 C 
ENDBRANCH  10  13
ENDBRANCH   4   9
BRANCH   6  17
HETATM   17  C8  UNL     1      28.149 -15.307   2.044  1.00  0.00     0.312 C 
BRANCH  17  18
HETATM   18  C9  UNL     1      27.108 -15.690   3.064  1.00  0.00    -0.015 A 
HETATM   19  C10 UNL     1      25.964 -14.946   3.217  1.00  0.00     0.011 A 
HETATM   20  C11 UNL     1      25.026 -15.306   4.147  1.00  0.00     0.018 A 
HETATM   21  C12 UNL     1      25.236 -16.416   4.927  1.00  0.00     0.087 A 
HETATM   22  N3  UNL     1      26.354 -17.147   4.780  1.00  0.00    -0.375 N 
HETATM   23  C13 UNL     1      27.284 -16.797   3.864  1.00  0.00     0.096 A 
ATOM     24  H3  UNL     1      26.503 -17.970   5.363  1.00  0.00     0.164 HD
ENDBRANCH  17  18
ENDBRANCH   6  17
ENDBRANCH   2   3
ENDBRANCH   1   2
BRANCH   1  25
HETATM   25  O2  UNL     1      27.150 -11.534  -2.830  1.00  0.00    -0.394 OA
ATOM     26  H2  UNL     1      27.000 -11.377  -3.755  1.00  0.00     0.210 HD
ENDBRANCH   1  25
BRANCH   1  27
HETATM   27  C18 UNL     1      29.189 -10.561  -3.314  1.00  0.00     0.047 C 
BRANCH  27  28
HETATM   28  C19 UNL     1      29.209  -9.353  -2.415  1.00  0.00     0.084 C 
BRANCH  28  29
HETATM   29  C20 UNL     1      30.543  -8.841  -2.093  1.00  0.00     0.052 C 
BRANCH  29  30
HETATM   30  C21 UNL     1      31.548  -8.910  -3.162  1.00  0.00    -0.057 A 
HETATM   31  C22 UNL     1      31.862  -7.704  -3.800  1.00  0.00     0.007 A 
HETATM   32  C23 UNL     1      32.818  -7.631  -4.796  1.00  0.00     0.001 A 
HETATM   33  C24 UNL     1      33.500  -8.760  -5.197  1.00  0.00     0.000 A 
HETATM   34  C25 UNL     1      33.197  -9.950  -4.575  1.00  0.00     0.001 A 
HETATM   35  C26 UNL     1      32.230 -10.028  -3.565  1.00  0.00     0.007 A 
ENDBRANCH  29  30
ENDBRANCH  28  29
BRANCH  28  36
HETATM   36  C27 UNL     1      28.273  -8.314  -2.848  1.00  0.00     0.222 C 
HETATM   37  O3  UNL     1      27.058  -8.524  -2.944  1.00  0.00    -0.273 OA
HETATM   38  N5  UNL     1      28.705  -6.995  -3.185  1.00  0.00    -0.350 N 
ATOM     39  H5  UNL     1      29.697  -6.764  -3.122  1.00  0.00     0.163 HD
BRANCH  38  40
HETATM   40  C28 UNL     1      27.776  -5.993  -3.608  1.00  0.00     0.147 C 
HETATM   41  C29 UNL     1      27.562  -4.939  -2.605  1.00  0.00    -0.027 A 
HETATM   42  C30 UNL     1      26.723  -4.879  -1.521  1.00  0.00     0.010 A 
HETATM   43  C34 UNL     1      28.388  -3.879  -2.886  1.00  0.00    -0.047 A 
HETATM   44  C31 UNL     1      26.699  -3.770  -0.713  1.00  0.00     0.001 A 
HETATM   45  C32 UNL     1      27.538  -2.712  -1.013  1.00  0.00     0.001 A 
HETATM   46  C33 UNL     1      28.404  -2.739  -2.106  1.00  0.00     0.008 A 
HETATM   47  C35 UNL     1      29.201  -4.177  -4.105  1.00  0.00     0.073 C 
HETATM   48  C36 UNL     1      28.386  -5.255  -4.788  1.00  0.00     0.149 C 
BRANCH  48  49
HETATM   49  O4  UNL     1      29.264  -6.121  -5.414  1.00  0.00    -0.393 OA
ATOM     50  H4  UNL     1      29.276  -5.900  -6.338  1.00  0.00     0.210 HD
ENDBRANCH  48  49
ENDBRANCH  38  40
ENDBRANCH  28  36
ENDBRANCH  27  28
ENDBRANCH   1  27
TORSDOF 14
ENDMDL
