MODEL 15
REMARK VINA RESULT: -9.850638661      1.873      9.678
REMARK  14 active torsions:
REMARK  status: ('A' for Active; 'I' for Inactive)
REMARK    1  A    between atoms: C2_2  and  N1_5 
REMARK       I    between atoms: N1_5  and  C5_7 
REMARK    2  A    between atoms: C5_7  and  C6_9 
REMARK    3  A    between atoms: N2_11  and  C8_12 
REMARK    4  A    between atoms: C8_12  and  C9_13 
REMARK    5  A    between atoms: N4_22  and  C16_23 
REMARK    6  A    between atoms: C16_23  and  C17_24 
REMARK    7  A    between atoms: C17_24  and  O2_25 
REMARK    8  A    between atoms: C17_24  and  C18_27 
REMARK    9  A    between atoms: C18_27  and  C19_28 
REMARK   10  A    between atoms: C19_28  and  C20_29 
REMARK   11  A    between atoms: C19_28  and  C27_36 
REMARK   12  A    between atoms: C20_29  and  C21_30 
REMARK       I    between atoms: C27_36  and  N5_38 
REMARK   13  A    between atoms: N5_38  and  C28_40 
REMARK   14  A    between atoms: C36_48  and  O4_49 
ROOT
HETATM    1  C17 UNL     1      28.245 -12.722  -1.662  1.00  0.00     0.147 C 
ENDROOT
BRANCH   1   2
HETATM    2  C16 UNL     1      27.628 -11.373  -1.420  1.00  0.00     0.305 C 
BRANCH   2   3
HETATM    3  N4  UNL     1      28.417 -10.252  -1.797  1.00  0.00     0.108 N 
HETATM    4  C6  UNL     1      28.164  -9.665  -3.066  1.00  0.00     0.342 C 
HETATM    5  C7  UNL     1      27.033  -8.702  -3.103  1.00  0.00     0.318 C 
HETATM    6  N2  UNL     1      26.914  -7.807  -1.999  1.00  0.00     0.097 N 
HETATM    7  C14 UNL     1      27.081  -8.494  -0.732  1.00  0.00     0.303 C 
HETATM    8  C15 UNL     1      28.351  -9.272  -0.727  1.00  0.00     0.303 C 
BRANCH   4   9
HETATM    9  C5  UNL     1      29.458  -9.066  -3.566  1.00  0.00     0.253 C 
HETATM   10  N1  UNL     1      30.699  -9.610  -3.138  1.00  0.00    -0.351 N 
ATOM     11  H1  UNL     1      30.714 -10.404  -2.499  1.00  0.00     0.163 HD
HETATM   12  O1  UNL     1      29.447  -8.087  -4.357  1.00  0.00    -0.271 OA
BRANCH  10  13
HETATM   13  C2  UNL     1      31.941  -9.037  -3.610  1.00  0.00     0.022 C 
HETATM   14  C1  UNL     1      31.976  -8.979  -5.117  1.00  0.00     0.037 C 
HETATM   15  C3  UNL     1      33.092  -9.922  -3.156  1.00  0.00     0.037 C 
HETATM   16  C4  UNL     1      32.151  -7.637  -3.049  1.00  0.00     0.037 C 
ENDBRANCH  10  13
ENDBRANCH   4   9
BRANCH   6  17
HETATM   17  C8  UNL     1      27.699  -6.612  -2.083  1.00  0.00     0.312 C 
BRANCH  17  18
HETATM   18  C9  UNL     1      26.779  -5.421  -2.011  1.00  0.00    -0.015 A 
HETATM   19  C10 UNL     1      27.010  -4.404  -1.118  1.00  0.00     0.011 A 
HETATM   20  C11 UNL     1      26.166  -3.328  -1.064  1.00  0.00     0.018 A 
HETATM   21  C12 UNL     1      25.085  -3.271  -1.907  1.00  0.00     0.087 A 
HETATM   22  N3  UNL     1      24.855  -4.265  -2.783  1.00  0.00    -0.375 N 
HETATM   23  C13 UNL     1      25.684  -5.330  -2.842  1.00  0.00     0.096 A 
ATOM     24  H3  UNL     1      24.050  -4.215  -3.407  1.00  0.00     0.164 HD
ENDBRANCH  17  18
ENDBRANCH   6  17
ENDBRANCH   2   3
ENDBRANCH   1   2
BRANCH   1  25
HETATM   25  O2  UNL     1      28.161 -12.924  -3.065  1.00  0.00    -0.394 OA
ATOM     26  H2  UNL     1      28.483 -13.805  -3.210  1.00  0.00     0.210 HD
ENDBRANCH   1  25
BRANCH   1  27
HETATM   27  C18 UNL     1      29.729 -12.682  -1.387  1.00  0.00     0.047 C 
BRANCH  27  28
HETATM   28  C19 UNL     1      30.233 -13.757  -0.461  1.00  0.00     0.084 C 
BRANCH  28  29
HETATM   29  C20 UNL     1      31.683 -13.961  -0.477  1.00  0.00     0.052 C 
BRANCH  29  30
HETATM   30  C21 UNL     1      32.198 -15.081   0.322  1.00  0.00    -0.057 A 
HETATM   31  C22 UNL     1      32.911 -14.744   1.479  1.00  0.00     0.007 A 
HETATM   32  C23 UNL     1      33.414 -15.706   2.333  1.00  0.00     0.001 A 
HETATM   33  C24 UNL     1      33.227 -17.046   2.069  1.00  0.00     0.000 A 
HETATM   34  C25 UNL     1      32.526 -17.386   0.933  1.00  0.00     0.001 A 
HETATM   35  C26 UNL     1      32.014 -16.414   0.066  1.00  0.00     0.007 A 
ENDBRANCH  29  30
ENDBRANCH  28  29
BRANCH  28  36
HETATM   36  C27 UNL     1      29.673 -13.646   0.888  1.00  0.00     0.222 C 
HETATM   37  O3  UNL     1      29.762 -12.606   1.551  1.00  0.00    -0.273 OA
HETATM   38  N5  UNL     1      28.992 -14.731   1.518  1.00  0.00    -0.350 N 
ATOM     39  H5  UNL     1      28.887 -15.613   1.018  1.00  0.00     0.163 HD
BRANCH  38  40
HETATM   40  C28 UNL     1      28.453 -14.604   2.838  1.00  0.00     0.147 C 
HETATM   41  C29 UNL     1      26.986 -14.693   2.878  1.00  0.00    -0.027 A 
HETATM   42  C30 UNL     1      26.017 -13.742   2.680  1.00  0.00     0.010 A 
HETATM   43  C34 UNL     1      26.623 -15.985   3.168  1.00  0.00    -0.047 A 
HETATM   44  C31 UNL     1      24.686 -14.067   2.769  1.00  0.00     0.001 A 
HETATM   45  C32 UNL     1      24.341 -15.375   3.062  1.00  0.00     0.001 A 
HETATM   46  C33 UNL     1      25.299 -16.366   3.268  1.00  0.00     0.008 A 
HETATM   47  C35 UNL     1      27.845 -16.830   3.339  1.00  0.00     0.073 C 
HETATM   48  C36 UNL     1      28.913 -15.803   3.650  1.00  0.00     0.149 C 
BRANCH  48  49
HETATM   49  O4  UNL     1      30.103 -16.247   3.103  1.00  0.00    -0.393 OA
ATOM     50  H4  UNL     1      30.812 -15.867   3.610  1.00  0.00     0.210 HD
ENDBRANCH  48  49
ENDBRANCH  38  40
ENDBRANCH  28  36
ENDBRANCH  27  28
ENDBRANCH   1  27
TORSDOF 14
ENDMDL
