MODEL 3
REMARK VINA RESULT: -10.528229926      1.418      1.534
REMARK  14 active torsions:
REMARK  status: ('A' for Active; 'I' for Inactive)
REMARK    1  A    between atoms: C2_2  and  N1_5 
REMARK       I    between atoms: N1_5  and  C5_7 
REMARK    2  A    between atoms: C5_7  and  C6_9 
REMARK    3  A    between atoms: N2_11  and  C8_12 
REMARK    4  A    between atoms: C8_12  and  C9_13 
REMARK    5  A    between atoms: N4_22  and  C16_23 
REMARK    6  A    between atoms: C16_23  and  C17_24 
REMARK    7  A    between atoms: C17_24  and  O2_25 
REMARK    8  A    between atoms: C17_24  and  C18_27 
REMARK    9  A    between atoms: C18_27  and  C19_28 
REMARK   10  A    between atoms: C19_28  and  C20_29 
REMARK   11  A    between atoms: C19_28  and  C27_36 
REMARK   12  A    between atoms: C20_29  and  C21_30 
REMARK       I    between atoms: C27_36  and  N5_38 
REMARK   13  A    between atoms: N5_38  and  C28_40 
REMARK   14  A    between atoms: C36_48  and  O4_49 
ROOT
HETATM    1  C17 UNL     1      28.980 -11.572  -2.717  1.00  0.00     0.147 C 
ENDROOT
BRANCH   1   2
HETATM    2  C16 UNL     1      28.656 -11.905  -1.287  1.00  0.00     0.305 C 
BRANCH   2   3
HETATM    3  N4  UNL     1      29.199 -13.124  -0.796  1.00  0.00     0.108 N 
HETATM    4  C6  UNL     1      29.972 -13.069   0.395  1.00  0.00     0.342 C 
HETATM    5  C7  UNL     1      29.189 -13.072   1.659  1.00  0.00     0.318 C 
HETATM    6  N2  UNL     1      28.067 -13.951   1.718  1.00  0.00     0.097 N 
HETATM    7  C14 UNL     1      27.266 -13.879   0.511  1.00  0.00     0.303 C 
HETATM    8  C15 UNL     1      28.119 -14.090  -0.692  1.00  0.00     0.303 C 
BRANCH   4   9
HETATM    9  C5  UNL     1      30.993 -14.181   0.338  1.00  0.00     0.253 C 
HETATM   10  N1  UNL     1      31.684 -14.565   1.518  1.00  0.00    -0.351 N 
ATOM     11  H1  UNL     1      31.488 -14.092   2.401  1.00  0.00     0.163 HD
HETATM   12  O1  UNL     1      31.238 -14.770  -0.747  1.00  0.00    -0.271 OA
BRANCH  10  13
HETATM   13  C2  UNL     1      32.667 -15.625   1.468  1.00  0.00     0.022 C 
HETATM   14  C1  UNL     1      32.074 -16.891   0.900  1.00  0.00     0.037 C 
HETATM   15  C3  UNL     1      33.131 -15.931   2.884  1.00  0.00     0.037 C 
HETATM   16  C4  UNL     1      33.875 -15.220   0.634  1.00  0.00     0.037 C 
ENDBRANCH  10  13
ENDBRANCH   4   9
BRANCH   6  17
HETATM   17  C8  UNL     1      28.358 -15.299   2.104  1.00  0.00     0.312 C 
BRANCH  17  18
HETATM   18  C9  UNL     1      27.325 -15.750   3.106  1.00  0.00    -0.015 A 
HETATM   19  C10 UNL     1      26.187 -15.013   3.325  1.00  0.00     0.011 A 
HETATM   20  C11 UNL     1      25.258 -15.434   4.237  1.00  0.00     0.018 A 
HETATM   21  C12 UNL     1      25.470 -16.597   4.934  1.00  0.00     0.087 A 
HETATM   22  N3  UNL     1      26.582 -17.321   4.722  1.00  0.00    -0.375 N 
HETATM   23  C13 UNL     1      27.504 -16.912   3.823  1.00  0.00     0.096 A 
ATOM     24  H3  UNL     1      26.732 -18.185   5.243  1.00  0.00     0.164 HD
ENDBRANCH  17  18
ENDBRANCH   6  17
ENDBRANCH   2   3
ENDBRANCH   1   2
BRANCH   1  25
HETATM   25  O2  UNL     1      28.283 -12.537  -3.491  1.00  0.00    -0.394 OA
ATOM     26  H2  UNL     1      28.920 -13.218  -3.673  1.00  0.00     0.210 HD
ENDBRANCH   1  25
BRANCH   1  27
HETATM   27  C18 UNL     1      28.345 -10.260  -3.110  1.00  0.00     0.047 C 
BRANCH  27  28
HETATM   28  C19 UNL     1      28.864  -9.056  -2.370  1.00  0.00     0.084 C 
BRANCH  28  29
HETATM   29  C20 UNL     1      29.757  -8.190  -3.143  1.00  0.00     0.052 C 
BRANCH  29  30
HETATM   30  C21 UNL     1      31.061  -8.755  -3.516  1.00  0.00    -0.057 A 
HETATM   31  C22 UNL     1      31.438  -8.620  -4.858  1.00  0.00     0.007 A 
HETATM   32  C23 UNL     1      32.655  -9.078  -5.324  1.00  0.00     0.001 A 
HETATM   33  C24 UNL     1      33.548  -9.690  -4.472  1.00  0.00     0.000 A 
HETATM   34  C25 UNL     1      33.185  -9.828  -3.150  1.00  0.00     0.001 A 
HETATM   35  C26 UNL     1      31.952  -9.364  -2.674  1.00  0.00     0.007 A 
ENDBRANCH  29  30
ENDBRANCH  28  29
BRANCH  28  36
HETATM   36  C27 UNL     1      27.805  -8.327  -1.669  1.00  0.00     0.222 C 
HETATM   37  O3  UNL     1      27.228  -8.796  -0.682  1.00  0.00    -0.273 OA
HETATM   38  N5  UNL     1      27.376  -7.029  -2.083  1.00  0.00    -0.350 N 
ATOM     39  H5  UNL     1      27.817  -6.591  -2.891  1.00  0.00     0.163 HD
BRANCH  38  40
HETATM   40  C28 UNL     1      26.338  -6.332  -1.387  1.00  0.00     0.147 C 
HETATM   41  C29 UNL     1      26.718  -4.967  -0.994  1.00  0.00    -0.027 A 
HETATM   42  C30 UNL     1      27.399  -4.497   0.100  1.00  0.00     0.010 A 
HETATM   43  C34 UNL     1      26.270  -4.086  -1.947  1.00  0.00    -0.047 A 
HETATM   44  C31 UNL     1      27.640  -3.155   0.254  1.00  0.00     0.001 A 
HETATM   45  C32 UNL     1      27.181  -2.283  -0.718  1.00  0.00     0.001 A 
HETATM   46  C33 UNL     1      26.486  -2.726  -1.842  1.00  0.00     0.008 A 
HETATM   47  C35 UNL     1      25.561  -4.829  -3.034  1.00  0.00     0.073 C 
HETATM   48  C36 UNL     1      25.182  -6.126  -2.351  1.00  0.00     0.149 C 
BRANCH  48  49
HETATM   49  O4  UNL     1      25.238  -7.136  -3.294  1.00  0.00    -0.393 OA
ATOM     50  H4  UNL     1      24.374  -7.527  -3.349  1.00  0.00     0.210 HD
ENDBRANCH  48  49
ENDBRANCH  38  40
ENDBRANCH  28  36
ENDBRANCH  27  28
ENDBRANCH   1  27
TORSDOF 14
ENDMDL
