MODEL 7
REMARK VINA RESULT: -9.633469667      2.305      5.293
REMARK  11 active torsions:
REMARK  status: ('A' for Active; 'I' for Inactive)
REMARK    1  A    between atoms: C4_9  and  N4_10 
REMARK    2  A    between atoms: N5_16  and  C9_17 
REMARK    3  A    between atoms: C10_19  and  C11_20 
REMARK    4  A    between atoms: C11_20  and  O3_21 
REMARK    5  A    between atoms: O3_21  and  P1_22 
REMARK    6  A    between atoms: P1_22  and  O6_25 
REMARK    7  A    between atoms: O6_25  and  P2_26 
REMARK    8  A    between atoms: P2_26  and  O9_29 
REMARK    9  A    between atoms: O9_29  and  P3_30 
REMARK   10  A    between atoms: C12_34  and  O13_35 
REMARK   11  A    between atoms: C13_37  and  O14_38 
ROOT
HETATM    1  C9  UNL     1      -8.883  -1.904  13.591  1.00  0.00     0.279 C 
HETATM    2  O2  UNL     1      -9.880  -2.629  12.922  1.00  0.00    -0.353 OA
HETATM    3  C10 UNL     1     -10.469  -1.622  12.164  1.00  0.00     0.180 C 
HETATM    4  C12 UNL     1      -9.285  -1.070  11.420  1.00  0.00     0.182 C 
HETATM    5  C13 UNL     1      -8.245  -1.023  12.520  1.00  0.00     0.199 C 
ENDROOT
BRANCH   1   6
HETATM    6  N5  UNL     1      -7.913  -2.740  14.227  1.00  0.00    -0.136 N 
HETATM    7  C2  UNL     1      -7.408  -3.898  13.731  1.00  0.00     0.162 A 
HETATM    8  N2  UNL     1      -7.675  -4.532  12.577  1.00  0.00    -0.314 N 
HETATM    9  C3  UNL     1      -6.498  -4.396  14.647  1.00  0.00     0.162 A 
HETATM   10  C1  UNL     1      -7.035  -5.685  12.309  1.00  0.00     0.196 A 
ATOM     11  H2  UNL     1      -8.350  -4.147  11.917  1.00  0.00     0.170 HD
HETATM   12  N1  UNL     1      -7.287  -6.389  11.096  1.00  0.00    -0.063 NA
HETATM   13  N6  UNL     1      -6.136  -6.184  13.205  1.00  0.00    -0.295 N 
HETATM   14  C14 UNL     1      -5.850  -5.574  14.368  1.00  0.00     0.279 A 
ATOM     15  H6  UNL     1      -5.662  -7.060  12.984  1.00  0.00     0.171 HD
HETATM   16  O15 UNL     1      -5.025  -6.025  15.198  1.00  0.00    -0.265 OA
HETATM   17  N3  UNL     1      -6.474  -3.532  15.671  1.00  0.00    -0.182 N 
HETATM   18  C4  UNL     1      -7.338  -2.511  15.421  1.00  0.00     0.687 A 
ATOM     19  H3  UNL     1      -5.897  -3.625  16.508  1.00  0.00     0.184 HD
BRANCH  18  20
HETATM   20  N4  UNL     1      -7.625  -1.391  16.231  1.00  0.00    -0.213 N 
HETATM   21  C5  UNL     1      -8.962  -1.172  16.721  1.00  0.00     0.167 C 
HETATM   22  C6  UNL     1      -8.842  -1.019  18.243  1.00  0.00     0.188 C 
HETATM   23  O1  UNL     1      -7.980   0.030  18.480  1.00  0.00    -0.388 OA
HETATM   24  C7  UNL     1      -6.684  -0.214  18.091  1.00  0.00     0.188 C 
HETATM   25  C8  UNL     1      -6.590  -0.451  16.579  1.00  0.00     0.167 C 
ENDBRANCH  18  20
ENDBRANCH   1   6
BRANCH   5  26
HETATM   26  O14 UNL     1      -8.169   0.272  13.083  1.00  0.00    -0.388 OA
ATOM     27  H14 UNL     1      -7.791   0.824  12.409  1.00  0.00     0.210 HD
ENDBRANCH   5  26
BRANCH   3  28
HETATM   28  C11 UNL     1     -11.569  -2.117  11.278  1.00  0.00     0.216 C 
BRANCH  28  29
HETATM   29  O3  UNL     1     -11.126  -3.129  10.477  1.00  0.00    -0.287 OA
BRANCH  29  30
HETATM   30  P1  UNL     1     -11.628  -3.186   8.944  1.00  0.00     0.417 P 
HETATM   31  O4  UNL     1     -13.300  -2.969   8.619  1.00  0.00    -0.624 OA
HETATM   32  O5  UNL     1     -11.852  -4.684   8.894  1.00  0.00    -0.624 OA
BRANCH  30  33
HETATM   33  O6  UNL     1     -10.578  -3.169   7.713  1.00  0.00    -0.180 OA
BRANCH  33  34
HETATM   34  P2  UNL     1     -10.152  -1.949   6.922  1.00  0.00     0.428 P 
HETATM   35  O7  UNL     1     -10.742  -0.901   8.038  1.00  0.00    -0.624 OA
HETATM   36  O8  UNL     1     -11.124  -2.407   5.641  1.00  0.00    -0.624 OA
BRANCH  34  37
HETATM   37  O9  UNL     1      -8.572  -2.379   6.926  1.00  0.00    -0.173 OA
BRANCH  37  38
HETATM   38  P3  UNL     1      -7.939  -2.776   8.270  1.00  0.00     0.431 P 
HETATM   39  O10 UNL     1      -7.411  -1.237   8.500  1.00  0.00    -0.616 OA
HETATM   40  O11 UNL     1      -7.411  -3.272   9.627  1.00  0.00    -0.616 OA
HETATM   41  O12 UNL     1      -6.920  -3.826   7.486  1.00  0.00    -0.616 OA
ENDBRANCH  37  38
ENDBRANCH  34  37
ENDBRANCH  33  34
ENDBRANCH  30  33
ENDBRANCH  29  30
ENDBRANCH  28  29
ENDBRANCH   3  28
BRANCH   4  42
HETATM   42  O13 UNL     1      -9.532   0.192  10.889  1.00  0.00    -0.390 OA
ATOM     43  H13 UNL     1      -8.833   0.807  11.075  1.00  0.00     0.210 HD
ENDBRANCH   4  42
TORSDOF 11
ENDMDL
