MODEL 2
REMARK VINA RESULT: -10.237490884      1.461      3.936
REMARK  11 active torsions:
REMARK  status: ('A' for Active; 'I' for Inactive)
REMARK    1  A    between atoms: C4_9  and  N4_10 
REMARK    2  A    between atoms: N5_16  and  C9_17 
REMARK    3  A    between atoms: C10_19  and  C11_20 
REMARK    4  A    between atoms: C11_20  and  O3_21 
REMARK    5  A    between atoms: O3_21  and  P1_22 
REMARK    6  A    between atoms: P1_22  and  O6_25 
REMARK    7  A    between atoms: O6_25  and  P2_26 
REMARK    8  A    between atoms: P2_26  and  O9_29 
REMARK    9  A    between atoms: O9_29  and  P3_30 
REMARK   10  A    between atoms: C12_34  and  O13_35 
REMARK   11  A    between atoms: C13_37  and  O14_38 
ROOT
HETATM    1  C9  UNL     1      -6.230  -4.527  14.319  1.00  0.00     0.279 C 
HETATM    2  O2  UNL     1      -6.490  -4.107  13.006  1.00  0.00    -0.353 OA
HETATM    3  C10 UNL     1      -6.894  -5.305  12.425  1.00  0.00     0.180 C 
HETATM    4  C12 UNL     1      -8.012  -5.723  13.339  1.00  0.00     0.182 C 
HETATM    5  C13 UNL     1      -7.412  -5.415  14.695  1.00  0.00     0.199 C 
ENDROOT
BRANCH   1   6
HETATM    6  N5  UNL     1      -6.079  -3.440  15.235  1.00  0.00    -0.136 N 
HETATM    7  C2  UNL     1      -4.930  -3.074  15.859  1.00  0.00     0.162 A 
HETATM    8  N2  UNL     1      -3.701  -3.609  15.787  1.00  0.00    -0.314 N 
HETATM    9  C3  UNL     1      -5.207  -1.978  16.657  1.00  0.00     0.162 A 
HETATM   10  C1  UNL     1      -2.711  -3.059  16.513  1.00  0.00     0.196 A 
ATOM     11  H2  UNL     1      -3.520  -4.418  15.192  1.00  0.00     0.170 HD
HETATM   12  N1  UNL     1      -1.392  -3.594  16.464  1.00  0.00    -0.063 NA
HETATM   13  N6  UNL     1      -2.973  -1.978  17.303  1.00  0.00    -0.295 N 
HETATM   14  C14 UNL     1      -4.192  -1.421  17.397  1.00  0.00     0.279 A 
ATOM     15  H6  UNL     1      -2.209  -1.575  17.846  1.00  0.00     0.171 HD
HETATM   16  O15 UNL     1      -4.443  -0.427  18.120  1.00  0.00    -0.265 OA
HETATM   17  N3  UNL     1      -6.510  -1.707  16.499  1.00  0.00    -0.182 N 
HETATM   18  C4  UNL     1      -7.053  -2.599  15.626  1.00  0.00     0.687 A 
ATOM     19  H3  UNL     1      -7.015  -0.950  16.960  1.00  0.00     0.184 HD
BRANCH  18  20
HETATM   20  N4  UNL     1      -8.389  -2.679  15.178  1.00  0.00    -0.213 N 
HETATM   21  C5  UNL     1      -9.374  -3.389  15.954  1.00  0.00     0.167 C 
HETATM   22  C6  UNL     1     -10.533  -2.408  16.178  1.00  0.00     0.188 C 
HETATM   23  O1  UNL     1     -10.978  -2.013  14.935  1.00  0.00    -0.388 OA
HETATM   24  C7  UNL     1     -10.068  -1.261  14.230  1.00  0.00     0.188 C 
HETATM   25  C8  UNL     1      -8.789  -2.056  13.942  1.00  0.00     0.167 C 
ENDBRANCH  18  20
ENDBRANCH   1   6
BRANCH   5  26
HETATM   26  O14 UNL     1      -6.852  -6.578  15.271  1.00  0.00    -0.388 OA
ATOM     27  H14 UNL     1      -7.322  -6.715  16.085  1.00  0.00     0.210 HD
ENDBRANCH   5  26
BRANCH   3  28
HETATM   28  C11 UNL     1      -7.299  -5.160  10.992  1.00  0.00     0.216 C 
BRANCH  28  29
HETATM   29  O3  UNL     1      -7.986  -3.996  10.800  1.00  0.00    -0.287 OA
BRANCH  29  30
HETATM   30  P1  UNL     1      -7.315  -2.836   9.900  1.00  0.00     0.417 P 
HETATM   31  O4  UNL     1      -5.602  -2.750   9.817  1.00  0.00    -0.624 OA
HETATM   32  O5  UNL     1      -7.276  -1.780  10.988  1.00  0.00    -0.624 OA
BRANCH  30  33
HETATM   33  O6  UNL     1      -8.198  -1.943   8.881  1.00  0.00    -0.180 OA
BRANCH  33  34
HETATM   34  P2  UNL     1      -8.460  -2.254   7.421  1.00  0.00     0.428 P 
HETATM   35  O7  UNL     1      -7.309  -3.421   7.365  1.00  0.00    -0.624 OA
HETATM   36  O8  UNL     1      -8.056  -0.690   6.989  1.00  0.00    -0.624 OA
BRANCH  34  37
HETATM   37  O9  UNL     1     -10.031  -2.634   7.685  1.00  0.00    -0.173 OA
BRANCH  37  38
HETATM   38  P3  UNL     1     -11.104  -1.769   7.005  1.00  0.00     0.431 P 
HETATM   39  O10 UNL     1     -12.291  -2.568   7.813  1.00  0.00    -0.616 OA
HETATM   40  O11 UNL     1     -12.080  -0.796   6.320  1.00  0.00    -0.616 OA
HETATM   41  O12 UNL     1     -10.652  -2.363   5.522  1.00  0.00    -0.616 OA
ENDBRANCH  37  38
ENDBRANCH  34  37
ENDBRANCH  33  34
ENDBRANCH  30  33
ENDBRANCH  29  30
ENDBRANCH  28  29
ENDBRANCH   3  28
BRANCH   4  42
HETATM   42  O13 UNL     1      -8.329  -7.072  13.209  1.00  0.00    -0.390 OA
ATOM     43  H13 UNL     1      -8.239  -7.546  14.027  1.00  0.00     0.210 HD
ENDBRANCH   4  42
TORSDOF 11
ENDMDL
