MODEL 10
REMARK VINA RESULT: -9.458711608      2.694      4.147
REMARK  11 active torsions:
REMARK  status: ('A' for Active; 'I' for Inactive)
REMARK    1  A    between atoms: C4_9  and  N4_10 
REMARK    2  A    between atoms: N5_16  and  C9_17 
REMARK    3  A    between atoms: C10_19  and  C11_20 
REMARK    4  A    between atoms: C11_20  and  O3_21 
REMARK    5  A    between atoms: O3_21  and  P1_22 
REMARK    6  A    between atoms: P1_22  and  O6_25 
REMARK    7  A    between atoms: O6_25  and  P2_26 
REMARK    8  A    between atoms: P2_26  and  O9_29 
REMARK    9  A    between atoms: O9_29  and  P3_30 
REMARK   10  A    between atoms: C12_34  and  O13_35 
REMARK   11  A    between atoms: C13_37  and  O14_38 
ROOT
HETATM    1  C9  UNL     1      -8.524  -3.283  14.743  1.00  0.00     0.279 C 
HETATM    2  O2  UNL     1      -9.178  -3.456  13.515  1.00  0.00    -0.353 OA
HETATM    3  C10 UNL     1      -8.147  -3.982  12.743  1.00  0.00     0.180 C 
HETATM    4  C12 UNL     1      -7.725  -5.167  13.567  1.00  0.00     0.182 C 
HETATM    5  C13 UNL     1      -7.737  -4.573  14.960  1.00  0.00     0.199 C 
ENDROOT
BRANCH   1   6
HETATM    6  N5  UNL     1      -9.422  -3.031  15.827  1.00  0.00    -0.136 N 
HETATM    7  C2  UNL     1     -10.532  -3.751  16.128  1.00  0.00     0.162 A 
HETATM    8  N2  UNL     1     -11.053  -4.830  15.521  1.00  0.00    -0.314 N 
HETATM    9  C3  UNL     1     -11.120  -3.184  17.246  1.00  0.00     0.162 A 
HETATM   10  C1  UNL     1     -12.180  -5.372  16.018  1.00  0.00     0.196 A 
ATOM     11  H2  UNL     1     -10.603  -5.231  14.698  1.00  0.00     0.170 HD
HETATM   12  N1  UNL     1     -12.765  -6.517  15.404  1.00  0.00    -0.063 NA
HETATM   13  N6  UNL     1     -12.767  -4.820  17.119  1.00  0.00    -0.295 N 
HETATM   14  C14 UNL     1     -12.270  -3.742  17.747  1.00  0.00     0.279 A 
ATOM     15  H6  UNL     1     -13.621  -5.246  17.480  1.00  0.00     0.171 HD
HETATM   16  O15 UNL     1     -12.803  -3.228  18.760  1.00  0.00    -0.265 OA
HETATM   17  N3  UNL     1     -10.356  -2.139  17.592  1.00  0.00    -0.182 N 
HETATM   18  C4  UNL     1      -9.311  -2.038  16.727  1.00  0.00     0.687 A 
ATOM     19  H3  UNL     1     -10.531  -1.516  18.381  1.00  0.00     0.184 HD
BRANCH  18  20
HETATM   20  N4  UNL     1      -8.269  -1.085  16.722  1.00  0.00    -0.213 N 
HETATM   21  C5  UNL     1      -8.442   0.177  16.049  1.00  0.00     0.167 C 
HETATM   22  C6  UNL     1      -8.118   1.264  17.082  1.00  0.00     0.188 C 
HETATM   23  O1  UNL     1      -6.832   1.036  17.523  1.00  0.00    -0.388 OA
HETATM   24  C7  UNL     1      -6.686  -0.127  18.241  1.00  0.00     0.188 C 
HETATM   25  C8  UNL     1      -7.021  -1.357  17.388  1.00  0.00     0.167 C 
ENDBRANCH  18  20
ENDBRANCH   1   6
BRANCH   5  26
HETATM   26  O14 UNL     1      -6.436  -4.170  15.343  1.00  0.00    -0.388 OA
ATOM     27  H14 UNL     1      -5.968  -4.006  14.534  1.00  0.00     0.210 HD
ENDBRANCH   5  26
BRANCH   3  28
HETATM   28  C11 UNL     1      -8.570  -4.328  11.350  1.00  0.00     0.216 C 
BRANCH  28  29
HETATM   29  O3  UNL     1      -7.484  -4.464  10.534  1.00  0.00    -0.287 OA
BRANCH  29  30
HETATM   30  P1  UNL     1      -6.713  -3.136  10.036  1.00  0.00     0.417 P 
HETATM   31  O4  UNL     1      -4.997  -3.120  10.078  1.00  0.00    -0.624 OA
HETATM   32  O5  UNL     1      -6.714  -2.427  11.375  1.00  0.00    -0.624 OA
BRANCH  30  33
HETATM   33  O6  UNL     1      -7.493  -1.951   9.259  1.00  0.00    -0.180 OA
BRANCH  33  34
HETATM   34  P2  UNL     1      -7.938  -1.977   7.810  1.00  0.00     0.428 P 
HETATM   35  O7  UNL     1      -6.991  -3.265   7.443  1.00  0.00    -0.624 OA
HETATM   36  O8  UNL     1      -7.340  -0.433   7.572  1.00  0.00    -0.624 OA
BRANCH  34  37
HETATM   37  O9  UNL     1      -9.516  -2.177   8.198  1.00  0.00    -0.173 OA
BRANCH  37  38
HETATM   38  P3  UNL     1     -10.558  -2.002   7.082  1.00  0.00     0.431 P 
HETATM   39  O10 UNL     1     -11.310  -3.391   7.536  1.00  0.00    -0.616 OA
HETATM   40  O11 UNL     1     -11.584  -1.683   5.980  1.00  0.00    -0.616 OA
HETATM   41  O12 UNL     1      -9.361  -2.117   5.937  1.00  0.00    -0.616 OA
ENDBRANCH  37  38
ENDBRANCH  34  37
ENDBRANCH  33  34
ENDBRANCH  30  33
ENDBRANCH  29  30
ENDBRANCH  28  29
ENDBRANCH   3  28
BRANCH   4  42
HETATM   42  O13 UNL     1      -6.463  -5.637  13.216  1.00  0.00    -0.390 OA
ATOM     43  H13 UNL     1      -6.218  -6.416  13.701  1.00  0.00     0.210 HD
ENDBRANCH   4  42
TORSDOF 11
ENDMDL
