MODEL 9
REMARK VINA RESULT: -9.467634796      1.628      4.228
REMARK  11 active torsions:
REMARK  status: ('A' for Active; 'I' for Inactive)
REMARK    1  A    between atoms: C4_9  and  N4_10 
REMARK    2  A    between atoms: N5_16  and  C9_17 
REMARK    3  A    between atoms: C10_19  and  C11_20 
REMARK    4  A    between atoms: C11_20  and  O3_21 
REMARK    5  A    between atoms: O3_21  and  P1_22 
REMARK    6  A    between atoms: P1_22  and  O6_25 
REMARK    7  A    between atoms: O6_25  and  P2_26 
REMARK    8  A    between atoms: P2_26  and  O9_29 
REMARK    9  A    between atoms: O9_29  and  P3_30 
REMARK   10  A    between atoms: C12_34  and  O13_35 
REMARK   11  A    between atoms: C13_37  and  O14_38 
ROOT
HETATM    1  C9  UNL     1      -6.187  -4.451  14.205  1.00  0.00     0.279 C 
HETATM    2  O2  UNL     1      -6.799  -4.071  13.002  1.00  0.00    -0.353 OA
HETATM    3  C10 UNL     1      -7.085  -5.316  12.450  1.00  0.00     0.180 C 
HETATM    4  C12 UNL     1      -7.879  -5.961  13.552  1.00  0.00     0.182 C 
HETATM    5  C13 UNL     1      -7.070  -5.561  14.768  1.00  0.00     0.199 C 
ENDROOT
BRANCH   1   6
HETATM    6  N5  UNL     1      -6.050  -3.371  15.131  1.00  0.00    -0.136 N 
HETATM    7  C2  UNL     1      -4.917  -3.026  15.793  1.00  0.00     0.162 A 
HETATM    8  N2  UNL     1      -3.693  -3.579  15.759  1.00  0.00    -0.314 N 
HETATM    9  C3  UNL     1      -5.202  -1.928  16.588  1.00  0.00     0.162 A 
HETATM   10  C1  UNL     1      -2.720  -3.047  16.519  1.00  0.00     0.196 A 
ATOM     11  H2  UNL     1      -3.506  -4.388  15.166  1.00  0.00     0.170 HD
HETATM   12  N1  UNL     1      -1.407  -3.602  16.511  1.00  0.00    -0.063 NA
HETATM   13  N6  UNL     1      -2.991  -1.965  17.305  1.00  0.00    -0.295 N 
HETATM   14  C14 UNL     1      -4.204  -1.391  17.362  1.00  0.00     0.279 A 
ATOM     15  H6  UNL     1      -2.239  -1.576  17.875  1.00  0.00     0.171 HD
HETATM   16  O15 UNL     1      -4.463  -0.396  18.082  1.00  0.00    -0.265 OA
HETATM   17  N3  UNL     1      -6.495  -1.637  16.388  1.00  0.00    -0.182 N 
HETATM   18  C4  UNL     1      -7.023  -2.518  15.495  1.00  0.00     0.687 A 
ATOM     19  H3  UNL     1      -7.004  -0.876  16.837  1.00  0.00     0.184 HD
BRANCH  18  20
HETATM   20  N4  UNL     1      -8.345  -2.575  15.003  1.00  0.00    -0.213 N 
HETATM   21  C5  UNL     1      -9.339  -3.367  15.682  1.00  0.00     0.167 C 
HETATM   22  C6  UNL     1     -10.519  -2.428  15.962  1.00  0.00     0.188 C 
HETATM   23  O1  UNL     1     -10.937  -1.927  14.748  1.00  0.00    -0.388 OA
HETATM   24  C7  UNL     1     -10.022  -1.101  14.140  1.00  0.00     0.188 C 
HETATM   25  C8  UNL     1      -8.721  -1.847  13.818  1.00  0.00     0.167 C 
ENDBRANCH  18  20
ENDBRANCH   1   6
BRANCH   5  26
HETATM   26  O14 UNL     1      -6.188  -6.601  15.146  1.00  0.00    -0.388 OA
ATOM     27  H14 UNL     1      -5.479  -6.580  14.515  1.00  0.00     0.210 HD
ENDBRANCH   5  26
BRANCH   3  28
HETATM   28  C11 UNL     1      -7.812  -5.230  11.145  1.00  0.00     0.216 C 
BRANCH  28  29
HETATM   29  O3  UNL     1      -6.970  -4.833  10.148  1.00  0.00    -0.287 OA
BRANCH  29  30
HETATM   30  P1  UNL     1      -7.377  -3.557   9.247  1.00  0.00     0.417 P 
HETATM   31  O4  UNL     1      -7.077  -3.616   7.557  1.00  0.00    -0.624 OA
HETATM   32  O5  UNL     1      -6.069  -2.808   9.412  1.00  0.00    -0.624 OA
BRANCH  30  33
HETATM   33  O6  UNL     1      -8.290  -2.362   9.843  1.00  0.00    -0.180 OA
BRANCH  33  34
HETATM   34  P2  UNL     1      -9.733  -2.075   9.478  1.00  0.00     0.428 P 
HETATM   35  O7  UNL     1      -9.886  -0.901  10.613  1.00  0.00    -0.624 OA
HETATM   36  O8  UNL     1     -10.169  -3.643   9.864  1.00  0.00    -0.624 OA
BRANCH  34  37
HETATM   37  O9  UNL     1      -9.366  -1.702   7.926  1.00  0.00    -0.173 OA
BRANCH  37  38
HETATM   38  P3  UNL     1     -10.502  -1.739   6.891  1.00  0.00     0.431 P 
HETATM   39  O10 UNL     1      -9.445  -2.189   5.716  1.00  0.00    -0.616 OA
HETATM   40  O11 UNL     1     -11.727  -1.812   5.963  1.00  0.00    -0.616 OA
HETATM   41  O12 UNL     1     -10.760  -0.113   7.107  1.00  0.00    -0.616 OA
ENDBRANCH  37  38
ENDBRANCH  34  37
ENDBRANCH  33  34
ENDBRANCH  30  33
ENDBRANCH  29  30
ENDBRANCH  28  29
ENDBRANCH   3  28
BRANCH   4  42
HETATM   42  O13 UNL     1      -7.955  -7.344  13.413  1.00  0.00    -0.390 OA
ATOM     43  H13 UNL     1      -7.779  -7.800  14.227  1.00  0.00     0.210 HD
ENDBRANCH   4  42
TORSDOF 11
ENDMDL
