MODEL 13
REMARK VINA RESULT: -9.395942881      2.652      4.561
REMARK  11 active torsions:
REMARK  status: ('A' for Active; 'I' for Inactive)
REMARK    1  A    between atoms: C4_9  and  N4_10 
REMARK    2  A    between atoms: N5_16  and  C9_17 
REMARK    3  A    between atoms: C10_19  and  C11_20 
REMARK    4  A    between atoms: C11_20  and  O3_21 
REMARK    5  A    between atoms: O3_21  and  P1_22 
REMARK    6  A    between atoms: P1_22  and  O6_25 
REMARK    7  A    between atoms: O6_25  and  P2_26 
REMARK    8  A    between atoms: P2_26  and  O9_29 
REMARK    9  A    between atoms: O9_29  and  P3_30 
REMARK   10  A    between atoms: C12_34  and  O13_35 
REMARK   11  A    between atoms: C13_37  and  O14_38 
ROOT
HETATM    1  C9  UNL     1      -8.240  -2.934  11.258  1.00  0.00     0.279 C 
HETATM    2  O2  UNL     1      -7.928  -2.210  10.098  1.00  0.00    -0.353 OA
HETATM    3  C10 UNL     1      -8.660  -2.916   9.147  1.00  0.00     0.180 C 
HETATM    4  C12 UNL     1     -10.043  -2.873   9.737  1.00  0.00     0.182 C 
HETATM    5  C13 UNL     1      -9.748  -3.159  11.194  1.00  0.00     0.199 C 
ENDROOT
BRANCH   1   6
HETATM    6  N5  UNL     1      -7.862  -2.257  12.460  1.00  0.00    -0.136 N 
HETATM    7  C2  UNL     1      -8.039  -0.938  12.723  1.00  0.00     0.162 A 
HETATM    8  N2  UNL     1      -8.583   0.029  11.964  1.00  0.00    -0.314 N 
HETATM    9  C3  UNL     1      -7.543  -0.683  13.990  1.00  0.00     0.162 A 
HETATM   10  C1  UNL     1      -8.645   1.280  12.455  1.00  0.00     0.196 A 
ATOM     11  H2  UNL     1      -8.942  -0.182  11.033  1.00  0.00     0.170 HD
HETATM   12  N1  UNL     1      -9.214   2.334  11.684  1.00  0.00    -0.063 NA
HETATM   13  N6  UNL     1      -8.158   1.541  13.703  1.00  0.00    -0.295 N 
HETATM   14  C14 UNL     1      -7.609   0.596  14.484  1.00  0.00     0.279 A 
ATOM     15  H6  UNL     1      -8.214   2.496  14.057  1.00  0.00     0.171 HD
HETATM   16  O15 UNL     1      -7.159   0.827  15.633  1.00  0.00    -0.265 OA
HETATM   17  N3  UNL     1      -7.080  -1.848  14.461  1.00  0.00    -0.182 N 
HETATM   18  C4  UNL     1      -7.273  -2.821  13.529  1.00  0.00     0.687 A 
ATOM     19  H3  UNL     1      -6.649  -1.985  15.375  1.00  0.00     0.184 HD
BRANCH  18  20
HETATM   20  N4  UNL     1      -6.934  -4.189  13.611  1.00  0.00    -0.213 N 
HETATM   21  C5  UNL     1      -5.656  -4.651  13.131  1.00  0.00     0.167 C 
HETATM   22  C6  UNL     1      -5.014  -5.423  14.291  1.00  0.00     0.188 C 
HETATM   23  O1  UNL     1      -5.883  -6.436  14.635  1.00  0.00    -0.388 OA
HETATM   24  C7  UNL     1      -7.068  -5.996  15.174  1.00  0.00     0.188 C 
HETATM   25  C8  UNL     1      -7.856  -5.142  14.173  1.00  0.00     0.167 C 
ENDBRANCH  18  20
ENDBRANCH   1   6
BRANCH   5  26
HETATM   26  O14 UNL     1      -9.945  -4.529  11.486  1.00  0.00    -0.388 OA
ATOM     27  H14 UNL     1     -10.171  -4.567  12.407  1.00  0.00     0.210 HD
ENDBRANCH   5  26
BRANCH   3  28
HETATM   28  C11 UNL     1      -8.564  -2.328   7.774  1.00  0.00     0.216 C 
BRANCH  28  29
HETATM   29  O3  UNL     1      -9.464  -1.315   7.618  1.00  0.00    -0.287 OA
BRANCH  29  30
HETATM   30  P1  UNL     1     -10.361  -1.270   6.277  1.00  0.00     0.417 P 
HETATM   31  O4  UNL     1      -9.994  -2.366   5.007  1.00  0.00    -0.624 OA
HETATM   32  O5  UNL     1      -9.538  -0.221   5.557  1.00  0.00    -0.624 OA
BRANCH  30  33
HETATM   33  O6  UNL     1     -11.739  -0.424   6.213  1.00  0.00    -0.180 OA
BRANCH  33  34
HETATM   34  P2  UNL     1     -12.809  -0.380   7.285  1.00  0.00     0.428 P 
HETATM   35  O7  UNL     1     -12.827  -2.010   7.468  1.00  0.00    -0.624 OA
HETATM   36  O8  UNL     1     -13.884   0.331   6.220  1.00  0.00    -0.624 OA
BRANCH  34  37
HETATM   37  O9  UNL     1     -11.912   0.567   8.276  1.00  0.00    -0.173 OA
BRANCH  37  38
HETATM   38  P3  UNL     1     -12.397   0.755   9.722  1.00  0.00     0.431 P 
HETATM   39  O10 UNL     1     -12.401   2.388   9.531  1.00  0.00    -0.616 OA
HETATM   40  O11 UNL     1     -12.950   0.817  11.157  1.00  0.00    -0.616 OA
HETATM   41  O12 UNL     1     -11.002   0.054  10.287  1.00  0.00    -0.616 OA
ENDBRANCH  37  38
ENDBRANCH  34  37
ENDBRANCH  33  34
ENDBRANCH  30  33
ENDBRANCH  29  30
ENDBRANCH  28  29
ENDBRANCH   3  28
BRANCH   4  42
HETATM   42  O13 UNL     1     -10.886  -3.831   9.183  1.00  0.00    -0.390 OA
ATOM     43  H13 UNL     1     -11.224  -3.570   8.334  1.00  0.00     0.210 HD
ENDBRANCH   4  42
TORSDOF 11
ENDMDL
