MODEL 3
REMARK VINA RESULT: -6.221547596      4.580      7.053
REMARK  2 active torsions:
REMARK  status: ('A' for Active; 'I' for Inactive)
REMARK    1  A    between atoms: C2_2  and  C4_4 
REMARK    2  A    between atoms: C4_4  and  N1_5 
ROOT
HETATM    1  N1  UNL     1      28.626  -3.893  14.236  1.00  0.00    -0.283 N 
HETATM    2  C5  UNL     1      28.283  -5.166  14.494  1.00  0.00     0.332 A 
HETATM    3  O1  UNL     1      29.160  -5.955  14.900  1.00  0.00    -0.246 OA
HETATM    4  N2  UNL     1      27.020  -5.628  14.333  1.00  0.00    -0.269 N 
HETATM    5  C6  UNL     1      26.701  -7.013  14.628  1.00  0.00     0.164 C 
HETATM    6  C7  UNL     1      26.029  -4.817  13.897  1.00  0.00     0.281 A 
HETATM    7  O2  UNL     1      24.862  -5.278  13.757  1.00  0.00    -0.265 OA
HETATM    8  C8  UNL     1      26.351  -3.510  13.624  1.00  0.00     0.147 A 
HETATM    9  N3  UNL     1      25.629  -2.468  13.186  1.00  0.00    -0.345 N 
ATOM     10  H3  UNL     1      24.633  -2.486  12.968  1.00  0.00     0.167 HD
HETATM   11  C9  UNL     1      26.445  -1.381  13.082  1.00  0.00     0.182 A 
HETATM   12  N4  UNL     1      27.671  -1.757  13.457  1.00  0.00    -0.336 N 
ATOM     13  H4  UNL     1      28.493  -1.153  13.481  1.00  0.00     0.168 HD
HETATM   14  C10 UNL     1      27.651  -3.067  13.799  1.00  0.00     0.145 A 
ENDROOT
BRANCH   1  15
HETATM   15  C4  UNL     1      29.965  -3.373  14.399  1.00  0.00     0.139 C 
BRANCH  15  16
HETATM   16  C2  UNL     1      30.129  -2.613  15.693  1.00  0.00    -0.004 C 
HETATM   17  C1  UNL     1      30.736  -1.256  15.411  1.00  0.00     0.011 C 
HETATM   18  C3  UNL     1      30.977  -3.328  16.690  1.00  0.00     0.011 C 
ENDBRANCH  15  16
ENDBRANCH   1  15
TORSDOF 2
ENDMDL
