MODEL 10
REMARK VINA RESULT: -5.969359422      2.465      5.232
REMARK  2 active torsions:
REMARK  status: ('A' for Active; 'I' for Inactive)
REMARK    1  A    between atoms: C2_2  and  C4_4 
REMARK    2  A    between atoms: C4_4  and  N1_5 
ROOT
HETATM    1  N1  UNL     1      30.834  -1.045  13.485  1.00  0.00    -0.283 N 
HETATM    2  C5  UNL     1      30.429  -2.321  13.591  1.00  0.00     0.332 A 
HETATM    3  O1  UNL     1      30.995  -3.191  12.897  1.00  0.00    -0.246 OA
HETATM    4  N2  UNL     1      29.431  -2.704  14.422  1.00  0.00    -0.269 N 
HETATM    5  C6  UNL     1      29.032  -4.097  14.499  1.00  0.00     0.164 C 
HETATM    6  C7  UNL     1      28.783  -1.804  15.197  1.00  0.00     0.281 A 
HETATM    7  O2  UNL     1      27.856  -2.192  15.962  1.00  0.00    -0.265 OA
HETATM    8  C8  UNL     1      29.175  -0.491  15.110  1.00  0.00     0.147 A 
HETATM    9  N3  UNL     1      28.756   0.627  15.721  1.00  0.00    -0.345 N 
ATOM     10  H3  UNL     1      28.008   0.680  16.413  1.00  0.00     0.167 HD
HETATM   11  C9  UNL     1      29.492   1.681  15.267  1.00  0.00     0.182 A 
HETATM   12  N4  UNL     1      30.367   1.208  14.374  1.00  0.00    -0.336 N 
ATOM     13  H4  UNL     1      31.052   1.767  13.865  1.00  0.00     0.168 HD
HETATM   14  C10 UNL     1      30.199  -0.131  14.251  1.00  0.00     0.145 A 
ENDROOT
BRANCH   1  15
HETATM   15  C4  UNL     1      31.896  -0.608  12.608  1.00  0.00     0.139 C 
BRANCH  15  16
HETATM   16  C2  UNL     1      33.256  -0.721  13.255  1.00  0.00    -0.004 C 
HETATM   17  C1  UNL     1      33.686   0.634  13.773  1.00  0.00     0.011 C 
HETATM   18  C3  UNL     1      34.304  -1.244  12.331  1.00  0.00     0.011 C 
ENDBRANCH  15  16
ENDBRANCH   1  15
TORSDOF 2
ENDMDL
