MODEL 2
REMARK VINA RESULT: -6.245581231      1.046      1.669
REMARK  2 active torsions:
REMARK  status: ('A' for Active; 'I' for Inactive)
REMARK    1  A    between atoms: C2_2  and  C4_4 
REMARK    2  A    between atoms: C4_4  and  N1_5 
ROOT
HETATM    1  N1  UNL     1      31.105  -0.390  14.172  1.00  0.00    -0.283 N 
HETATM    2  C5  UNL     1      31.298   0.685  14.954  1.00  0.00     0.332 A 
HETATM    3  O1  UNL     1      30.401   1.015  15.756  1.00  0.00    -0.246 OA
HETATM    4  N2  UNL     1      32.431   1.426  14.908  1.00  0.00    -0.269 N 
HETATM    5  C6  UNL     1      32.591   2.579  15.775  1.00  0.00     0.164 C 
HETATM    6  C7  UNL     1      33.437   1.113  14.058  1.00  0.00     0.281 A 
HETATM    7  O2  UNL     1      34.480   1.824  14.040  1.00  0.00    -0.265 OA
HETATM    8  C8  UNL     1      33.267   0.019  13.247  1.00  0.00     0.147 A 
HETATM    9  N3  UNL     1      34.044  -0.553  12.315  1.00  0.00    -0.345 N 
ATOM     10  H3  UNL     1      34.972  -0.233  12.039  1.00  0.00     0.167 HD
HETATM   11  C9  UNL     1      33.391  -1.632  11.798  1.00  0.00     0.182 A 
HETATM   12  N4  UNL     1      32.209  -1.723  12.415  1.00  0.00    -0.336 N 
ATOM     13  H4  UNL     1      31.501  -2.437  12.235  1.00  0.00     0.168 HD
HETATM   14  C10 UNL     1      32.097  -0.719  13.317  1.00  0.00     0.145 A 
ENDROOT
BRANCH   1  15
HETATM   15  C4  UNL     1      29.907  -1.199  14.200  1.00  0.00     0.139 C 
BRANCH  15  16
HETATM   16  C2  UNL     1      28.798  -0.609  13.362  1.00  0.00    -0.004 C 
HETATM   17  C1  UNL     1      27.469  -0.833  14.048  1.00  0.00     0.011 C 
HETATM   18  C3  UNL     1      28.738  -1.179  11.985  1.00  0.00     0.011 C 
ENDBRANCH  15  16
ENDBRANCH   1  15
TORSDOF 2
ENDMDL
