MODEL 1
REMARK VINA RESULT: -6.347915981      0.000      0.000
REMARK  2 active torsions:
REMARK  status: ('A' for Active; 'I' for Inactive)
REMARK    1  A    between atoms: C2_2  and  C4_4 
REMARK    2  A    between atoms: C4_4  and  N1_5 
ROOT
HETATM    1  N1  UNL     1      31.232  -0.570  14.070  1.00  0.00    -0.283 N 
HETATM    2  C5  UNL     1      31.471   0.510  14.831  1.00  0.00     0.332 A 
HETATM    3  O1  UNL     1      30.620   0.849  15.680  1.00  0.00    -0.246 OA
HETATM    4  N2  UNL     1      32.601   1.248  14.717  1.00  0.00    -0.269 N 
HETATM    5  C6  UNL     1      32.811   2.407  15.565  1.00  0.00     0.164 C 
HETATM    6  C7  UNL     1      33.557   0.927  13.815  1.00  0.00     0.281 A 
HETATM    7  O2  UNL     1      34.599   1.635  13.733  1.00  0.00    -0.265 OA
HETATM    8  C8  UNL     1      33.340  -0.173  13.022  1.00  0.00     0.147 A 
HETATM    9  N3  UNL     1      34.063  -0.754  12.053  1.00  0.00    -0.345 N 
ATOM     10  H3  UNL     1      34.974  -0.438  11.723  1.00  0.00     0.167 HD
HETATM   11  C9  UNL     1      33.380  -1.835  11.582  1.00  0.00     0.182 A 
HETATM   12  N4  UNL     1      32.234  -1.919  12.264  1.00  0.00    -0.336 N 
ATOM     13  H4  UNL     1      31.516  -2.632  12.130  1.00  0.00     0.168 HD
HETATM   14  C10 UNL     1      32.175  -0.908  13.164  1.00  0.00     0.145 A 
ENDROOT
BRANCH   1  15
HETATM   15  C4  UNL     1      30.036  -1.376  14.171  1.00  0.00     0.139 C 
BRANCH  15  16
HETATM   16  C2  UNL     1      30.311  -2.735  14.770  1.00  0.00    -0.004 C 
HETATM   17  C1  UNL     1      29.107  -3.629  14.574  1.00  0.00     0.011 C 
HETATM   18  C3  UNL     1      30.645  -2.679  16.222  1.00  0.00     0.011 C 
ENDBRANCH  15  16
ENDBRANCH   1  15
TORSDOF 2
ENDMDL
