MODEL 9
REMARK VINA RESULT: -6.017638145      2.087      5.088
REMARK  2 active torsions:
REMARK  status: ('A' for Active; 'I' for Inactive)
REMARK    1  A    between atoms: C2_2  and  C4_4 
REMARK    2  A    between atoms: C4_4  and  N1_5 
ROOT
HETATM    1  N1  UNL     1      33.831   0.385  13.558  1.00  0.00    -0.283 N 
HETATM    2  C5  UNL     1      33.074  -0.532  12.933  1.00  0.00     0.332 A 
HETATM    3  O1  UNL     1      33.613  -1.295  12.105  1.00  0.00    -0.246 OA
HETATM    4  N2  UNL     1      31.746  -0.663  13.166  1.00  0.00    -0.269 N 
HETATM    5  C6  UNL     1      30.972  -1.671  12.464  1.00  0.00     0.164 C 
HETATM    6  C7  UNL     1      31.110   0.136  14.053  1.00  0.00     0.281 A 
HETATM    7  O2  UNL     1      29.871  -0.011  14.248  1.00  0.00    -0.265 OA
HETATM    8  C8  UNL     1      31.859   1.083  14.707  1.00  0.00     0.147 A 
HETATM    9  N3  UNL     1      31.552   2.012  15.624  1.00  0.00    -0.345 N 
ATOM     10  H3  UNL     1      30.625   2.176  16.016  1.00  0.00     0.167 HD
HETATM   11  C9  UNL     1      32.682   2.703  15.947  1.00  0.00     0.182 A 
HETATM   12  N4  UNL     1      33.686   2.196  15.225  1.00  0.00    -0.336 N 
ATOM     13  H4  UNL     1      34.655   2.514  15.255  1.00  0.00     0.168 HD
HETATM   14  C10 UNL     1      33.214   1.192  14.448  1.00  0.00     0.145 A 
ENDROOT
BRANCH   1  15
HETATM   15  C4  UNL     1      35.249   0.547  13.329  1.00  0.00     0.139 C 
BRANCH  15  16
HETATM   16  C2  UNL     1      36.068  -0.495  14.053  1.00  0.00    -0.004 C 
HETATM   17  C1  UNL     1      36.633   0.097  15.325  1.00  0.00     0.011 C 
HETATM   18  C3  UNL     1      37.187  -1.038  13.230  1.00  0.00     0.011 C 
ENDBRANCH  15  16
ENDBRANCH   1  15
TORSDOF 2
ENDMDL
