MODEL 3
REMARK VINA RESULT: -9.487493905      1.133      1.969
REMARK  5 active torsions:
REMARK  status: ('A' for Active; 'I' for Inactive)
REMARK    1  A    between atoms: C1_2  and  C2_4 
REMARK    2  A    between atoms: N1_12  and  C9_13 
REMARK    3  A    between atoms: C9_13  and  C10_14 
REMARK    4  A    between atoms: C9_13  and  C21_25 
REMARK    5  A    between atoms: C10_14  and  C11_15 
ROOT
HETATM    1  C9  UNL     1      23.325   7.180  13.112  1.00  0.00     0.201 C 
ENDROOT
BRANCH   1   2
HETATM    2  N1  UNL     1      23.728   6.894  14.498  1.00  0.00    -0.264 N 
HETATM    3  C8  UNL     1      22.977   6.218  15.499  1.00  0.00     0.262 A 
HETATM    4  C6  UNL     1      23.762   6.156  16.726  1.00  0.00     0.049 A 
HETATM    5  O3  UNL     1      21.811   5.758  15.308  1.00  0.00    -0.267 OA
HETATM    6  C5  UNL     1      24.991   6.782  16.507  1.00  0.00     0.048 A 
HETATM    7  C7  UNL     1      23.529   5.628  17.976  1.00  0.00     0.036 A 
HETATM    8  C4  UNL     1      25.932   6.866  17.512  1.00  0.00     0.019 A 
HETATM    9  C22 UNL     1      24.964   7.238  15.123  1.00  0.00     0.262 A 
HETATM   10  C3  UNL     1      25.684   6.333  18.758  1.00  0.00     0.019 A 
HETATM   11  C2  UNL     1      24.464   5.707  18.984  1.00  0.00     0.041 A 
HETATM   12  O6  UNL     1      25.906   7.854  14.555  1.00  0.00    -0.267 OA
BRANCH  11  13
HETATM   13  C1  UNL     1      24.181   5.136  20.295  1.00  0.00     0.209 C 
HETATM   14  O1  UNL     1      24.858   5.494  21.284  1.00  0.00    -0.644 OA
HETATM   15  O2  UNL     1      23.190   4.209  20.498  1.00  0.00    -0.644 OA
ENDBRANCH  11  13
ENDBRANCH   1   2
BRANCH   1  16
HETATM   16  C10 UNL     1      24.074   6.240  12.193  1.00  0.00     0.076 C 
BRANCH  16  17
HETATM   17  C11 UNL     1      23.193   5.433  11.338  1.00  0.00    -0.045 A 
HETATM   18  C12 UNL     1      22.563   4.283  11.841  1.00  0.00     0.008 A 
HETATM   19  C13 UNL     1      21.757   3.504  11.040  1.00  0.00     0.001 A 
HETATM   20  C14 UNL     1      21.556   3.847   9.721  1.00  0.00     0.012 A 
HETATM   21  C15 UNL     1      22.157   4.974   9.181  1.00  0.00    -0.025 A 
HETATM   22  C16 UNL     1      21.926   5.300   7.839  1.00  0.00     0.012 A 
HETATM   23  C20 UNL     1      22.958   5.736  10.005  1.00  0.00    -0.020 A 
HETATM   24  C17 UNL     1      22.506   6.418   7.286  1.00  0.00     0.001 A 
HETATM   25  C18 UNL     1      23.304   7.182   8.103  1.00  0.00     0.001 A 
HETATM   26  C19 UNL     1      23.537   6.865   9.435  1.00  0.00     0.013 A 
ENDBRANCH  16  17
ENDBRANCH   1  16
BRANCH   1  27
HETATM   27  C21 UNL     1      23.718   8.563  12.778  1.00  0.00     0.197 C 
HETATM   28  O4  UNL     1      24.667   8.765  12.004  1.00  0.00    -0.646 OA
HETATM   29  O5  UNL     1      23.036   9.621  13.323  1.00  0.00    -0.646 OA
ENDBRANCH   1  27
TORSDOF 5
ENDMDL
