MODEL 12
REMARK VINA RESULT: -8.489413844      2.960      7.467
REMARK  5 active torsions:
REMARK  status: ('A' for Active; 'I' for Inactive)
REMARK    1  A    between atoms: C1_2  and  C2_4 
REMARK    2  A    between atoms: N1_12  and  C9_13 
REMARK    3  A    between atoms: C9_13  and  C10_14 
REMARK    4  A    between atoms: C9_13  and  C21_25 
REMARK    5  A    between atoms: C10_14  and  C11_15 
ROOT
HETATM    1  C9  UNL     1      23.769   6.710  16.653  1.00  0.00     0.201 C 
ENDROOT
BRANCH   1   2
HETATM    2  N1  UNL     1      23.354   6.173  15.347  1.00  0.00    -0.264 N 
HETATM    3  C8  UNL     1      22.029   5.934  14.888  1.00  0.00     0.262 A 
HETATM    4  C6  UNL     1      22.083   5.400  13.532  1.00  0.00     0.049 A 
HETATM    5  O3  UNL     1      20.995   6.166  15.584  1.00  0.00    -0.267 OA
HETATM    6  C5  UNL     1      23.419   5.301  13.139  1.00  0.00     0.048 A 
HETATM    7  C7  UNL     1      21.121   5.002  12.632  1.00  0.00     0.036 A 
HETATM    8  C4  UNL     1      23.756   4.821  11.890  1.00  0.00     0.019 A 
HETATM    9  C22 UNL     1      24.203   5.783  14.269  1.00  0.00     0.262 A 
HETATM   10  C3  UNL     1      22.782   4.425  10.999  1.00  0.00     0.019 A 
HETATM   11  C2  UNL     1      21.449   4.521  11.383  1.00  0.00     0.041 A 
HETATM   12  O6  UNL     1      25.462   5.845  14.290  1.00  0.00    -0.267 OA
BRANCH  11  13
HETATM   13  C1  UNL     1      20.404   4.109  10.456  1.00  0.00     0.209 C 
HETATM   14  O1  UNL     1      19.671   3.136  10.742  1.00  0.00    -0.644 OA
HETATM   15  O2  UNL     1      20.181   4.751   9.263  1.00  0.00    -0.644 OA
ENDBRANCH  11  13
ENDBRANCH   1   2
BRANCH   1  16
HETATM   16  C10 UNL     1      24.393   8.071  16.434  1.00  0.00     0.076 C 
BRANCH  16  17
HETATM   17  C11 UNL     1      23.596   8.946  15.564  1.00  0.00    -0.045 A 
HETATM   18  C12 UNL     1      23.917   9.090  14.204  1.00  0.00     0.008 A 
HETATM   19  C13 UNL     1      23.193   9.929  13.386  1.00  0.00     0.001 A 
HETATM   20  C14 UNL     1      22.133  10.646  13.896  1.00  0.00     0.012 A 
HETATM   21  C15 UNL     1      21.778  10.535  15.232  1.00  0.00    -0.025 A 
HETATM   22  C16 UNL     1      20.691  11.269  15.718  1.00  0.00     0.012 A 
HETATM   23  C20 UNL     1      22.520   9.687  16.029  1.00  0.00    -0.020 A 
HETATM   24  C17 UNL     1      20.317  11.168  17.038  1.00  0.00     0.001 A 
HETATM   25  C18 UNL     1      21.052  10.324  17.836  1.00  0.00     0.001 A 
HETATM   26  C19 UNL     1      22.132   9.592  17.360  1.00  0.00     0.013 A 
ENDBRANCH  16  17
ENDBRANCH   1  16
BRANCH   1  27
HETATM   27  C21 UNL     1      24.795   5.819  17.230  1.00  0.00     0.197 C 
HETATM   28  O4  UNL     1      24.525   4.627  17.447  1.00  0.00    -0.646 OA
HETATM   29  O5  UNL     1      26.042   6.308  17.525  1.00  0.00    -0.646 OA
ENDBRANCH   1  27
TORSDOF 5
ENDMDL
