MODEL 1
REMARK VINA RESULT: -10.004197920      0.000      0.000
REMARK  5 active torsions:
REMARK  status: ('A' for Active; 'I' for Inactive)
REMARK    1  A    between atoms: C1_2  and  C2_4 
REMARK    2  A    between atoms: N1_12  and  C9_13 
REMARK    3  A    between atoms: C9_13  and  C10_14 
REMARK    4  A    between atoms: C9_13  and  C21_25 
REMARK    5  A    between atoms: C10_14  and  C11_15 
ROOT
HETATM    1  C9  UNL     1      23.473   7.355  13.596  1.00  0.00     0.201 C 
ENDROOT
BRANCH   1   2
HETATM    2  N1  UNL     1      23.768   7.139  15.022  1.00  0.00    -0.264 N 
HETATM    3  C8  UNL     1      25.044   6.989  15.632  1.00  0.00     0.262 A 
HETATM    4  C6  UNL     1      24.868   6.798  17.066  1.00  0.00     0.049 A 
HETATM    5  O3  UNL     1      26.135   7.023  14.988  1.00  0.00    -0.267 OA
HETATM    6  C5  UNL     1      23.503   6.826  17.361  1.00  0.00     0.048 A 
HETATM    7  C7  UNL     1      25.743   6.607  18.112  1.00  0.00     0.036 A 
HETATM    8  C4  UNL     1      23.055   6.668  18.656  1.00  0.00     0.019 A 
HETATM    9  C22 UNL     1      22.826   7.039  16.088  1.00  0.00     0.262 A 
HETATM   10  C3  UNL     1      23.943   6.477  19.692  1.00  0.00     0.019 A 
HETATM   11  C2  UNL     1      25.303   6.448  19.408  1.00  0.00     0.041 A 
HETATM   12  O6  UNL     1      21.575   7.122  15.950  1.00  0.00    -0.267 OA
BRANCH  11  13
HETATM   13  C1  UNL     1      26.259   6.249  20.489  1.00  0.00     0.209 C 
HETATM   14  O1  UNL     1      27.327   5.636  20.265  1.00  0.00    -0.644 OA
HETATM   15  O2  UNL     1      26.039   6.710  21.763  1.00  0.00    -0.644 OA
ENDBRANCH  11  13
ENDBRANCH   1   2
BRANCH   1  16
HETATM   16  C10 UNL     1      24.275   6.360  12.786  1.00  0.00     0.076 C 
BRANCH  16  17
HETATM   17  C11 UNL     1      23.457   5.569  11.856  1.00  0.00    -0.045 A 
HETATM   18  C12 UNL     1      22.853   4.371  12.274  1.00  0.00     0.008 A 
HETATM   19  C13 UNL     1      22.108   3.608  11.403  1.00  0.00     0.001 A 
HETATM   20  C14 UNL     1      21.942   4.014  10.097  1.00  0.00     0.012 A 
HETATM   21  C15 UNL     1      22.518   5.190   9.640  1.00  0.00    -0.025 A 
HETATM   22  C16 UNL     1      22.324   5.579   8.310  1.00  0.00     0.012 A 
HETATM   23  C20 UNL     1      23.260   5.935  10.533  1.00  0.00    -0.020 A 
HETATM   24  C17 UNL     1      22.880   6.745   7.839  1.00  0.00     0.001 A 
HETATM   25  C18 UNL     1      23.619   7.493   8.725  1.00  0.00     0.001 A 
HETATM   26  C19 UNL     1      23.815   7.112  10.046  1.00  0.00     0.013 A 
ENDBRANCH  16  17
ENDBRANCH   1  16
BRANCH   1  27
HETATM   27  C21 UNL     1      23.910   8.715  13.220  1.00  0.00     0.197 C 
HETATM   28  O4  UNL     1      25.038   8.887  12.731  1.00  0.00    -0.646 OA
HETATM   29  O5  UNL     1      23.072   9.782  13.412  1.00  0.00    -0.646 OA
ENDBRANCH   1  27
TORSDOF 5
ENDMDL
