MODEL 2
REMARK VINA RESULT: -9.658603662      0.982      1.129
REMARK  5 active torsions:
REMARK  status: ('A' for Active; 'I' for Inactive)
REMARK    1  A    between atoms: C1_2  and  C2_4 
REMARK    2  A    between atoms: N1_12  and  C9_13 
REMARK    3  A    between atoms: C9_13  and  C10_14 
REMARK    4  A    between atoms: C9_13  and  C21_25 
REMARK    5  A    between atoms: C10_14  and  C11_15 
ROOT
HETATM    1  C9  UNL     1      23.273   7.500  13.200  1.00  0.00     0.201 C 
ENDROOT
BRANCH   1   2
HETATM    2  N1  UNL     1      23.296   7.117  14.622  1.00  0.00    -0.264 N 
HETATM    3  C8  UNL     1      24.355   6.491  15.335  1.00  0.00     0.262 A 
HETATM    4  C6  UNL     1      23.948   6.297  16.722  1.00  0.00     0.049 A 
HETATM    5  O3  UNL     1      25.461   6.170  14.806  1.00  0.00    -0.267 OA
HETATM    6  C5  UNL     1      22.652   6.792  16.885  1.00  0.00     0.048 A 
HETATM    7  C7  UNL     1      24.566   5.752  17.824  1.00  0.00     0.036 A 
HETATM    8  C4  UNL     1      22.020   6.734  18.110  1.00  0.00     0.019 A 
HETATM    9  C22 UNL     1      22.253   7.300  15.578  1.00  0.00     0.262 A 
HETATM   10  C3  UNL     1      22.653   6.184  19.205  1.00  0.00     0.019 A 
HETATM   11  C2  UNL     1      23.942   5.690  19.051  1.00  0.00     0.041 A 
HETATM   12  O6  UNL     1      21.136   7.829  15.328  1.00  0.00    -0.267 OA
BRANCH  11  13
HETATM   13  C1  UNL     1      24.629   5.106  20.196  1.00  0.00     0.209 C 
HETATM   14  O1  UNL     1      24.025   4.291  20.929  1.00  0.00    -0.644 OA
HETATM   15  O2  UNL     1      25.928   5.413  20.512  1.00  0.00    -0.644 OA
ENDBRANCH  11  13
ENDBRANCH   1   2
BRANCH   1  16
HETATM   16  C10 UNL     1      24.099   6.499  12.423  1.00  0.00     0.076 C 
BRANCH  16  17
HETATM   17  C11 UNL     1      23.303   5.671  11.506  1.00  0.00    -0.045 A 
HETATM   18  C12 UNL     1      22.720   4.472  11.947  1.00  0.00     0.008 A 
HETATM   19  C13 UNL     1      21.996   3.674  11.089  1.00  0.00     0.001 A 
HETATM   20  C14 UNL     1      21.831   4.046   9.772  1.00  0.00     0.012 A 
HETATM   21  C15 UNL     1      22.388   5.223   9.293  1.00  0.00    -0.025 A 
HETATM   22  C16 UNL     1      22.196   5.578   7.953  1.00  0.00     0.012 A 
HETATM   23  C20 UNL     1      23.108   6.003  10.174  1.00  0.00    -0.020 A 
HETATM   24  C17 UNL     1      22.732   6.743   7.458  1.00  0.00     0.001 A 
HETATM   25  C18 UNL     1      23.449   7.526   8.332  1.00  0.00     0.001 A 
HETATM   26  C19 UNL     1      23.643   7.180   9.663  1.00  0.00     0.013 A 
ENDBRANCH  16  17
ENDBRANCH   1  16
BRANCH   1  27
HETATM   27  C21 UNL     1      23.900   8.829  13.056  1.00  0.00     0.197 C 
HETATM   28  O4  UNL     1      25.123   8.916  12.865  1.00  0.00    -0.646 OA
HETATM   29  O5  UNL     1      23.131   9.962  13.132  1.00  0.00    -0.646 OA
ENDBRANCH   1  27
TORSDOF 5
ENDMDL
