MODEL 2
REMARK VINA RESULT: -9.677570255      1.056      2.087
REMARK  6 active torsions:
REMARK  status: ('A' for Active; 'I' for Inactive)
REMARK    1  A    between atoms: C1_2  and  C2_4 
REMARK    2  A    between atoms: C2_4  and  C3_5 
REMARK    3  A    between atoms: C3_5  and  C4_6 
REMARK    4  A    between atoms: C3_5  and  N1_17 
REMARK    5  A    between atoms: C4_6  and  C5_7 
REMARK    6  A    between atoms: C19_23  and  C20_24 
ROOT
HETATM    1  C3  UNL     1      23.457   7.228  13.089  1.00  0.00     0.110 C 
ENDROOT
BRANCH   1   2
HETATM    2  C2  UNL     1      23.712   8.699  12.761  1.00  0.00     0.139 C 
BRANCH   2   3
HETATM    3  C1  UNL     1      22.446   9.400  12.492  1.00  0.00     0.174 C 
HETATM    4  O1  UNL     1      21.640   9.022  11.609  1.00  0.00    -0.648 OA
HETATM    5  O2  UNL     1      22.120  10.521  13.239  1.00  0.00    -0.648 OA
ENDBRANCH   2   3
ENDBRANCH   1   2
BRANCH   1   6
HETATM    6  C4  UNL     1      24.173   6.380  12.090  1.00  0.00     0.065 C 
BRANCH   6   7
HETATM    7  C5  UNL     1      23.304   5.617  11.177  1.00  0.00    -0.045 A 
HETATM    8  C6  UNL     1      22.634   4.463  11.608  1.00  0.00     0.008 A 
HETATM    9  C7  UNL     1      21.797   3.758  10.785  1.00  0.00     0.001 A 
HETATM   10  C8  UNL     1      21.597   4.184   9.494  1.00  0.00     0.012 A 
HETATM   11  C9  UNL     1      22.236   5.313   9.030  1.00  0.00    -0.025 A 
HETATM   12  C10 UNL     1      22.030   5.715   7.733  1.00  0.00     0.012 A 
HETATM   13  C14 UNL     1      23.084   6.015   9.883  1.00  0.00    -0.020 A 
HETATM   14  C11 UNL     1      22.673   6.835   7.262  1.00  0.00     0.001 A 
HETATM   15  C12 UNL     1      23.517   7.552   8.073  1.00  0.00     0.001 A 
HETATM   16  C13 UNL     1      23.708   7.128   9.371  1.00  0.00     0.013 A 
ENDBRANCH   6   7
ENDBRANCH   1   6
BRANCH   1  17
HETATM   17  N1  UNL     1      23.916   7.004  14.443  1.00  0.00    -0.274 N 
HETATM   18  C15 UNL     1      25.153   7.409  15.015  1.00  0.00     0.262 A 
HETATM   19  O3  UNL     1      26.069   8.042  14.413  1.00  0.00    -0.267 OA
HETATM   20  C16 UNL     1      25.125   6.945  16.394  1.00  0.00     0.048 A 
HETATM   21  C17 UNL     1      26.090   7.086  17.372  1.00  0.00     0.019 A 
HETATM   22  C22 UNL     1      23.947   6.288  16.686  1.00  0.00     0.049 A 
HETATM   23  C18 UNL     1      25.813   6.546  18.616  1.00  0.00     0.019 A 
HETATM   24  C19 UNL     1      24.642   5.887  18.923  1.00  0.00     0.041 A 
HETATM   25  C21 UNL     1      23.695   5.758  17.936  1.00  0.00     0.036 A 
HETATM   26  C23 UNL     1      23.166   6.322  15.437  1.00  0.00     0.262 A 
HETATM   27  O6  UNL     1      22.022   5.801  15.363  1.00  0.00    -0.267 OA
BRANCH  24  28
HETATM   28  C20 UNL     1      24.427   5.341  20.275  1.00  0.00     0.209 C 
HETATM   29  O4  UNL     1      25.013   5.802  21.271  1.00  0.00    -0.644 OA
HETATM   30  O5  UNL     1      23.552   4.283  20.468  1.00  0.00    -0.644 OA
ENDBRANCH  24  28
ENDBRANCH   1  17
TORSDOF 6
ENDMDL
