MODEL 1
REMARK VINA RESULT: -10.054014692      0.000      0.000
REMARK  6 active torsions:
REMARK  status: ('A' for Active; 'I' for Inactive)
REMARK    1  A    between atoms: C1_2  and  C2_4 
REMARK    2  A    between atoms: C2_4  and  C3_5 
REMARK    3  A    between atoms: C3_5  and  C4_6 
REMARK    4  A    between atoms: C3_5  and  N1_17 
REMARK    5  A    between atoms: C4_6  and  C5_7 
REMARK    6  A    between atoms: C19_23  and  C20_24 
ROOT
HETATM    1  C3  UNL     1      23.539   6.990  13.691  1.00  0.00     0.110 C 
ENDROOT
BRANCH   1   2
HETATM    2  C2  UNL     1      23.946   8.419  13.332  1.00  0.00     0.139 C 
BRANCH   2   3
HETATM    3  C1  UNL     1      22.762   9.232  13.011  1.00  0.00     0.174 C 
HETATM    4  O1  UNL     1      22.694  10.457  13.274  1.00  0.00    -0.648 OA
HETATM    5  O2  UNL     1      21.675   8.634  12.394  1.00  0.00    -0.648 OA
ENDBRANCH   2   3
ENDBRANCH   1   2
BRANCH   1   6
HETATM    6  C4  UNL     1      24.277   6.042  12.804  1.00  0.00     0.065 C 
BRANCH   6   7
HETATM    7  C5  UNL     1      23.466   5.410  11.749  1.00  0.00    -0.045 A 
HETATM    8  C6  UNL     1      22.746   4.232  11.994  1.00  0.00     0.008 A 
HETATM    9  C7  UNL     1      21.960   3.647  11.037  1.00  0.00     0.001 A 
HETATM   10  C8  UNL     1      21.865   4.222   9.792  1.00  0.00     0.012 A 
HETATM   11  C9  UNL     1      22.557   5.379   9.509  1.00  0.00    -0.025 A 
HETATM   12  C10 UNL     1      22.456   5.930   8.255  1.00  0.00     0.012 A 
HETATM   13  C14 UNL     1      23.351   5.958  10.496  1.00  0.00    -0.020 A 
HETATM   14  C11 UNL     1      23.152   7.080   7.964  1.00  0.00     0.001 A 
HETATM   15  C12 UNL     1      23.945   7.678   8.912  1.00  0.00     0.001 A 
HETATM   16  C13 UNL     1      24.031   7.105  10.163  1.00  0.00     0.013 A 
ENDBRANCH   6   7
ENDBRANCH   1   6
BRANCH   1  17
HETATM   17  N1  UNL     1      23.844   6.796  15.093  1.00  0.00    -0.274 N 
HETATM   18  C15 UNL     1      22.963   6.350  16.116  1.00  0.00     0.262 A 
HETATM   19  O3  UNL     1      21.744   6.048  15.956  1.00  0.00    -0.267 OA
HETATM   20  C16 UNL     1      23.754   6.324  17.337  1.00  0.00     0.048 A 
HETATM   21  C17 UNL     1      23.361   5.964  18.612  1.00  0.00     0.019 A 
HETATM   22  C22 UNL     1      25.054   6.726  17.112  1.00  0.00     0.049 A 
HETATM   23  C18 UNL     1      24.317   6.029  19.610  1.00  0.00     0.019 A 
HETATM   24  C19 UNL     1      25.620   6.428  19.400  1.00  0.00     0.041 A 
HETATM   25  C21 UNL     1      25.990   6.782  18.125  1.00  0.00     0.036 A 
HETATM   26  C23 UNL     1      25.119   7.031  15.671  1.00  0.00     0.262 A 
HETATM   27  O6  UNL     1      26.185   7.430  15.131  1.00  0.00    -0.267 OA
BRANCH  24  28
HETATM   28  C20 UNL     1      26.577   6.469  20.521  1.00  0.00     0.209 C 
HETATM   29  O4  UNL     1      27.724   5.999  20.423  1.00  0.00    -0.644 OA
HETATM   30  O5  UNL     1      26.210   7.043  21.728  1.00  0.00    -0.644 OA
ENDBRANCH  24  28
ENDBRANCH   1  17
TORSDOF 6
ENDMDL
