MODEL 3
REMARK VINA RESULT: -9.209813339      0.672      1.958
REMARK  6 active torsions:
REMARK  status: ('A' for Active; 'I' for Inactive)
REMARK    1  A    between atoms: C1_2  and  C2_4 
REMARK    2  A    between atoms: C2_4  and  C3_5 
REMARK    3  A    between atoms: C3_5  and  C4_6 
REMARK    4  A    between atoms: C3_5  and  N1_17 
REMARK    5  A    between atoms: C4_6  and  C5_7 
REMARK    6  A    between atoms: C19_23  and  C20_24 
ROOT
HETATM    1  C3  UNL     1      23.463   7.410  13.328  1.00  0.00     0.110 C 
ENDROOT
BRANCH   1   2
HETATM    2  C2  UNL     1      23.944   8.837  13.066  1.00  0.00     0.139 C 
BRANCH   2   3
HETATM    3  C1  UNL     1      22.800   9.751  12.907  1.00  0.00     0.174 C 
HETATM    4  O1  UNL     1      22.442  10.545  13.809  1.00  0.00    -0.648 OA
HETATM    5  O2  UNL     1      22.085   9.742  11.720  1.00  0.00    -0.648 OA
ENDBRANCH   2   3
ENDBRANCH   1   2
BRANCH   1   6
HETATM    6  C4  UNL     1      24.190   6.481  12.412  1.00  0.00     0.065 C 
BRANCH   6   7
HETATM    7  C5  UNL     1      23.750   6.514  11.007  1.00  0.00    -0.045 A 
HETATM    8  C6  UNL     1      24.296   7.429  10.095  1.00  0.00     0.008 A 
HETATM    9  C7  UNL     1      23.923   7.454   8.778  1.00  0.00     0.001 A 
HETATM   10  C8  UNL     1      22.984   6.561   8.321  1.00  0.00     0.012 A 
HETATM   11  C9  UNL     1      22.421   5.645   9.183  1.00  0.00    -0.025 A 
HETATM   12  C10 UNL     1      21.478   4.769   8.707  1.00  0.00     0.012 A 
HETATM   13  C14 UNL     1      22.814   5.636  10.519  1.00  0.00    -0.020 A 
HETATM   14  C11 UNL     1      20.905   3.860   9.566  1.00  0.00     0.001 A 
HETATM   15  C12 UNL     1      21.267   3.822  10.889  1.00  0.00     0.001 A 
HETATM   16  C13 UNL     1      22.216   4.714  11.343  1.00  0.00     0.013 A 
ENDBRANCH   6   7
ENDBRANCH   1   6
BRANCH   1  17
HETATM   17  N1  UNL     1      23.709   7.124  14.725  1.00  0.00    -0.274 N 
HETATM   18  C15 UNL     1      22.757   6.747  15.711  1.00  0.00     0.262 A 
HETATM   19  O3  UNL     1      21.515   6.600  15.516  1.00  0.00    -0.267 OA
HETATM   20  C16 UNL     1      23.509   6.576  16.945  1.00  0.00     0.048 A 
HETATM   21  C17 UNL     1      23.046   6.214  18.196  1.00  0.00     0.019 A 
HETATM   22  C22 UNL     1      24.853   6.827  16.762  1.00  0.00     0.049 A 
HETATM   23  C18 UNL     1      23.979   6.123  19.213  1.00  0.00     0.019 A 
HETATM   24  C19 UNL     1      25.325   6.370  19.045  1.00  0.00     0.041 A 
HETATM   25  C21 UNL     1      25.764   6.729  17.794  1.00  0.00     0.036 A 
HETATM   26  C23 UNL     1      24.989   7.180  15.336  1.00  0.00     0.262 A 
HETATM   27  O6  UNL     1      26.107   7.469  14.835  1.00  0.00    -0.267 OA
BRANCH  24  28
HETATM   28  C20 UNL     1      26.253   6.250  20.184  1.00  0.00     0.209 C 
HETATM   29  O4  UNL     1      27.388   5.758  20.058  1.00  0.00    -0.644 OA
HETATM   30  O5  UNL     1      25.871   6.691  21.442  1.00  0.00    -0.644 OA
ENDBRANCH  24  28
ENDBRANCH   1  17
TORSDOF 6
ENDMDL
