MODEL 6
REMARK VINA RESULT: -8.187560642      3.413      6.145
REMARK  6 active torsions:
REMARK  status: ('A' for Active; 'I' for Inactive)
REMARK    1  A    between atoms: N1_2  and  C3_4 
REMARK    2  A    between atoms: C3_4  and  C4_5 
REMARK    3  A    between atoms: N3_10  and  C7_11 
REMARK    4  A    between atoms: C10_14  and  C11_15 
REMARK    5  A    between atoms: C15_19  and  C16_20 
REMARK    6  A    between atoms: N6_25  and  C17_26 
ROOT
HETATM    1  C11 UNL     1      44.816  48.592  20.292  1.00  0.00     0.018 A 
HETATM    2  C12 UNL     1      45.832  47.681  20.487  1.00  0.00     0.016 A 
HETATM    3  C13 UNL     1      46.401  47.510  21.753  1.00  0.00     0.017 A 
HETATM    4  C14 UNL     1      45.952  48.249  22.820  1.00  0.00     0.029 A 
HETATM    5  C15 UNL     1      46.331  48.275  24.145  1.00  0.00     0.126 A 
HETATM    6  N5  UNL     1      45.535  49.200  24.715  1.00  0.00    -0.288 N 
ATOM      7  H5  UNL     1      45.571  49.455  25.702  1.00  0.00     0.188 HD
HETATM    8  N6  UNL     1      44.703  49.738  23.841  1.00  0.00    -0.252 N 
HETATM    9  C24 UNL     1      44.923  49.177  22.638  1.00  0.00     0.109 A 
HETATM   10  C25 UNL     1      44.392  49.317  21.383  1.00  0.00     0.157 A 
HETATM   11  F1  UNL     1      43.387  50.233  21.240  1.00  0.00    -0.203 F 
ENDROOT
BRANCH   1  12
HETATM   12  C10 UNL     1      44.205  48.791  18.985  1.00  0.00     0.016 A 
HETATM   13  C9  UNL     1      44.386  49.962  18.277  1.00  0.00     0.018 A 
HETATM   14  C8  UNL     1      43.830  50.197  17.031  1.00  0.00     0.031 A 
HETATM   15  C7  UNL     1      43.061  49.218  16.473  1.00  0.00     0.043 A 
HETATM   16  C27 UNL     1      42.855  48.027  17.152  1.00  0.00     0.073 A 
HETATM   17  C26 UNL     1      43.419  47.815  18.391  1.00  0.00     0.129 A 
HETATM   18  F2  UNL     1      43.189  46.638  19.013  1.00  0.00    -0.205 F 
BRANCH  15  19
HETATM   19  N3  UNL     1      42.464  49.387  15.200  1.00  0.00    -0.309 N 
HETATM   20  C4  UNL     1      43.044  49.255  14.004  1.00  0.00     0.116 A 
HETATM   21  N2  UNL     1      42.114  49.508  13.040  1.00  0.00    -0.353 N 
HETATM   22  C5  UNL     1      40.947  49.799  13.624  1.00  0.00     0.107 A 
ATOM     23  H2  UNL     1      42.281  49.480  12.034  1.00  0.00     0.166 HD
HETATM   24  C6  UNL     1      41.163  49.725  14.984  1.00  0.00     0.115 A 
BRANCH  20  25
HETATM   25  C3  UNL     1      44.448  48.899  13.684  1.00  0.00     0.348 C 
BRANCH  25  26
HETATM   26  N1  UNL     1      45.251  50.071  13.369  1.00  0.00     0.086 N 
HETATM   27  C1  UNL     1      46.441  50.152  14.204  1.00  0.00     0.309 C 
HETATM   28  C2  UNL     1      45.715  50.027  11.993  1.00  0.00     0.309 C 
ENDBRANCH  25  26
ENDBRANCH  20  25
ENDBRANCH  15  19
ENDBRANCH   1  12
BRANCH   8  29
HETATM   29  C17 UNL     1      43.721  50.753  24.108  1.00  0.00     0.058 A 
HETATM   30  C18 UNL     1      44.062  52.001  24.585  1.00  0.00     0.034 A 
HETATM   31  C19 UNL     1      43.148  52.991  24.849  1.00  0.00     0.042 A 
HETATM   32  C20 UNL     1      41.824  52.704  24.618  1.00  0.00     0.112 A 
HETATM   33  O2  UNL     1      40.756  53.437  24.775  1.00  0.00    -0.236 OA
HETATM   34  C22 UNL     1      41.402  51.476  24.139  1.00  0.00     0.045 A 
HETATM   35  N7  UNL     1      39.683  52.766  24.431  1.00  0.00    -0.246 N 
HETATM   36  C21 UNL     1      40.031  51.532  24.026  1.00  0.00     0.149 A 
ATOM     37  H7  UNL     1      38.728  53.126  24.466  1.00  0.00     0.196 HD
HETATM   38  N8  UNL     1      39.216  50.462  23.565  1.00  0.00    -0.080 NA
HETATM   39  C23 UNL     1      42.376  50.521  23.894  1.00  0.00     0.049 A 
ENDBRANCH   8  29
BRANCH   5  40
HETATM   40  C16 UNL     1      47.370  47.464  24.758  1.00  0.00     0.283 C 
HETATM   41  N4  UNL     1      47.095  46.419  25.677  1.00  0.00    -0.056 NA
HETATM   42  O1  UNL     1      48.563  47.696  24.463  1.00  0.00    -0.269 OA
ENDBRANCH   5  40
TORSDOF 6
ENDMDL
