MODEL 5
REMARK VINA RESULT: -8.300294780      4.039     11.152
REMARK  6 active torsions:
REMARK  status: ('A' for Active; 'I' for Inactive)
REMARK    1  A    between atoms: N1_2  and  C3_4 
REMARK    2  A    between atoms: C3_4  and  C4_5 
REMARK    3  A    between atoms: N3_10  and  C7_11 
REMARK    4  A    between atoms: C10_14  and  C11_15 
REMARK    5  A    between atoms: C15_19  and  C16_20 
REMARK    6  A    between atoms: N6_25  and  C17_26 
ROOT
HETATM    1  C11 UNL     1      41.269  44.934  18.480  1.00  0.00     0.018 A 
HETATM    2  C12 UNL     1      41.530  43.603  18.730  1.00  0.00     0.016 A 
HETATM    3  C13 UNL     1      40.889  42.601  17.995  1.00  0.00     0.017 A 
HETATM    4  C14 UNL     1      39.989  42.933  17.011  1.00  0.00     0.029 A 
HETATM    5  C15 UNL     1      39.235  42.158  16.156  1.00  0.00     0.126 A 
HETATM    6  N5  UNL     1      38.538  43.039  15.413  1.00  0.00    -0.288 N 
ATOM      7  H5  UNL     1      37.880  42.775  14.681  1.00  0.00     0.188 HD
HETATM    8  N6  UNL     1      38.810  44.288  15.750  1.00  0.00    -0.252 N 
HETATM    9  C24 UNL     1      39.714  44.277  16.747  1.00  0.00     0.109 A 
HETATM   10  C25 UNL     1      40.361  45.229  17.489  1.00  0.00     0.157 A 
HETATM   11  F1  UNL     1      40.069  46.534  17.203  1.00  0.00    -0.203 F 
ENDROOT
BRANCH   1  12
HETATM   12  C10 UNL     1      41.923  45.997  19.230  1.00  0.00     0.016 A 
HETATM   13  C9  UNL     1      43.179  46.454  18.883  1.00  0.00     0.018 A 
HETATM   14  C8  UNL     1      43.842  47.463  19.562  1.00  0.00     0.031 A 
HETATM   15  C7  UNL     1      43.218  48.037  20.630  1.00  0.00     0.043 A 
HETATM   16  C27 UNL     1      41.957  47.607  21.011  1.00  0.00     0.073 A 
HETATM   17  C26 UNL     1      41.316  46.601  20.320  1.00  0.00     0.129 A 
HETATM   18  F2  UNL     1      40.087  46.217  20.729  1.00  0.00    -0.205 F 
BRANCH  15  19
HETATM   19  N3  UNL     1      43.833  49.077  21.369  1.00  0.00    -0.309 N 
HETATM   20  C4  UNL     1      44.726  48.958  22.355  1.00  0.00     0.116 A 
HETATM   21  N2  UNL     1      45.058  50.205  22.794  1.00  0.00    -0.353 N 
HETATM   22  C5  UNL     1      44.378  51.113  22.086  1.00  0.00     0.107 A 
ATOM     23  H2  UNL     1      45.719  50.413  23.542  1.00  0.00     0.166 HD
HETATM   24  C6  UNL     1      43.605  50.407  21.188  1.00  0.00     0.115 A 
BRANCH  20  25
HETATM   25  C3  UNL     1      45.311  47.725  22.940  1.00  0.00     0.348 C 
BRANCH  25  26
HETATM   26  N1  UNL     1      46.009  47.990  24.189  1.00  0.00     0.086 N 
HETATM   27  C1  UNL     1      45.286  47.460  25.335  1.00  0.00     0.309 C 
HETATM   28  C2  UNL     1      47.315  47.356  24.196  1.00  0.00     0.309 C 
ENDBRANCH  25  26
ENDBRANCH  20  25
ENDBRANCH  15  19
ENDBRANCH   1  12
BRANCH   8  29
HETATM   29  C17 UNL     1      38.247  45.474  15.163  1.00  0.00     0.058 A 
HETATM   30  C18 UNL     1      38.760  46.043  14.017  1.00  0.00     0.034 A 
HETATM   31  C19 UNL     1      38.246  47.173  13.431  1.00  0.00     0.042 A 
HETATM   32  C20 UNL     1      37.158  47.756  14.036  1.00  0.00     0.112 A 
HETATM   33  O2  UNL     1      36.472  48.816  13.710  1.00  0.00    -0.236 OA
HETATM   34  C22 UNL     1      36.585  47.245  15.187  1.00  0.00     0.045 A 
HETATM   35  N7  UNL     1      35.503  49.021  14.570  1.00  0.00    -0.246 N 
HETATM   36  C21 UNL     1      35.529  48.065  15.516  1.00  0.00     0.149 A 
ATOM     37  H7  UNL     1      34.831  49.787  14.528  1.00  0.00     0.196 HD
HETATM   38  N8  UNL     1      34.682  47.876  16.642  1.00  0.00    -0.080 NA
HETATM   39  C23 UNL     1      37.154  46.102  15.727  1.00  0.00     0.049 A 
ENDBRANCH   8  29
BRANCH   5  40
HETATM   40  C16 UNL     1      39.221  40.706  16.098  1.00  0.00     0.283 C 
HETATM   41  N4  UNL     1      40.003  39.890  16.955  1.00  0.00    -0.056 NA
HETATM   42  O1  UNL     1      38.486  40.147  15.254  1.00  0.00    -0.269 OA
ENDBRANCH   5  40
TORSDOF 6
ENDMDL
