MODEL 1
REMARK VINA RESULT: -11.270901068      0.000      0.000
REMARK  6 active torsions:
REMARK  status: ('A' for Active; 'I' for Inactive)
REMARK    1  A    between atoms: N1_2  and  C3_4 
REMARK    2  A    between atoms: C3_4  and  C4_5 
REMARK    3  A    between atoms: N3_10  and  C7_11 
REMARK    4  A    between atoms: C10_14  and  C11_15 
REMARK    5  A    between atoms: C15_19  and  C16_20 
REMARK    6  A    between atoms: N6_25  and  C17_26 
ROOT
HETATM    1  C11 UNL     1      42.842  48.475  21.015  1.00  0.00     0.018 A 
HETATM    2  C12 UNL     1      42.372  49.746  20.760  1.00  0.00     0.016 A 
HETATM    3  C13 UNL     1      42.832  50.837  21.504  1.00  0.00     0.017 A 
HETATM    4  C14 UNL     1      43.760  50.655  22.500  1.00  0.00     0.029 A 
HETATM    5  C15 UNL     1      44.368  51.540  23.363  1.00  0.00     0.126 A 
HETATM    6  N5  UNL     1      45.188  50.783  24.117  1.00  0.00    -0.288 N 
ATOM      7  H5  UNL     1      45.784  51.149  24.858  1.00  0.00     0.188 HD
HETATM    8  N6  UNL     1      45.125  49.507  23.779  1.00  0.00    -0.252 N 
HETATM    9  C24 UNL     1      44.245  49.372  22.770  1.00  0.00     0.109 A 
HETATM   10  C25 UNL     1      43.770  48.329  22.021  1.00  0.00     0.157 A 
HETATM   11  F1  UNL     1      44.266  47.088  22.311  1.00  0.00    -0.203 F 
ENDROOT
BRANCH   1  12
HETATM   12  C10 UNL     1      42.380  47.321  20.256  1.00  0.00     0.016 A 
HETATM   13  C9  UNL     1      41.224  46.649  20.600  1.00  0.00     0.018 A 
HETATM   14  C8  UNL     1      40.743  45.550  19.909  1.00  0.00     0.031 A 
HETATM   15  C7  UNL     1      41.449  45.108  18.830  1.00  0.00     0.043 A 
HETATM   16  C27 UNL     1      42.615  45.755  18.451  1.00  0.00     0.073 A 
HETATM   17  C26 UNL     1      43.075  46.848  19.153  1.00  0.00     0.129 A 
HETATM   18  F2  UNL     1      44.216  47.445  18.745  1.00  0.00    -0.205 F 
BRANCH  15  19
HETATM   19  N3  UNL     1      41.015  43.992  18.073  1.00  0.00    -0.309 N 
HETATM   20  C4  UNL     1      40.170  43.989  17.038  1.00  0.00     0.116 A 
HETATM   21  N2  UNL     1      40.022  42.706  16.602  1.00  0.00    -0.353 N 
HETATM   22  C5  UNL     1      40.772  41.898  17.359  1.00  0.00     0.107 A 
ATOM     23  H2  UNL     1      39.433  42.409  15.824  1.00  0.00     0.166 HD
HETATM   24  C6  UNL     1      41.398  42.703  18.287  1.00  0.00     0.115 A 
BRANCH  20  25
HETATM   25  C3  UNL     1      39.467  45.132  16.405  1.00  0.00     0.348 C 
BRANCH  25  26
HETATM   26  N1  UNL     1      40.288  45.791  15.400  1.00  0.00     0.086 N 
HETATM   27  C1  UNL     1      39.648  45.791  14.093  1.00  0.00     0.309 C 
HETATM   28  C2  UNL     1      40.516  47.182  15.748  1.00  0.00     0.309 C 
ENDBRANCH  25  26
ENDBRANCH  20  25
ENDBRANCH  15  19
ENDBRANCH   1  12
BRANCH   8  29
HETATM   29  C17 UNL     1      45.865  48.427  24.374  1.00  0.00     0.058 A 
HETATM   30  C18 UNL     1      47.140  48.096  23.968  1.00  0.00     0.034 A 
HETATM   31  C19 UNL     1      47.873  47.073  24.516  1.00  0.00     0.042 A 
HETATM   32  C20 UNL     1      47.285  46.349  25.526  1.00  0.00     0.112 A 
HETATM   33  O2  UNL     1      47.734  45.340  26.220  1.00  0.00    -0.236 OA
HETATM   34  C22 UNL     1      46.010  46.619  25.990  1.00  0.00     0.045 A 
HETATM   35  N7  UNL     1      46.839  44.946  27.094  1.00  0.00    -0.246 N 
HETATM   36  C21 UNL     1      45.739  45.714  26.991  1.00  0.00     0.149 A 
ATOM     37  H7  UNL     1      46.958  44.174  27.751  1.00  0.00     0.196 HD
HETATM   38  N8  UNL     1      44.522  45.662  27.724  1.00  0.00    -0.080 NA
HETATM   39  C23 UNL     1      45.326  47.666  25.392  1.00  0.00     0.049 A 
ENDBRANCH   8  29
BRANCH   5  40
HETATM   40  C16 UNL     1      44.147  52.976  23.419  1.00  0.00     0.283 C 
HETATM   41  N4  UNL     1      44.897  53.905  22.654  1.00  0.00    -0.056 NA
HETATM   42  O1  UNL     1      43.254  53.415  24.176  1.00  0.00    -0.269 OA
ENDBRANCH   5  40
TORSDOF 6
ENDMDL
