MODEL 4
REMARK VINA RESULT: -8.394587495      3.923     11.281
REMARK  6 active torsions:
REMARK  status: ('A' for Active; 'I' for Inactive)
REMARK    1  A    between atoms: N1_2  and  C3_4 
REMARK    2  A    between atoms: C3_4  and  C4_5 
REMARK    3  A    between atoms: N3_10  and  C7_11 
REMARK    4  A    between atoms: C10_14  and  C11_15 
REMARK    5  A    between atoms: C15_19  and  C16_20 
REMARK    6  A    between atoms: N6_25  and  C17_26 
ROOT
HETATM    1  C11 UNL     1      41.229  44.953  18.462  1.00  0.00     0.018 A 
HETATM    2  C12 UNL     1      41.492  43.622  18.705  1.00  0.00     0.016 A 
HETATM    3  C13 UNL     1      40.851  42.622  17.967  1.00  0.00     0.017 A 
HETATM    4  C14 UNL     1      39.948  42.957  16.987  1.00  0.00     0.029 A 
HETATM    5  C15 UNL     1      39.192  42.185  16.130  1.00  0.00     0.126 A 
HETATM    6  N5  UNL     1      38.492  43.069  15.394  1.00  0.00    -0.288 N 
ATOM      7  H5  UNL     1      37.833  42.807  14.661  1.00  0.00     0.188 HD
HETATM    8  N6  UNL     1      38.763  44.317  15.735  1.00  0.00    -0.252 N 
HETATM    9  C24 UNL     1      39.670  44.302  16.729  1.00  0.00     0.109 A 
HETATM   10  C25 UNL     1      40.318  45.252  17.474  1.00  0.00     0.157 A 
HETATM   11  F1  UNL     1      40.022  46.558  17.196  1.00  0.00    -0.203 F 
ENDROOT
BRANCH   1  12
HETATM   12  C10 UNL     1      41.883  46.014  19.215  1.00  0.00     0.016 A 
HETATM   13  C9  UNL     1      43.142  46.467  18.873  1.00  0.00     0.018 A 
HETATM   14  C8  UNL     1      43.805  47.473  19.555  1.00  0.00     0.031 A 
HETATM   15  C7  UNL     1      43.179  48.049  20.622  1.00  0.00     0.043 A 
HETATM   16  C27 UNL     1      41.915  47.623  20.997  1.00  0.00     0.073 A 
HETATM   17  C26 UNL     1      41.274  46.619  20.303  1.00  0.00     0.129 A 
HETATM   18  F2  UNL     1      40.042  46.238  20.707  1.00  0.00    -0.205 F 
BRANCH  15  19
HETATM   19  N3  UNL     1      43.795  49.087  21.364  1.00  0.00    -0.309 N 
HETATM   20  C4  UNL     1      44.694  48.964  22.343  1.00  0.00     0.116 A 
HETATM   21  N2  UNL     1      45.024  50.210  22.788  1.00  0.00    -0.353 N 
HETATM   22  C5  UNL     1      44.335  51.119  22.091  1.00  0.00     0.107 A 
ATOM     23  H2  UNL     1      45.689  50.416  23.534  1.00  0.00     0.166 HD
HETATM   24  C6  UNL     1      43.559  50.417  21.194  1.00  0.00     0.115 A 
BRANCH  20  25
HETATM   25  C3  UNL     1      45.288  47.730  22.915  1.00  0.00     0.348 C 
BRANCH  25  26
HETATM   26  N1  UNL     1      46.003  47.991  24.155  1.00  0.00     0.086 N 
HETATM   27  C1  UNL     1      45.283  47.481  25.313  1.00  0.00     0.309 C 
HETATM   28  C2  UNL     1      47.299  47.336  24.154  1.00  0.00     0.309 C 
ENDBRANCH  25  26
ENDBRANCH  20  25
ENDBRANCH  15  19
ENDBRANCH   1  12
BRANCH   8  29
HETATM   29  C17 UNL     1      38.197  45.504  15.156  1.00  0.00     0.058 A 
HETATM   30  C18 UNL     1      36.979  46.010  15.557  1.00  0.00     0.034 A 
HETATM   31  C19 UNL     1      36.411  47.142  15.025  1.00  0.00     0.042 A 
HETATM   32  C20 UNL     1      37.113  47.793  14.037  1.00  0.00     0.112 A 
HETATM   33  O2  UNL     1      36.825  48.871  13.362  1.00  0.00    -0.236 OA
HETATM   34  C22 UNL     1      38.341  47.348  13.582  1.00  0.00     0.045 A 
HETATM   35  N7  UNL     1      37.781  49.148  12.508  1.00  0.00    -0.246 N 
HETATM   36  C21 UNL     1      38.755  48.225  12.604  1.00  0.00     0.149 A 
ATOM     37  H7  UNL     1      37.786  49.943  11.868  1.00  0.00     0.196 HD
HETATM   38  N8  UNL     1      39.976  48.113  11.885  1.00  0.00    -0.080 NA
HETATM   39  C23 UNL     1      38.856  46.200  14.162  1.00  0.00     0.049 A 
ENDBRANCH   8  29
BRANCH   5  40
HETATM   40  C16 UNL     1      39.180  40.733  16.066  1.00  0.00     0.283 C 
HETATM   41  N4  UNL     1      39.997  39.915  16.888  1.00  0.00    -0.056 NA
HETATM   42  O1  UNL     1      38.415  40.177  15.248  1.00  0.00    -0.269 OA
ENDBRANCH   5  40
TORSDOF 6
ENDMDL
