MODEL 2
REMARK VINA RESULT: -11.239632417      0.636      1.076
REMARK  6 active torsions:
REMARK  status: ('A' for Active; 'I' for Inactive)
REMARK    1  A    between atoms: N1_2  and  C3_4 
REMARK    2  A    between atoms: C3_4  and  C4_5 
REMARK    3  A    between atoms: N3_10  and  C7_11 
REMARK    4  A    between atoms: C10_14  and  C11_15 
REMARK    5  A    between atoms: C15_19  and  C16_20 
REMARK    6  A    between atoms: N6_25  and  C17_26 
ROOT
HETATM    1  C11 UNL     1      42.849  48.486  20.923  1.00  0.00     0.018 A 
HETATM    2  C12 UNL     1      42.393  49.757  20.648  1.00  0.00     0.016 A 
HETATM    3  C13 UNL     1      42.859  50.854  21.379  1.00  0.00     0.017 A 
HETATM    4  C14 UNL     1      43.780  50.677  22.383  1.00  0.00     0.029 A 
HETATM    5  C15 UNL     1      44.391  51.569  23.238  1.00  0.00     0.126 A 
HETATM    6  N5  UNL     1      45.199  50.814  24.007  1.00  0.00    -0.288 N 
ATOM      7  H5  UNL     1      45.794  51.185  24.747  1.00  0.00     0.188 HD
HETATM    8  N6  UNL     1      45.126  49.534  23.686  1.00  0.00    -0.252 N 
HETATM    9  C24 UNL     1      44.251  49.394  22.674  1.00  0.00     0.109 A 
HETATM   10  C25 UNL     1      43.770  48.345  21.936  1.00  0.00     0.157 A 
HETATM   11  F1  UNL     1      44.252  47.103  22.247  1.00  0.00    -0.203 F 
ENDROOT
BRANCH   1  12
HETATM   12  C10 UNL     1      42.381  47.326  20.177  1.00  0.00     0.016 A 
HETATM   13  C9  UNL     1      43.096  46.822  19.108  1.00  0.00     0.018 A 
HETATM   14  C8  UNL     1      42.695  45.722  18.370  1.00  0.00     0.031 A 
HETATM   15  C7  UNL     1      41.532  45.101  18.718  1.00  0.00     0.043 A 
HETATM   16  C27 UNL     1      40.785  45.575  19.785  1.00  0.00     0.073 A 
HETATM   17  C26 UNL     1      41.203  46.672  20.507  1.00  0.00     0.129 A 
HETATM   18  F2  UNL     1      40.441  47.097  21.538  1.00  0.00    -0.205 F 
BRANCH  15  19
HETATM   19  N3  UNL     1      41.062  43.967  18.011  1.00  0.00    -0.309 N 
HETATM   20  C4  UNL     1      40.136  43.934  17.048  1.00  0.00     0.116 A 
HETATM   21  N2  UNL     1      39.982  42.642  16.639  1.00  0.00    -0.353 N 
HETATM   22  C5  UNL     1      40.810  41.860  17.340  1.00  0.00     0.107 A 
ATOM     23  H2  UNL     1      39.339  42.324  15.914  1.00  0.00     0.166 HD
HETATM   24  C6  UNL     1      41.491  42.689  18.205  1.00  0.00     0.115 A 
BRANCH  20  25
HETATM   25  C3  UNL     1      39.358  45.054  16.464  1.00  0.00     0.348 C 
BRANCH  25  26
HETATM   26  N1  UNL     1      40.107  45.763  15.437  1.00  0.00     0.086 N 
HETATM   27  C1  UNL     1      39.392  45.792  14.170  1.00  0.00     0.309 C 
HETATM   28  C2  UNL     1      40.327  47.146  15.818  1.00  0.00     0.309 C 
ENDBRANCH  25  26
ENDBRANCH  20  25
ENDBRANCH  15  19
ENDBRANCH   1  12
BRANCH   8  29
HETATM   29  C17 UNL     1      45.851  48.456  24.301  1.00  0.00     0.058 A 
HETATM   30  C18 UNL     1      47.129  48.112  23.913  1.00  0.00     0.034 A 
HETATM   31  C19 UNL     1      47.849  47.090  24.481  1.00  0.00     0.042 A 
HETATM   32  C20 UNL     1      47.244  46.380  25.491  1.00  0.00     0.112 A 
HETATM   33  O2  UNL     1      47.679  45.375  26.200  1.00  0.00    -0.236 OA
HETATM   34  C22 UNL     1      45.966  46.663  25.936  1.00  0.00     0.045 A 
HETATM   35  N7  UNL     1      46.770  44.996  27.067  1.00  0.00    -0.246 N 
HETATM   36  C21 UNL     1      45.677  45.770  26.944  1.00  0.00     0.149 A 
ATOM     37  H7  UNL     1      46.877  44.230  27.733  1.00  0.00     0.196 HD
HETATM   38  N8  UNL     1      44.451  45.733  27.663  1.00  0.00    -0.080 NA
HETATM   39  C23 UNL     1      45.295  47.708  25.320  1.00  0.00     0.049 A 
ENDBRANCH   8  29
BRANCH   5  40
HETATM   40  C16 UNL     1      44.184  53.007  23.272  1.00  0.00     0.283 C 
HETATM   41  N4  UNL     1      44.929  53.916  22.478  1.00  0.00    -0.056 NA
HETATM   42  O1  UNL     1      43.307  53.467  24.037  1.00  0.00    -0.269 OA
ENDBRANCH   5  40
TORSDOF 6
ENDMDL
