MODEL 7
REMARK VINA RESULT: -5.001248666      1.300      1.516
REMARK  2 active torsions:
REMARK  status: ('A' for Active; 'I' for Inactive)
REMARK    1  A    between atoms: C2_2  and  C3_3 
REMARK    2  A    between atoms: C6_6  and  O1_7 
ROOT
HETATM    1  C3  UNL     1      24.970  38.251  42.117  1.00  0.00    -0.058 A 
HETATM    2  C4  UNL     1      23.744  37.697  41.806  1.00  0.00     0.010 A 
HETATM    3  C5  UNL     1      22.581  38.148  42.405  1.00  0.00     0.037 A 
HETATM    4  C6  UNL     1      22.597  39.166  43.332  1.00  0.00     0.065 A 
HETATM    5  C7  UNL     1      23.816  39.731  43.655  1.00  0.00     0.037 A 
HETATM    6  C8  UNL     1      24.978  39.270  43.047  1.00  0.00     0.010 A 
ENDROOT
BRANCH   1   7
HETATM    7  C2  UNL     1      26.202  37.744  41.456  1.00  0.00     0.034 C 
HETATM    8  C1  UNL     1      26.764  36.532  42.153  1.00  0.00     0.010 C 
ENDBRANCH   1   7
BRANCH   4   9
HETATM    9  O1  UNL     1      21.457  39.647  43.955  1.00  0.00    -0.361 OA
ATOM     10  H1  UNL     1      21.477  40.175  44.745  1.00  0.00     0.217 HD
ENDBRANCH   4   9
TORSDOF 2
ENDMDL
