MODEL 1
REMARK VINA RESULT: -6.392146734      0.000      0.000
REMARK  2 active torsions:
REMARK  status: ('A' for Active; 'I' for Inactive)
REMARK    1  A    between atoms: C2_2  and  C3_3 
REMARK    2  A    between atoms: C6_6  and  O1_7 
ROOT
HETATM    1  C3  UNL     1      25.577  37.980  42.571  1.00  0.00    -0.058 A 
HETATM    2  C4  UNL     1      24.944  37.492  41.445  1.00  0.00     0.010 A 
HETATM    3  C5  UNL     1      23.577  37.622  41.279  1.00  0.00     0.037 A 
HETATM    4  C6  UNL     1      22.793  38.242  42.226  1.00  0.00     0.065 A 
HETATM    5  C7  UNL     1      23.411  38.736  43.359  1.00  0.00     0.037 A 
HETATM    6  C8  UNL     1      24.786  38.600  43.515  1.00  0.00     0.010 A 
ENDROOT
BRANCH   1   7
HETATM    7  C2  UNL     1      27.049  37.825  42.720  1.00  0.00     0.034 C 
HETATM    8  C1  UNL     1      27.426  37.217  44.047  1.00  0.00     0.010 C 
ENDBRANCH   1   7
BRANCH   4   9
HETATM    9  O1  UNL     1      21.421  38.394  42.100  1.00  0.00    -0.361 OA
ATOM     10  H1  UNL     1      20.827  37.667  41.954  1.00  0.00     0.217 HD
ENDBRANCH   4   9
TORSDOF 2
ENDMDL
