MODEL 16
REMARK VINA RESULT: -4.328190404      5.958      7.263
REMARK  2 active torsions:
REMARK  status: ('A' for Active; 'I' for Inactive)
REMARK    1  A    between atoms: C2_2  and  C3_3 
REMARK    2  A    between atoms: C6_6  and  O1_7 
ROOT
HETATM    1  C3  UNL     1      26.596  37.278  48.165  1.00  0.00    -0.058 A 
HETATM    2  C4  UNL     1      26.907  36.379  49.167  1.00  0.00     0.010 A 
HETATM    3  C5  UNL     1      27.643  35.238  48.901  1.00  0.00     0.037 A 
HETATM    4  C6  UNL     1      28.095  34.952  47.632  1.00  0.00     0.065 A 
HETATM    5  C7  UNL     1      27.791  35.841  46.619  1.00  0.00     0.037 A 
HETATM    6  C8  UNL     1      27.052  36.985  46.897  1.00  0.00     0.010 A 
ENDROOT
BRANCH   1   7
HETATM    7  C2  UNL     1      25.803  38.495  48.483  1.00  0.00     0.034 C 
HETATM    8  C1  UNL     1      24.368  38.170  48.811  1.00  0.00     0.010 C 
ENDBRANCH   1   7
BRANCH   4   9
HETATM    9  O1  UNL     1      28.834  33.821  47.324  1.00  0.00    -0.361 OA
ATOM     10  H1  UNL     1      29.359  33.739  46.536  1.00  0.00     0.217 HD
ENDBRANCH   4   9
TORSDOF 2
ENDMDL
