MODEL 2
REMARK VINA RESULT: -6.372197195      0.043      1.573
REMARK  2 active torsions:
REMARK  status: ('A' for Active; 'I' for Inactive)
REMARK    1  A    between atoms: C2_2  and  C3_3 
REMARK    2  A    between atoms: C6_6  and  O1_7 
ROOT
HETATM    1  C3  UNL     1      25.563  37.966  42.541  1.00  0.00    -0.058 A 
HETATM    2  C4  UNL     1      24.807  38.576  43.522  1.00  0.00     0.010 A 
HETATM    3  C5  UNL     1      23.437  38.717  43.386  1.00  0.00     0.037 A 
HETATM    4  C6  UNL     1      22.773  38.255  42.272  1.00  0.00     0.065 A 
HETATM    5  C7  UNL     1      23.516  37.642  41.280  1.00  0.00     0.037 A 
HETATM    6  C8  UNL     1      24.891  37.506  41.427  1.00  0.00     0.010 A 
ENDROOT
BRANCH   1   7
HETATM    7  C2  UNL     1      27.034  37.831  42.716  1.00  0.00     0.034 C 
HETATM    8  C1  UNL     1      27.394  37.201  44.037  1.00  0.00     0.010 C 
ENDBRANCH   1   7
BRANCH   4   9
HETATM    9  O1  UNL     1      21.404  38.374  42.097  1.00  0.00    -0.361 OA
ATOM     10  H1  UNL     1      20.805  37.638  42.140  1.00  0.00     0.217 HD
ENDBRANCH   4   9
TORSDOF 2
ENDMDL
