MODEL 6
REMARK VINA RESULT: -5.130731026      1.425      1.957
REMARK  2 active torsions:
REMARK  status: ('A' for Active; 'I' for Inactive)
REMARK    1  A    between atoms: C2_2  and  C3_3 
REMARK    2  A    between atoms: C6_6  and  O1_7 
ROOT
HETATM    1  C3  UNL     1      26.521  37.640  42.719  1.00  0.00    -0.058 A 
HETATM    2  C4  UNL     1      25.910  38.827  42.364  1.00  0.00     0.010 A 
HETATM    3  C5  UNL     1      24.722  38.838  41.655  1.00  0.00     0.037 A 
HETATM    4  C6  UNL     1      24.101  37.669  41.274  1.00  0.00     0.065 A 
HETATM    5  C7  UNL     1      24.700  36.472  41.620  1.00  0.00     0.037 A 
HETATM    6  C8  UNL     1      25.893  36.474  42.334  1.00  0.00     0.010 A 
ENDROOT
BRANCH   1   7
HETATM    7  C2  UNL     1      27.797  37.663  43.481  1.00  0.00     0.034 C 
HETATM    8  C1  UNL     1      27.690  36.925  44.792  1.00  0.00     0.010 C 
ENDBRANCH   1   7
BRANCH   4   9
HETATM    9  O1  UNL     1      22.912  37.634  40.563  1.00  0.00    -0.361 OA
ATOM     10  H1  UNL     1      22.415  36.838  40.415  1.00  0.00     0.217 HD
ENDBRANCH   4   9
TORSDOF 2
ENDMDL
