MODEL 3
REMARK VINA RESULT: -5.498426396      0.894      1.746
REMARK  2 active torsions:
REMARK  status: ('A' for Active; 'I' for Inactive)
REMARK    1  A    between atoms: C2_2  and  C3_3 
REMARK    2  A    between atoms: C6_6  and  O1_7 
ROOT
HETATM    1  C3  UNL     1      25.267  37.898  42.534  1.00  0.00    -0.058 A 
HETATM    2  C4  UNL     1      25.145  38.990  43.370  1.00  0.00     0.010 A 
HETATM    3  C5  UNL     1      23.904  39.517  43.682  1.00  0.00     0.037 A 
HETATM    4  C6  UNL     1      22.744  38.976  43.176  1.00  0.00     0.065 A 
HETATM    5  C7  UNL     1      22.849  37.882  42.337  1.00  0.00     0.037 A 
HETATM    6  C8  UNL     1      24.101  37.361  42.030  1.00  0.00     0.010 A 
ENDROOT
BRANCH   1   7
HETATM    7  C2  UNL     1      26.615  37.354  42.217  1.00  0.00     0.034 C 
HETATM    8  C1  UNL     1      27.534  37.382  43.411  1.00  0.00     0.010 C 
ENDBRANCH   1   7
BRANCH   4   9
HETATM    9  O1  UNL     1      21.482  39.472  43.463  1.00  0.00    -0.361 OA
ATOM     10  H1  UNL     1      21.334  40.253  43.984  1.00  0.00     0.217 HD
ENDBRANCH   4   9
TORSDOF 2
ENDMDL
