MODEL 17
REMARK VINA RESULT: -4.275243367      5.014      6.580
REMARK  2 active torsions:
REMARK  status: ('A' for Active; 'I' for Inactive)
REMARK    1  A    between atoms: C2_2  and  C3_3 
REMARK    2  A    between atoms: C6_6  and  O1_7 
ROOT
HETATM    1  C3  UNL     1      24.885  37.937  47.167  1.00  0.00    -0.058 A 
HETATM    2  C4  UNL     1      24.798  37.931  48.545  1.00  0.00     0.010 A 
HETATM    3  C5  UNL     1      25.820  37.419  49.325  1.00  0.00     0.037 A 
HETATM    4  C6  UNL     1      26.962  36.896  48.762  1.00  0.00     0.065 A 
HETATM    5  C7  UNL     1      27.065  36.894  47.383  1.00  0.00     0.037 A 
HETATM    6  C8  UNL     1      26.033  37.412  46.610  1.00  0.00     0.010 A 
ENDROOT
BRANCH   1   7
HETATM    7  C2  UNL     1      23.770  38.496  46.357  1.00  0.00     0.034 C 
HETATM    8  C1  UNL     1      24.100  38.536  44.886  1.00  0.00     0.010 C 
ENDBRANCH   1   7
BRANCH   4   9
HETATM    9  O1  UNL     1      28.008  36.373  49.505  1.00  0.00    -0.361 OA
ATOM     10  H1  UNL     1      28.921  36.465  49.259  1.00  0.00     0.217 HD
ENDBRANCH   4   9
TORSDOF 2
ENDMDL
