MODEL 20
REMARK VINA RESULT: -4.173025384      4.874      6.273
REMARK  2 active torsions:
REMARK  status: ('A' for Active; 'I' for Inactive)
REMARK    1  A    between atoms: C2_2  and  C3_3 
REMARK    2  A    between atoms: C6_6  and  O1_7 
ROOT
HETATM    1  C3  UNL     1      24.851  38.020  47.016  1.00  0.00    -0.058 A 
HETATM    2  C4  UNL     1      25.971  37.465  46.429  1.00  0.00     0.010 A 
HETATM    3  C5  UNL     1      27.015  36.978  47.195  1.00  0.00     0.037 A 
HETATM    4  C6  UNL     1      26.981  37.025  48.571  1.00  0.00     0.065 A 
HETATM    5  C7  UNL     1      25.867  37.578  49.175  1.00  0.00     0.037 A 
HETATM    6  C8  UNL     1      24.824  38.064  48.394  1.00  0.00     0.010 A 
ENDROOT
BRANCH   1   7
HETATM    7  C2  UNL     1      23.746  38.535  46.165  1.00  0.00     0.034 C 
HETATM    8  C1  UNL     1      24.132  38.598  44.709  1.00  0.00     0.010 C 
ENDBRANCH   1   7
BRANCH   4   9
HETATM    9  O1  UNL     1      28.003  36.549  49.376  1.00  0.00    -0.361 OA
ATOM     10  H1  UNL     1      28.384  37.049  50.088  1.00  0.00     0.217 HD
ENDBRANCH   4   9
TORSDOF 2
ENDMDL
