MODEL 15
REMARK VINA RESULT: -2.253135865      8.524      8.930
REMARK  4 active torsions:
REMARK  status: ('A' for Active; 'I' for Inactive)
REMARK    1  A    between atoms: N1_1  and  C1_5 
REMARK    2  A    between atoms: C1_5  and  C2_6 
REMARK    3  A    between atoms: C1_5  and  C3_9 
REMARK    4  A    between atoms: C2_6  and  O1_7 
ROOT
HETATM    1  C1  UNL     1      52.815  18.091  19.128  1.00  0.00     0.306 C 
ENDROOT
BRANCH   1   2
HETATM    2  N1  UNL     1      52.030  17.275  20.021  1.00  0.00    -0.063 N 
ATOM      3  H13 UNL     1      52.185  17.527  20.998  1.00  0.00     0.275 HD
ATOM      4  H12 UNL     1      51.037  17.496  19.962  1.00  0.00     0.275 HD
ATOM      5  H11 UNL     1      52.209  16.285  19.853  1.00  0.00     0.275 HD
ENDBRANCH   1   2
BRANCH   1   6
HETATM    6  C2  UNL     1      52.645  17.626  17.695  1.00  0.00     0.208 C 
BRANCH   6   7
HETATM    7  O1  UNL     1      51.613  18.315  17.086  1.00  0.00    -0.398 OA
ATOM      8  H1  UNL     1      51.441  17.957  16.223  1.00  0.00     0.209 HD
ENDBRANCH   6   7
ENDBRANCH   1   6
BRANCH   1   9
HETATM    9  C3  UNL     1      54.251  17.974  19.478  1.00  0.00     0.206 C 
HETATM   10  O2  UNL     1      55.098  18.395  18.678  1.00  0.00    -0.646 OA
HETATM   11  O3  UNL     1      54.632  17.406  20.670  1.00  0.00    -0.646 OA
ENDBRANCH   1   9
TORSDOF 4
ENDMDL
