MODEL 3
REMARK VINA RESULT: -4.390090074      1.013      1.056
REMARK  4 active torsions:
REMARK  status: ('A' for Active; 'I' for Inactive)
REMARK    1  A    between atoms: N1_1  and  C1_5 
REMARK    2  A    between atoms: C1_5  and  C2_6 
REMARK    3  A    between atoms: C1_5  and  C3_9 
REMARK    4  A    between atoms: C2_6  and  O1_7 
ROOT
HETATM    1  C1  UNL     1      57.881  22.274  23.257  1.00  0.00     0.306 C 
ENDROOT
BRANCH   1   2
HETATM    2  N1  UNL     1      56.699  22.125  24.071  1.00  0.00    -0.063 N 
ATOM      3  H13 UNL     1      56.404  21.151  24.135  1.00  0.00     0.275 HD
ATOM      4  H12 UNL     1      56.896  22.291  25.058  1.00  0.00     0.275 HD
ATOM      5  H11 UNL     1      55.950  22.726  23.728  1.00  0.00     0.275 HD
ENDBRANCH   1   2
BRANCH   1   6
HETATM    6  C2  UNL     1      59.116  21.861  24.032  1.00  0.00     0.208 C 
BRANCH   6   7
HETATM    7  O1  UNL     1      59.581  22.916  24.793  1.00  0.00    -0.398 OA
ATOM      8  H1  UNL     1      60.069  22.594  25.542  1.00  0.00     0.209 HD
ENDBRANCH   6   7
ENDBRANCH   1   6
BRANCH   1   9
HETATM    9  C3  UNL     1      58.042  23.695  22.867  1.00  0.00     0.206 C 
HETATM   10  O2  UNL     1      58.891  23.990  22.016  1.00  0.00    -0.646 OA
HETATM   11  O3  UNL     1      57.260  24.667  23.444  1.00  0.00    -0.646 OA
ENDBRANCH   1   9
TORSDOF 4
ENDMDL
