MODEL 5
REMARK VINA RESULT: -3.927117685      1.731      1.771
REMARK  4 active torsions:
REMARK  status: ('A' for Active; 'I' for Inactive)
REMARK    1  A    between atoms: N1_1  and  C1_5 
REMARK    2  A    between atoms: C1_5  and  C2_6 
REMARK    3  A    between atoms: C1_5  and  C3_9 
REMARK    4  A    between atoms: C2_6  and  O1_7 
ROOT
HETATM    1  C1  UNL     1      57.793  23.457  23.988  1.00  0.00     0.306 C 
ENDROOT
BRANCH   1   2
HETATM    2  N1  UNL     1      59.016  22.999  24.601  1.00  0.00    -0.063 N 
ATOM      3  H13 UNL     1      59.836  23.270  24.059  1.00  0.00     0.275 HD
ATOM      4  H12 UNL     1      59.224  23.509  25.459  1.00  0.00     0.275 HD
ATOM      5  H11 UNL     1      58.982  21.991  24.759  1.00  0.00     0.275 HD
ENDBRANCH   1   2
BRANCH   1   6
HETATM    6  C2  UNL     1      56.856  22.293  23.733  1.00  0.00     0.208 C 
BRANCH   6   7
HETATM    7  O1  UNL     1      55.630  22.525  24.326  1.00  0.00    -0.398 OA
ATOM      8  H1  UNL     1      55.588  23.413  24.661  1.00  0.00     0.209 HD
ENDBRANCH   6   7
ENDBRANCH   1   6
BRANCH   1   9
HETATM    9  C3  UNL     1      58.097  24.092  22.684  1.00  0.00     0.206 C 
HETATM   10  O2  UNL     1      58.870  23.518  21.904  1.00  0.00    -0.646 OA
HETATM   11  O3  UNL     1      57.530  25.299  22.348  1.00  0.00    -0.646 OA
ENDBRANCH   1   9
TORSDOF 4
ENDMDL
