MODEL 14
REMARK VINA RESULT: -2.263537743      8.037      8.378
REMARK  4 active torsions:
REMARK  status: ('A' for Active; 'I' for Inactive)
REMARK    1  A    between atoms: N1_1  and  C1_5 
REMARK    2  A    between atoms: C1_5  and  C2_6 
REMARK    3  A    between atoms: C1_5  and  C3_9 
REMARK    4  A    between atoms: C2_6  and  O1_7 
ROOT
HETATM    1  C1  UNL     1      54.541  17.719  19.259  1.00  0.00     0.306 C 
ENDROOT
BRANCH   1   2
HETATM    2  N1  UNL     1      54.814  17.759  20.674  1.00  0.00    -0.063 N 
ATOM      3  H13 UNL     1      55.446  17.011  20.959  1.00  0.00     0.275 HD
ATOM      4  H12 UNL     1      55.399  18.557  20.925  1.00  0.00     0.275 HD
ATOM      5  H11 UNL     1      53.945  17.744  21.208  1.00  0.00     0.275 HD
ENDBRANCH   1   2
BRANCH   1   6
HETATM    6  C2  UNL     1      55.112  18.943  18.571  1.00  0.00     0.208 C 
BRANCH   6   7
HETATM    7  O1  UNL     1      56.128  18.579  17.708  1.00  0.00    -0.398 OA
ATOM      8  H1  UNL     1      56.790  19.259  17.671  1.00  0.00     0.209 HD
ENDBRANCH   6   7
ENDBRANCH   1   6
BRANCH   1   9
HETATM    9  C3  UNL     1      53.075  17.712  19.034  1.00  0.00     0.206 C 
HETATM   10  O2  UNL     1      52.331  17.337  19.951  1.00  0.00    -0.646 OA
HETATM   11  O3  UNL     1      52.554  18.116  17.828  1.00  0.00    -0.646 OA
ENDBRANCH   1   9
TORSDOF 4
ENDMDL
