MODEL 2
REMARK VINA RESULT: -4.464815499      0.861      1.404
REMARK  4 active torsions:
REMARK  status: ('A' for Active; 'I' for Inactive)
REMARK    1  A    between atoms: N1_1  and  C1_5 
REMARK    2  A    between atoms: C1_5  and  C2_6 
REMARK    3  A    between atoms: C1_5  and  C3_9 
REMARK    4  A    between atoms: C2_6  and  O1_7 
ROOT
HETATM    1  C1  UNL     1      57.631  22.458  23.226  1.00  0.00     0.306 C 
ENDROOT
BRANCH   1   2
HETATM    2  N1  UNL     1      56.460  22.473  24.068  1.00  0.00    -0.063 N 
ATOM      3  H13 UNL     1      56.489  21.734  24.771  1.00  0.00     0.275 HD
ATOM      4  H12 UNL     1      56.453  23.278  24.693  1.00  0.00     0.275 HD
ATOM      5  H11 UNL     1      55.611  22.425  23.503  1.00  0.00     0.275 HD
ENDBRANCH   1   2
BRANCH   1   6
HETATM    6  C2  UNL     1      58.819  21.891  23.977  1.00  0.00     0.208 C 
BRANCH   6   7
HETATM    7  O1  UNL     1      59.477  22.895  24.662  1.00  0.00    -0.398 OA
ATOM      8  H1  UNL     1      60.394  22.671  24.776  1.00  0.00     0.209 HD
ENDBRANCH   6   7
ENDBRANCH   1   6
BRANCH   1   9
HETATM    9  C3  UNL     1      57.968  23.843  22.818  1.00  0.00     0.206 C 
HETATM   10  O2  UNL     1      57.325  24.783  23.303  1.00  0.00    -0.646 OA
HETATM   11  O3  UNL     1      58.978  24.075  21.914  1.00  0.00    -0.646 OA
ENDBRANCH   1   9
TORSDOF 4
ENDMDL
