MODEL 1
REMARK VINA RESULT: -4.610739382      0.000      0.000
REMARK  4 active torsions:
REMARK  status: ('A' for Active; 'I' for Inactive)
REMARK    1  A    between atoms: N1_1  and  C1_5 
REMARK    2  A    between atoms: C1_5  and  C2_6 
REMARK    3  A    between atoms: C1_5  and  C3_9 
REMARK    4  A    between atoms: C2_6  and  O1_7 
ROOT
HETATM    1  C1  UNL     1      57.320  23.157  23.330  1.00  0.00     0.306 C 
ENDROOT
BRANCH   1   2
HETATM    2  N1  UNL     1      56.908  23.793  24.558  1.00  0.00    -0.063 N 
ATOM      3  H13 UNL     1      57.060  23.190  25.366  1.00  0.00     0.275 HD
ATOM      4  H12 UNL     1      57.532  24.556  24.817  1.00  0.00     0.275 HD
ATOM      5  H11 UNL     1      55.938  24.102  24.493  1.00  0.00     0.275 HD
ENDBRANCH   1   2
BRANCH   1   6
HETATM    6  C2  UNL     1      58.273  22.014  23.617  1.00  0.00     0.208 C 
BRANCH   6   7
HETATM    7  O1  UNL     1      59.352  22.461  24.355  1.00  0.00    -0.398 OA
ATOM      8  H1  UNL     1      59.285  22.160  25.253  1.00  0.00     0.209 HD
ENDBRANCH   6   7
ENDBRANCH   1   6
BRANCH   1   9
HETATM    9  C3  UNL     1      58.030  24.139  22.475  1.00  0.00     0.206 C 
HETATM   10  O2  UNL     1      59.051  23.779  21.873  1.00  0.00    -0.646 OA
HETATM   11  O3  UNL     1      57.561  25.426  22.357  1.00  0.00    -0.646 OA
ENDBRANCH   1   9
TORSDOF 4
ENDMDL
