MODEL 12
REMARK VINA RESULT: -2.322798152      5.324      5.925
REMARK  4 active torsions:
REMARK  status: ('A' for Active; 'I' for Inactive)
REMARK    1  A    between atoms: N1_1  and  C1_5 
REMARK    2  A    between atoms: C1_5  and  C2_6 
REMARK    3  A    between atoms: C1_5  and  C3_9 
REMARK    4  A    between atoms: C2_6  and  O1_7 
ROOT
HETATM    1  C1  UNL     1      60.908  24.126  27.263  1.00  0.00     0.306 C 
ENDROOT
BRANCH   1   2
HETATM    2  N1  UNL     1      60.347  23.291  26.229  1.00  0.00    -0.063 N 
ATOM      3  H13 UNL     1      60.978  22.532  25.970  1.00  0.00     0.275 HD
ATOM      4  H12 UNL     1      59.568  22.731  26.575  1.00  0.00     0.275 HD
ATOM      5  H11 UNL     1      60.079  23.853  25.420  1.00  0.00     0.275 HD
ENDBRANCH   1   2
BRANCH   1   6
HETATM    6  C2  UNL     1      62.240  23.574  27.729  1.00  0.00     0.208 C 
BRANCH   6   7
HETATM    7  O1  UNL     1      63.137  23.535  26.679  1.00  0.00    -0.398 OA
ATOM      8  H1  UNL     1      63.899  24.068  26.876  1.00  0.00     0.209 HD
ENDBRANCH   6   7
ENDBRANCH   1   6
BRANCH   1   9
HETATM    9  C3  UNL     1      59.993  24.156  28.429  1.00  0.00     0.206 C 
HETATM   10  O2  UNL     1      58.884  24.695  28.307  1.00  0.00    -0.646 OA
HETATM   11  O3  UNL     1      60.372  23.595  29.626  1.00  0.00    -0.646 OA
ENDBRANCH   1   9
TORSDOF 4
ENDMDL
