MODEL 8
REMARK VINA RESULT: -7.106096347      5.345      7.629
REMARK  8 active torsions:
REMARK  status: ('A' for Active; 'I' for Inactive)
REMARK    1  A    between atoms: N4_10  and  C5_11 
REMARK    2  A    between atoms: C6_13  and  C7_14 
REMARK    3  A    between atoms: C7_14  and  O2_15 
REMARK    4  A    between atoms: O2_15  and  P1_16 
REMARK    5  A    between atoms: P1_16  and  O5_19 
REMARK    6  A    between atoms: O5_19  and  P2_20 
REMARK    7  A    between atoms: C8_24  and  O9_25 
REMARK    8  A    between atoms: C9_27  and  O10_28 
ROOT
HETATM    1  C5  UNL     1      22.754  63.142 -15.457  1.00  0.00     0.262 C 
HETATM    2  O1  UNL     1      21.469  63.538 -15.125  1.00  0.00    -0.353 OA
HETATM    3  C6  UNL     1      21.532  64.920 -15.099  1.00  0.00     0.180 C 
HETATM    4  C8  UNL     1      22.207  65.204 -16.449  1.00  0.00     0.182 C 
HETATM    5  C9  UNL     1      23.296  64.146 -16.440  1.00  0.00     0.198 C 
ENDROOT
BRANCH   1   6
HETATM    6  N4  UNL     1      22.763  61.826 -16.064  1.00  0.00    -0.297 N 
HETATM    7  C2  UNL     1      21.873  61.381 -16.970  1.00  0.00     0.146 A 
HETATM    8  N2  UNL     1      20.807  61.967 -17.532  1.00  0.00    -0.314 N 
HETATM    9  C3  UNL     1      22.174  60.086 -17.338  1.00  0.00     0.146 A 
HETATM   10  C1  UNL     1      20.022  61.347 -18.436  1.00  0.00     0.196 A 
ATOM     11  H2  UNL     1      20.580  62.924 -17.263  1.00  0.00     0.170 HD
HETATM   12  N1  UNL     1      18.895  62.001 -19.013  1.00  0.00    -0.063 NA
HETATM   13  N5  UNL     1      20.340  60.071 -18.783  1.00  0.00    -0.295 N 
HETATM   14  C10 UNL     1      21.392  59.423 -18.260  1.00  0.00     0.278 A 
ATOM     15  H5  UNL     1      19.756  59.588 -19.467  1.00  0.00     0.171 HD
HETATM   16  O11 UNL     1      21.637  58.237 -18.622  1.00  0.00    -0.265 OA
HETATM   17  N3  UNL     1      23.266  59.744 -16.642  1.00  0.00    -0.345 N 
HETATM   18  C4  UNL     1      23.621  60.807 -15.868  1.00  0.00     0.188 A 
ATOM     19  H3  UNL     1      23.748  58.846 -16.685  1.00  0.00     0.167 HD
ENDBRANCH   1   6
BRANCH   5  20
HETATM   20  O10 UNL     1      24.518  64.678 -16.039  1.00  0.00    -0.388 OA
ATOM     21  H10 UNL     1      24.424  65.325 -15.350  1.00  0.00     0.210 HD
ENDBRANCH   5  20
BRANCH   3  22
HETATM   22  C7  UNL     1      20.189  65.571 -15.015  1.00  0.00     0.216 C 
BRANCH  22  23
HETATM   23  O2  UNL     1      19.424  64.816 -14.124  1.00  0.00    -0.287 OA
BRANCH  23  24
HETATM   24  P1  UNL     1      17.893  65.024 -14.198  1.00  0.00     0.418 P 
HETATM   25  O3  UNL     1      17.716  63.458 -13.650  1.00  0.00    -0.624 OA
HETATM   26  O4  UNL     1      18.013  66.251 -13.097  1.00  0.00    -0.624 OA
BRANCH  24  27
HETATM   27  O5  UNL     1      16.367  65.178 -14.203  1.00  0.00    -0.173 OA
BRANCH  27  28
HETATM   28  P2  UNL     1      15.500  64.821 -15.447  1.00  0.00     0.431 P 
HETATM   29  O6  UNL     1      14.539  64.156 -16.454  1.00  0.00    -0.616 OA
HETATM   30  O7  UNL     1      16.240  65.841 -16.460  1.00  0.00    -0.616 OA
HETATM   31  O8  UNL     1      14.202  65.372 -14.576  1.00  0.00    -0.616 OA
ENDBRANCH  27  28
ENDBRANCH  24  27
ENDBRANCH  23  24
ENDBRANCH  22  23
ENDBRANCH   3  22
BRANCH   4  32
HETATM   32  O9  UNL     1      21.333  64.894 -17.479  1.00  0.00    -0.390 OA
ATOM     33  H9  UNL     1      20.608  64.384 -17.138  1.00  0.00     0.210 HD
ENDBRANCH   4  32
TORSDOF 8
ENDMDL
