MODEL 6
REMARK VINA RESULT: -7.227365205      2.849      4.508
REMARK  8 active torsions:
REMARK  status: ('A' for Active; 'I' for Inactive)
REMARK    1  A    between atoms: N4_10  and  C5_11 
REMARK    2  A    between atoms: C6_13  and  C7_14 
REMARK    3  A    between atoms: C7_14  and  O2_15 
REMARK    4  A    between atoms: O2_15  and  P1_16 
REMARK    5  A    between atoms: P1_16  and  O5_19 
REMARK    6  A    between atoms: O5_19  and  P2_20 
REMARK    7  A    between atoms: C8_24  and  O9_25 
REMARK    8  A    between atoms: C9_27  and  O10_28 
ROOT
HETATM    1  C5  UNL     1      20.744  67.093 -17.041  1.00  0.00     0.262 C 
HETATM    2  O1  UNL     1      20.746  66.481 -15.799  1.00  0.00    -0.353 OA
HETATM    3  C6  UNL     1      20.101  65.274 -16.010  1.00  0.00     0.180 C 
HETATM    4  C8  UNL     1      20.861  64.752 -17.238  1.00  0.00     0.182 C 
HETATM    5  C9  UNL     1      20.933  66.016 -18.076  1.00  0.00     0.198 C 
ENDROOT
BRANCH   1   6
HETATM    6  N4  UNL     1      21.818  68.061 -17.157  1.00  0.00    -0.297 N 
HETATM    7  C2  UNL     1      23.045  67.929 -16.622  1.00  0.00     0.146 A 
HETATM    8  N2  UNL     1      23.594  66.953 -15.887  1.00  0.00    -0.314 N 
HETATM    9  C3  UNL     1      23.817  69.031 -16.924  1.00  0.00     0.146 A 
HETATM   10  C1  UNL     1      24.863  67.003 -15.434  1.00  0.00     0.196 A 
ATOM     11  H2  UNL     1      23.027  66.136 -15.661  1.00  0.00     0.170 HD
HETATM   12  N1  UNL     1      25.415  65.945 -14.653  1.00  0.00    -0.063 NA
HETATM   13  N5  UNL     1      25.605  68.099 -15.745  1.00  0.00    -0.295 N 
HETATM   14  C10 UNL     1      25.119  69.114 -16.477  1.00  0.00     0.278 A 
ATOM     15  H5  UNL     1      26.568  68.152 -15.410  1.00  0.00     0.171 HD
HETATM   16  O11 UNL     1      25.857  70.107 -16.733  1.00  0.00    -0.265 OA
HETATM   17  N3  UNL     1      23.042  69.841 -17.656  1.00  0.00    -0.345 N 
HETATM   18  C4  UNL     1      21.825  69.247 -17.794  1.00  0.00     0.188 A 
ATOM     19  H3  UNL     1      23.316  70.746 -18.041  1.00  0.00     0.167 HD
ENDBRANCH   1   6
BRANCH   5  20
HETATM   20  O10 UNL     1      19.940  66.035 -19.053  1.00  0.00    -0.388 OA
ATOM     21  H10 UNL     1      20.242  66.415 -19.870  1.00  0.00     0.210 HD
ENDBRANCH   5  20
BRANCH   3  22
HETATM   22  C7  UNL     1      20.218  64.332 -14.856  1.00  0.00     0.216 C 
BRANCH  22  23
HETATM   23  O2  UNL     1      19.418  64.839 -13.831  1.00  0.00    -0.287 OA
BRANCH  23  24
HETATM   24  P1  UNL     1      17.924  65.043 -14.173  1.00  0.00     0.418 P 
HETATM   25  O3  UNL     1      17.643  63.509 -13.579  1.00  0.00    -0.624 OA
HETATM   26  O4  UNL     1      17.868  66.327 -13.135  1.00  0.00    -0.624 OA
BRANCH  24  27
HETATM   27  O5  UNL     1      16.421  65.196 -14.443  1.00  0.00    -0.173 OA
BRANCH  27  28
HETATM   28  P2  UNL     1      15.512  63.980 -14.789  1.00  0.00     0.431 P 
HETATM   29  O6  UNL     1      14.584  62.749 -14.736  1.00  0.00    -0.616 OA
HETATM   30  O7  UNL     1      15.971  63.868 -16.335  1.00  0.00    -0.616 OA
HETATM   31  O8  UNL     1      14.229  64.959 -14.412  1.00  0.00    -0.616 OA
ENDBRANCH  27  28
ENDBRANCH  24  27
ENDBRANCH  23  24
ENDBRANCH  22  23
ENDBRANCH   3  22
BRANCH   4  32
HETATM   32  O9  UNL     1      22.156  64.418 -16.875  1.00  0.00    -0.390 OA
ATOM     33  H9  UNL     1      22.522  63.820 -17.516  1.00  0.00     0.210 HD
ENDBRANCH   4  32
TORSDOF 8
ENDMDL
