MODEL 7
REMARK VINA RESULT: -7.176346545      3.769      4.971
REMARK  8 active torsions:
REMARK  status: ('A' for Active; 'I' for Inactive)
REMARK    1  A    between atoms: N4_10  and  C5_11 
REMARK    2  A    between atoms: C6_13  and  C7_14 
REMARK    3  A    between atoms: C7_14  and  O2_15 
REMARK    4  A    between atoms: O2_15  and  P1_16 
REMARK    5  A    between atoms: P1_16  and  O5_19 
REMARK    6  A    between atoms: O5_19  and  P2_20 
REMARK    7  A    between atoms: C8_24  and  O9_25 
REMARK    8  A    between atoms: C9_27  and  O10_28 
ROOT
HETATM    1  C5  UNL     1      23.265  65.860 -15.327  1.00  0.00     0.262 C 
HETATM    2  O1  UNL     1      22.422  64.762 -15.388  1.00  0.00    -0.353 OA
HETATM    3  C6  UNL     1      21.238  65.207 -14.826  1.00  0.00     0.180 C 
HETATM    4  C8  UNL     1      21.021  66.512 -15.605  1.00  0.00     0.182 C 
HETATM    5  C9  UNL     1      22.427  67.086 -15.578  1.00  0.00     0.198 C 
ENDROOT
BRANCH   1   6
HETATM    6  N4  UNL     1      24.309  65.782 -16.329  1.00  0.00    -0.297 N 
HETATM    7  C2  UNL     1      25.331  64.906 -16.322  1.00  0.00     0.146 A 
HETATM    8  N2  UNL     1      25.660  63.932 -15.464  1.00  0.00    -0.314 N 
HETATM    9  C3  UNL     1      26.139  65.108 -17.421  1.00  0.00     0.146 A 
HETATM   10  C1  UNL     1      26.743  63.145 -15.628  1.00  0.00     0.196 A 
ATOM     11  H2  UNL     1      25.066  63.779 -14.649  1.00  0.00     0.170 HD
HETATM   12  N1  UNL     1      27.064  62.117 -14.694  1.00  0.00    -0.063 NA
HETATM   13  N5  UNL     1      27.525  63.362 -16.721  1.00  0.00    -0.295 N 
HETATM   14  C10 UNL     1      27.254  64.320 -17.621  1.00  0.00     0.278 A 
ATOM     15  H5  UNL     1      28.347  62.775 -16.861  1.00  0.00     0.171 HD
HETATM   16  O11 UNL     1      28.018  64.474 -18.615  1.00  0.00    -0.265 OA
HETATM   17  N3  UNL     1      25.595  66.122 -18.104  1.00  0.00    -0.345 N 
HETATM   18  C4  UNL     1      24.481  66.530 -17.436  1.00  0.00     0.188 A 
ATOM     19  H3  UNL     1      25.953  66.520 -18.973  1.00  0.00     0.167 HD
ENDBRANCH   1   6
BRANCH   5  20
HETATM   20  O10 UNL     1      22.567  68.041 -14.575  1.00  0.00    -0.388 OA
ATOM     21  H10 UNL     1      22.446  68.927 -14.896  1.00  0.00     0.210 HD
ENDBRANCH   5  20
BRANCH   3  22
HETATM   22  C7  UNL     1      20.099  64.260 -15.023  1.00  0.00     0.216 C 
BRANCH  22  23
HETATM   23  O2  UNL     1      19.252  64.405 -13.922  1.00  0.00    -0.287 OA
BRANCH  23  24
HETATM   24  P1  UNL     1      17.838  64.955 -14.220  1.00  0.00     0.418 P 
HETATM   25  O3  UNL     1      17.224  63.504 -13.671  1.00  0.00    -0.624 OA
HETATM   26  O4  UNL     1      18.093  66.178 -13.138  1.00  0.00    -0.624 OA
BRANCH  24  27
HETATM   27  O5  UNL     1      16.406  65.456 -14.447  1.00  0.00    -0.173 OA
BRANCH  27  28
HETATM   28  P2  UNL     1      15.412  64.726 -15.398  1.00  0.00     0.431 P 
HETATM   29  O6  UNL     1      14.393  63.756 -16.030  1.00  0.00    -0.616 OA
HETATM   30  O7  UNL     1      15.885  65.486 -16.744  1.00  0.00    -0.616 OA
HETATM   31  O8  UNL     1      14.202  65.401 -14.490  1.00  0.00    -0.616 OA
ENDBRANCH  27  28
ENDBRANCH  24  27
ENDBRANCH  23  24
ENDBRANCH  22  23
ENDBRANCH   3  22
BRANCH   4  32
HETATM   32  O9  UNL     1      20.716  66.220 -16.925  1.00  0.00    -0.390 OA
ATOM     33  H9  UNL     1      20.643  67.028 -17.420  1.00  0.00     0.210 HD
ENDBRANCH   4  32
TORSDOF 8
ENDMDL
