MODEL 2
REMARK VINA RESULT: -8.013297531      0.822      1.223
REMARK  8 active torsions:
REMARK  status: ('A' for Active; 'I' for Inactive)
REMARK    1  A    between atoms: N4_10  and  C5_11 
REMARK    2  A    between atoms: C6_13  and  C7_14 
REMARK    3  A    between atoms: C7_14  and  O2_15 
REMARK    4  A    between atoms: O2_15  and  P1_16 
REMARK    5  A    between atoms: P1_16  and  O5_19 
REMARK    6  A    between atoms: O5_19  and  P2_20 
REMARK    7  A    between atoms: C8_24  and  O9_25 
REMARK    8  A    between atoms: C9_27  and  O10_28 
ROOT
HETATM    1  C5  UNL     1      24.156  67.729 -15.233  1.00  0.00     0.262 C 
HETATM    2  O1  UNL     1      22.802  67.499 -15.057  1.00  0.00    -0.353 OA
HETATM    3  C6  UNL     1      22.357  67.096 -16.305  1.00  0.00     0.180 C 
HETATM    4  C8  UNL     1      23.387  66.007 -16.640  1.00  0.00     0.182 C 
HETATM    5  C9  UNL     1      24.668  66.695 -16.201  1.00  0.00     0.198 C 
ENDROOT
BRANCH   1   6
HETATM    6  N4  UNL     1      24.880  67.613 -13.982  1.00  0.00    -0.297 N 
HETATM    7  C2  UNL     1      25.908  68.393 -13.603  1.00  0.00     0.146 A 
HETATM    8  N2  UNL     1      26.519  69.418 -14.213  1.00  0.00    -0.314 N 
HETATM    9  C3  UNL     1      26.363  68.011 -12.359  1.00  0.00     0.146 A 
HETATM   10  C1  UNL     1      27.552  70.087 -13.664  1.00  0.00     0.196 A 
ATOM     11  H2  UNL     1      26.186  69.705 -15.134  1.00  0.00     0.170 HD
HETATM   12  N1  UNL     1      28.179  71.174 -14.342  1.00  0.00    -0.063 NA
HETATM   13  N5  UNL     1      27.983  69.692 -12.435  1.00  0.00    -0.295 N 
HETATM   14  C10 UNL     1      27.418  68.674 -11.767  1.00  0.00     0.278 A 
ATOM     15  H5  UNL     1      28.763  70.189 -12.005  1.00  0.00     0.171 HD
HETATM   16  O11 UNL     1      27.862  68.353 -10.629  1.00  0.00    -0.265 OA
HETATM   17  N3  UNL     1      25.594  66.982 -11.979  1.00  0.00    -0.345 N 
HETATM   18  C4  UNL     1      24.693  66.743 -12.971  1.00  0.00     0.188 A 
ATOM     19  H3  UNL     1      25.671  66.468 -11.101  1.00  0.00     0.167 HD
ENDBRANCH   1   6
BRANCH   5  20
HETATM   20  O10 UNL     1      25.337  67.261 -17.282  1.00  0.00    -0.388 OA
ATOM     21  H10 UNL     1      25.808  66.616 -17.796  1.00  0.00     0.210 HD
ENDBRANCH   5  20
BRANCH   3  22
HETATM   22  C7  UNL     1      20.969  66.544 -16.287  1.00  0.00     0.216 C 
BRANCH  22  23
HETATM   23  O2  UNL     1      20.640  66.305 -14.951  1.00  0.00    -0.287 OA
BRANCH  23  24
HETATM   24  P1  UNL     1      19.608  65.182 -14.696  1.00  0.00     0.418 P 
HETATM   25  O3  UNL     1      20.851  64.271 -14.055  1.00  0.00    -0.624 OA
HETATM   26  O4  UNL     1      18.761  66.195 -13.702  1.00  0.00    -0.624 OA
BRANCH  24  27
HETATM   27  O5  UNL     1      18.629  64.046 -14.371  1.00  0.00    -0.173 OA
BRANCH  27  28
HETATM   28  P2  UNL     1      17.391  63.738 -15.263  1.00  0.00     0.431 P 
HETATM   29  O6  UNL     1      16.189  63.077 -15.970  1.00  0.00    -0.616 OA
HETATM   30  O7  UNL     1      17.569  65.015 -16.238  1.00  0.00    -0.616 OA
HETATM   31  O8  UNL     1      16.482  63.911 -13.888  1.00  0.00    -0.616 OA
ENDBRANCH  27  28
ENDBRANCH  24  27
ENDBRANCH  23  24
ENDBRANCH  22  23
ENDBRANCH   3  22
BRANCH   4  32
HETATM   32  O9  UNL     1      23.195  64.914 -15.810  1.00  0.00    -0.390 OA
ATOM     33  H9  UNL     1      23.955  64.802 -15.250  1.00  0.00     0.210 HD
ENDBRANCH   4  32
TORSDOF 8
ENDMDL
