MODEL 4
REMARK VINA RESULT: -7.212645192      2.751      9.751
REMARK  19 active torsions:
REMARK  status: ('A' for Active; 'I' for Inactive)
REMARK    1  A    between atoms: C2_2  and  C3_3 
REMARK    2  A    between atoms: C3_3  and  C4_4 
REMARK    3  A    between atoms: C4_4  and  C5_5 
REMARK    4  A    between atoms: C5_5  and  C6_6 
REMARK    5  A    between atoms: C6_6  and  C7_7 
REMARK    6  A    between atoms: C7_7  and  C8_8 
REMARK    7  A    between atoms: C8_8  and  C9_9 
REMARK    8  A    between atoms: C9_9  and  C10_10 
REMARK    9  A    between atoms: C10_10  and  C11_11 
REMARK   10  A    between atoms: C11_11  and  C12_12 
REMARK   11  A    between atoms: C12_12  and  C13_13 
REMARK   12  A    between atoms: C13_13  and  C14_14 
REMARK   13  A    between atoms: C14_14  and  C15_15 
REMARK   14  A    between atoms: C15_15  and  C16_16 
REMARK       I    between atoms: C16_16  and  N1_18 
REMARK   15  A    between atoms: N1_18  and  C17_20 
REMARK   16  A    between atoms: C17_20  and  C18_21 
REMARK   17  A    between atoms: C17_20  and  C20_25 
REMARK   18  A    between atoms: C18_21  and  C19_22 
REMARK   19  A    between atoms: C20_25  and  N2_26 
ROOT
HETATM    1  C15 UNL     1      19.351   9.228  56.915  1.00  0.00     0.106 C 
ENDROOT
BRANCH   1   2
HETATM    2  C14 UNL     1      18.128   9.958  57.245  1.00  0.00     0.036 C 
BRANCH   2   3
HETATM    3  C13 UNL     1      18.186  11.314  57.760  1.00  0.00    -0.026 C 
BRANCH   3   4
HETATM    4  C12 UNL     1      19.099  11.864  58.749  1.00  0.00    -0.004 C 
BRANCH   4   5
HETATM    5  C11 UNL     1      18.895  13.028  59.588  1.00  0.00    -0.004 C 
BRANCH   5   6
HETATM    6  C10 UNL     1      18.806  14.390  59.103  1.00  0.00    -0.027 C 
BRANCH   6   7
HETATM    7  C9  UNL     1      18.474  15.525  59.978  1.00  0.00     0.027 C 
BRANCH   7   8
HETATM    8  C8  UNL     1      17.133  15.587  60.609  1.00  0.00     0.004 C 
BRANCH   8   9
HETATM    9  C7  UNL     1      17.005  15.225  62.038  1.00  0.00     0.000 C 
BRANCH   9  10
HETATM   10  C6  UNL     1      16.044  14.059  62.262  1.00  0.00     0.000 C 
BRANCH  10  11
HETATM   11  C5  UNL     1      15.202  13.740  61.073  1.00  0.00     0.000 C 
BRANCH  11  12
HETATM   12  C4  UNL     1      15.370  12.307  60.652  1.00  0.00     0.000 C 
BRANCH  12  13
HETATM   13  C3  UNL     1      16.214  11.556  61.622  1.00  0.00    -0.000 C 
BRANCH  13  14
HETATM   14  C2  UNL     1      16.558  10.172  61.070  1.00  0.00    -0.005 C 
HETATM   15  C1  UNL     1      15.588   9.848  59.950  1.00  0.00     0.005 C 
ENDBRANCH  13  14
ENDBRANCH  12  13
ENDBRANCH  11  12
ENDBRANCH  10  11
ENDBRANCH   9  10
ENDBRANCH   8   9
ENDBRANCH   7   8
ENDBRANCH   6   7
ENDBRANCH   5   6
ENDBRANCH   4   5
ENDBRANCH   3   4
ENDBRANCH   2   3
ENDBRANCH   1   2
BRANCH   1  16
HETATM   16  C16 UNL     1      19.135   7.776  56.815  1.00  0.00     0.218 C 
HETATM   17  O1  UNL     1      17.991   7.296  56.851  1.00  0.00    -0.274 OA
HETATM   18  N1  UNL     1      20.215   6.844  56.670  1.00  0.00    -0.354 N 
ATOM     19  H1  UNL     1      21.175   7.188  56.637  1.00  0.00     0.162 HD
BRANCH  18  20
HETATM   20  C17 UNL     1      19.959   5.397  56.569  1.00  0.00     0.120 C 
BRANCH  20  21
HETATM   21  C18 UNL     1      20.415   4.796  57.864  1.00  0.00     0.140 C 
BRANCH  21  22
HETATM   22  C19 UNL     1      21.242   5.651  58.707  1.00  0.00     0.174 C 
HETATM   23  O2  UNL     1      20.823   6.201  59.746  1.00  0.00    -0.648 OA
HETATM   24  O3  UNL     1      22.564   5.875  58.347  1.00  0.00    -0.648 OA
ENDBRANCH  21  22
ENDBRANCH  20  21
BRANCH  20  25
HETATM   25  C20 UNL     1      20.609   4.910  55.340  1.00  0.00     0.261 C 
BRANCH  25  26
HETATM   26  N2  UNL     1      19.817   4.183  54.401  1.00  0.00    -0.077 N 
HETATM   27  C21 UNL     1      20.652   3.867  53.239  1.00  0.00     0.271 C 
HETATM   28  C22 UNL     1      18.733   5.032  53.861  1.00  0.00     0.271 C 
HETATM   29  C23 UNL     1      19.231   2.978  54.869  1.00  0.00     0.271 C 
ENDBRANCH  25  26
ENDBRANCH  20  25
ENDBRANCH  18  20
ENDBRANCH   1  16
TORSDOF 19
ENDMDL
