MODEL 5
REMARK VINA RESULT: -7.173601837      3.130      8.599
REMARK  19 active torsions:
REMARK  status: ('A' for Active; 'I' for Inactive)
REMARK    1  A    between atoms: C2_2  and  C3_3 
REMARK    2  A    between atoms: C3_3  and  C4_4 
REMARK    3  A    between atoms: C4_4  and  C5_5 
REMARK    4  A    between atoms: C5_5  and  C6_6 
REMARK    5  A    between atoms: C6_6  and  C7_7 
REMARK    6  A    between atoms: C7_7  and  C8_8 
REMARK    7  A    between atoms: C8_8  and  C9_9 
REMARK    8  A    between atoms: C9_9  and  C10_10 
REMARK    9  A    between atoms: C10_10  and  C11_11 
REMARK   10  A    between atoms: C11_11  and  C12_12 
REMARK   11  A    between atoms: C12_12  and  C13_13 
REMARK   12  A    between atoms: C13_13  and  C14_14 
REMARK   13  A    between atoms: C14_14  and  C15_15 
REMARK   14  A    between atoms: C15_15  and  C16_16 
REMARK       I    between atoms: C16_16  and  N1_18 
REMARK   15  A    between atoms: N1_18  and  C17_20 
REMARK   16  A    between atoms: C17_20  and  C18_21 
REMARK   17  A    between atoms: C17_20  and  C20_25 
REMARK   18  A    between atoms: C18_21  and  C19_22 
REMARK   19  A    between atoms: C20_25  and  N2_26 
ROOT
HETATM    1  C15 UNL     1      19.059  10.394  57.901  1.00  0.00     0.106 C 
ENDROOT
BRANCH   1   2
HETATM    2  C14 UNL     1      19.678  11.454  58.696  1.00  0.00     0.036 C 
BRANCH   2   3
HETATM    3  C13 UNL     1      19.291  12.842  58.516  1.00  0.00    -0.026 C 
BRANCH   3   4
HETATM    4  C12 UNL     1      18.339  13.620  59.292  1.00  0.00    -0.004 C 
BRANCH   4   5
HETATM    5  C11 UNL     1      18.529  14.941  59.856  1.00  0.00    -0.004 C 
BRANCH   5   6
HETATM    6  C10 UNL     1      18.133  15.333  61.193  1.00  0.00    -0.027 C 
BRANCH   6   7
HETATM    7  C9  UNL     1      17.586  14.380  62.171  1.00  0.00     0.027 C 
BRANCH   7   8
HETATM    8  C8  UNL     1      18.509  13.466  62.888  1.00  0.00     0.004 C 
BRANCH   8   9
HETATM    9  C7  UNL     1      18.456  12.020  62.579  1.00  0.00     0.000 C 
BRANCH   9  10
HETATM   10  C6  UNL     1      17.070  11.569  62.127  1.00  0.00     0.000 C 
BRANCH  10  11
HETATM   11  C5  UNL     1      17.096  10.436  61.157  1.00  0.00     0.000 C 
BRANCH  11  12
HETATM   12  C4  UNL     1      15.741  10.203  60.550  1.00  0.00     0.000 C 
BRANCH  12  13
HETATM   13  C3  UNL     1      15.622  10.875  59.227  1.00  0.00    -0.000 C 
BRANCH  13  14
HETATM   14  C2  UNL     1      15.462   9.838  58.114  1.00  0.00    -0.005 C 
HETATM   15  C1  UNL     1      14.851  10.521  56.905  1.00  0.00     0.005 C 
ENDBRANCH  13  14
ENDBRANCH  12  13
ENDBRANCH  11  12
ENDBRANCH  10  11
ENDBRANCH   9  10
ENDBRANCH   8   9
ENDBRANCH   7   8
ENDBRANCH   6   7
ENDBRANCH   5   6
ENDBRANCH   4   5
ENDBRANCH   3   4
ENDBRANCH   2   3
ENDBRANCH   1   2
BRANCH   1  16
HETATM   16  C16 UNL     1      19.331   9.051  58.437  1.00  0.00     0.218 C 
HETATM   17  O1  UNL     1      18.445   8.183  58.468  1.00  0.00    -0.274 OA
HETATM   18  N1  UNL     1      20.617   8.671  58.946  1.00  0.00    -0.354 N 
ATOM     19  H1  UNL     1      21.380   9.349  58.945  1.00  0.00     0.162 HD
BRANCH  18  20
HETATM   20  C17 UNL     1      20.853   7.316  59.471  1.00  0.00     0.120 C 
BRANCH  20  21
HETATM   21  C18 UNL     1      21.466   7.489  60.828  1.00  0.00     0.140 C 
BRANCH  21  22
HETATM   22  C19 UNL     1      21.119   8.719  61.530  1.00  0.00     0.174 C 
HETATM   23  O2  UNL     1      20.065   8.862  62.182  1.00  0.00    -0.648 OA
HETATM   24  O3  UNL     1      21.997   9.793  61.479  1.00  0.00    -0.648 OA
ENDBRANCH  21  22
ENDBRANCH  20  21
BRANCH  20  25
HETATM   25  C20 UNL     1      21.643   6.576  58.470  1.00  0.00     0.261 C 
BRANCH  25  26
HETATM   26  N2  UNL     1      21.005   5.518  57.756  1.00  0.00    -0.077 N 
HETATM   27  C21 UNL     1      20.133   4.795  58.685  1.00  0.00     0.271 C 
HETATM   28  C22 UNL     1      21.996   4.511  57.317  1.00  0.00     0.271 C 
HETATM   29  C23 UNL     1      20.237   5.892  56.624  1.00  0.00     0.271 C 
ENDBRANCH  25  26
ENDBRANCH  20  25
ENDBRANCH  18  20
ENDBRANCH   1  16
TORSDOF 19
ENDMDL
