MODEL 15
REMARK VINA RESULT: -7.550262395      8.762     10.205
REMARK  2 active torsions:
REMARK  status: ('A' for Active; 'I' for Inactive)
REMARK    1  A    between atoms: C2_2  and  C3_3 
REMARK    2  A    between atoms: C5_7  and  C6_8 
ROOT
HETATM    1  C3  UNL     1      31.930  68.821   2.018  1.00  0.00     0.118 A 
HETATM    2  N1  UNL     1      32.611  67.969   2.587  1.00  0.00    -0.341 N 
ATOM      3  H1  UNL     1      33.460  68.204   3.101  1.00  0.00     0.167 HD
HETATM    4  C4  UNL     1      32.187  66.780   2.492  1.00  0.00     0.076 A 
HETATM    5  C5  UNL     1      32.492  65.446   2.679  1.00  0.00     0.058 C 
HETATM    6  C7  UNL     1      31.666  64.352   2.406  1.00  0.00     0.019 C 
HETATM    7  C8  UNL     1      30.364  64.662   1.836  1.00  0.00     0.003 C 
HETATM    8  C9  UNL     1      30.216  65.874   1.585  1.00  0.00     0.032 C 
HETATM    9  C10 UNL     1      30.868  66.926   1.730  1.00  0.00     0.061 A 
HETATM   10  N3  UNL     1      30.890  68.241   1.536  1.00  0.00    -0.342 N 
ATOM     11  H3  UNL     1      30.148  68.744   1.048  1.00  0.00     0.167 HD
ENDROOT
BRANCH   1  12
HETATM   12  C2  UNL     1      32.088  70.324   1.892  1.00  0.00     0.179 C 
HETATM   13  C1  UNL     1      30.863  71.061   2.359  1.00  0.00     0.055 C 
HETATM   14  C11 UNL     1      33.325  70.896   2.513  1.00  0.00     0.048 C 
HETATM   15  C12 UNL     1      33.428  72.244   1.805  1.00  0.00     0.030 C 
HETATM   16  C13 UNL     1      32.669  72.027   0.526  1.00  0.00     0.233 C 
HETATM   17  N4  UNL     1      32.296  70.629   0.487  1.00  0.00    -0.059 N 
ATOM     18  H42 UNL     1      32.961  70.020   0.008  1.00  0.00     0.278 HD
ATOM     19  H41 UNL     1      31.507  70.411  -0.122  1.00  0.00     0.278 HD
ENDBRANCH   1  12
BRANCH   5  20
HETATM   20  C6  UNL     1      33.971  65.142   3.013  1.00  0.00     0.267 C 
HETATM   21  N2  UNL     1      34.011  64.980   4.430  1.00  0.00    -0.057 NA
HETATM   22  O1  UNL     1      34.825  65.067   2.187  1.00  0.00    -0.271 OA
ENDBRANCH   5  20
TORSDOF 2
ENDMDL
