MODEL 14
REMARK VINA RESULT: -7.577827139      3.732      5.058
REMARK  2 active torsions:
REMARK  status: ('A' for Active; 'I' for Inactive)
REMARK    1  A    between atoms: C2_2  and  C3_3 
REMARK    2  A    between atoms: C5_7  and  C6_8 
ROOT
HETATM    1  C3  UNL     1      22.731  67.096   9.241  1.00  0.00     0.118 A 
HETATM    2  N1  UNL     1      23.474  66.430   8.521  1.00  0.00    -0.341 N 
ATOM      3  H1  UNL     1      23.190  66.105   7.597  1.00  0.00     0.167 HD
HETATM    4  C4  UNL     1      24.615  66.175   9.005  1.00  0.00     0.076 A 
HETATM    5  C5  UNL     1      25.761  65.415   8.876  1.00  0.00     0.058 C 
HETATM    6  C7  UNL     1      26.880  65.437   9.713  1.00  0.00     0.019 C 
HETATM    7  C8  UNL     1      26.805  66.337  10.854  1.00  0.00     0.003 C 
HETATM    8  C9  UNL     1      25.696  66.893  10.966  1.00  0.00     0.032 C 
HETATM    9  C10 UNL     1      24.621  66.929  10.337  1.00  0.00     0.061 A 
HETATM   10  N3  UNL     1      23.388  67.426  10.294  1.00  0.00    -0.342 N 
ATOM     11  H3  UNL     1      23.000  68.015  11.030  1.00  0.00     0.167 HD
ENDROOT
BRANCH   1  12
HETATM   12  C2  UNL     1      21.315  67.602   9.039  1.00  0.00     0.179 C 
HETATM   13  C1  UNL     1      20.399  67.172  10.152  1.00  0.00     0.055 C 
HETATM   14  C11 UNL     1      21.187  69.070   8.778  1.00  0.00     0.048 C 
HETATM   15  C12 UNL     1      19.799  69.150   8.148  1.00  0.00     0.030 C 
HETATM   16  C13 UNL     1      19.586  67.768   7.595  1.00  0.00     0.233 C 
HETATM   17  N4  UNL     1      20.819  67.037   7.795  1.00  0.00    -0.059 N 
ATOM     18  H42 UNL     1      21.474  67.076   7.014  1.00  0.00     0.278 HD
ATOM     19  H41 UNL     1      20.722  66.022   7.793  1.00  0.00     0.278 HD
ENDBRANCH   1  12
BRANCH   5  20
HETATM   20  C6  UNL     1      25.690  64.276   7.831  1.00  0.00     0.267 C 
HETATM   21  N2  UNL     1      26.938  64.323   7.140  1.00  0.00    -0.057 NA
HETATM   22  O1  UNL     1      24.750  63.556   7.714  1.00  0.00    -0.271 OA
ENDBRANCH   5  20
TORSDOF 2
ENDMDL
