MODEL 13
REMARK VINA RESULT: -7.602211811      8.935     10.200
REMARK  2 active torsions:
REMARK  status: ('A' for Active; 'I' for Inactive)
REMARK    1  A    between atoms: C2_2  and  C3_3 
REMARK    2  A    between atoms: C5_7  and  C6_8 
ROOT
HETATM    1  C3  UNL     1      32.889  68.784   1.965  1.00  0.00     0.118 A 
HETATM    2  N1  UNL     1      31.922  68.054   1.749  1.00  0.00    -0.341 N 
ATOM      3  H1  UNL     1      31.056  68.402   1.338  1.00  0.00     0.167 HD
HETATM    4  C4  UNL     1      32.074  66.840   2.073  1.00  0.00     0.076 A 
HETATM    5  C5  UNL     1      31.440  65.631   2.283  1.00  0.00     0.058 C 
HETATM    6  C7  UNL     1      32.035  64.432   2.686  1.00  0.00     0.019 C 
HETATM    7  C8  UNL     1      33.466  64.483   2.938  1.00  0.00     0.003 C 
HETATM    8  C9  UNL     1      33.938  65.633   2.845  1.00  0.00     0.032 C 
HETATM    9  C10 UNL     1      33.528  66.771   2.547  1.00  0.00     0.061 A 
HETATM   10  N3  UNL     1      33.850  68.052   2.402  1.00  0.00    -0.342 N 
ATOM     11  H3  UNL     1      34.776  68.421   2.618  1.00  0.00     0.167 HD
ENDROOT
BRANCH   1  12
HETATM   12  C2  UNL     1      33.109  70.266   1.729  1.00  0.00     0.179 C 
HETATM   13  C1  UNL     1      32.696  71.093   2.915  1.00  0.00     0.055 C 
HETATM   14  C11 UNL     1      34.479  70.648   1.261  1.00  0.00     0.048 C 
HETATM   15  C12 UNL     1      34.225  72.029   0.662  1.00  0.00     0.030 C 
HETATM   16  C13 UNL     1      32.761  71.998   0.321  1.00  0.00     0.233 C 
HETATM   17  N4  UNL     1      32.290  70.657   0.593  1.00  0.00    -0.059 N 
ATOM     18  H42 UNL     1      32.326  70.019  -0.203  1.00  0.00     0.278 HD
ATOM     19  H41 UNL     1      31.284  70.576   0.740  1.00  0.00     0.278 HD
ENDBRANCH   1  12
BRANCH   5  20
HETATM   20  C6  UNL     1      29.894  65.682   2.284  1.00  0.00     0.267 C 
HETATM   21  N2  UNL     1      29.559  66.876   2.991  1.00  0.00    -0.057 NA
HETATM   22  O1  UNL     1      29.213  64.855   1.765  1.00  0.00    -0.271 OA
ENDBRANCH   5  20
TORSDOF 2
ENDMDL
