MODEL 7
REMARK VINA RESULT: -8.258023602      1.014      1.381
REMARK  2 active torsions:
REMARK  status: ('A' for Active; 'I' for Inactive)
REMARK    1  A    between atoms: C2_2  and  C3_3 
REMARK    2  A    between atoms: C5_7  and  C6_8 
ROOT
HETATM    1  C3  UNL     1      25.697  64.513   7.792  1.00  0.00     0.118 A 
HETATM    2  N1  UNL     1      25.500  65.062   8.876  1.00  0.00    -0.341 N 
ATOM      3  H1  UNL     1      24.562  65.279   9.214  1.00  0.00     0.167 HD
HETATM    4  C4  UNL     1      26.539  65.341   9.541  1.00  0.00     0.076 A 
HETATM    5  C5  UNL     1      27.046  66.046  10.616  1.00  0.00     0.058 C 
HETATM    6  C7  UNL     1      28.379  66.094  11.031  1.00  0.00     0.019 C 
HETATM    7  C8  UNL     1      29.328  65.344  10.222  1.00  0.00     0.003 C 
HETATM    8  C9  UNL     1      28.811  64.840   9.206  1.00  0.00     0.032 C 
HETATM    9  C10 UNL     1      27.676  64.757   8.700  1.00  0.00     0.061 A 
HETATM   10  N3  UNL     1      26.958  64.296   7.680  1.00  0.00    -0.342 N 
ATOM     11  H3  UNL     1      27.371  63.814   6.882  1.00  0.00     0.167 HD
ENDROOT
BRANCH   1  12
HETATM   12  C2  UNL     1      24.744  64.028   6.716  1.00  0.00     0.179 C 
HETATM   13  C1  UNL     1      25.359  64.099   5.345  1.00  0.00     0.055 C 
HETATM   14  C11 UNL     1      24.129  62.684   6.958  1.00  0.00     0.048 C 
HETATM   15  C12 UNL     1      22.921  62.728   6.027  1.00  0.00     0.030 C 
HETATM   16  C13 UNL     1      22.661  64.199   5.860  1.00  0.00     0.233 C 
HETATM   17  N4  UNL     1      23.577  64.894   6.738  1.00  0.00    -0.059 N 
ATOM     18  H42 UNL     1      23.210  65.098   7.669  1.00  0.00     0.278 HD
ATOM     19  H41 UNL     1      23.758  65.866   6.489  1.00  0.00     0.278 HD
ENDBRANCH   1  12
BRANCH   5  20
HETATM   20  C6  UNL     1      26.069  67.048  11.275  1.00  0.00     0.267 C 
HETATM   21  N2  UNL     1      26.734  67.498  12.455  1.00  0.00    -0.057 NA
HETATM   22  O1  UNL     1      25.010  67.329  10.810  1.00  0.00    -0.271 OA
ENDBRANCH   5  20
TORSDOF 2
ENDMDL
