MODEL 2
REMARK VINA RESULT: -7.416546623      0.928      1.536
REMARK  13 active torsions:
REMARK  status: ('A' for Active; 'I' for Inactive)
REMARK    1  A    between atoms: C2_2  and  C3_3 
REMARK    2  A    between atoms: C3_3  and  C4_4 
REMARK    3  A    between atoms: C4_4  and  C5_5 
REMARK    4  A    between atoms: C5_5  and  C6_6 
REMARK    5  A    between atoms: C6_6  and  C7_7 
REMARK    6  A    between atoms: C7_7  and  C8_8 
REMARK    7  A    between atoms: C8_8  and  C9_9 
REMARK    8  A    between atoms: C9_9  and  C10_10 
REMARK    9  A    between atoms: C10_10  and  C11_11 
REMARK   10  A    between atoms: C11_11  and  C12_12 
REMARK   11  A    between atoms: C12_12  and  S1_13 
REMARK   12  A    between atoms: S1_13  and  C13_14 
REMARK   13  A    between atoms: C14_21  and  C15_22 
ROOT
HETATM    1  C12 UNL     1      32.022   6.004  15.143  1.00  0.00     0.081 C 
ENDROOT
BRANCH   1   2
HETATM    2  C11 UNL     1      32.321   5.555  13.739  1.00  0.00     0.010 C 
BRANCH   2   3
HETATM    3  C10 UNL     1      31.275   4.562  13.259  1.00  0.00     0.001 C 
BRANCH   3   4
HETATM    4  C9  UNL     1      31.788   3.735  12.101  1.00  0.00     0.000 C 
BRANCH   4   5
HETATM    5  C8  UNL     1      33.217   3.327  12.441  1.00  0.00     0.000 C 
BRANCH   5   6
HETATM    6  C7  UNL     1      34.146   3.572  11.296  1.00  0.00     0.000 C 
BRANCH   6   7
HETATM    7  C6  UNL     1      35.407   4.297  11.683  1.00  0.00     0.000 C 
BRANCH   7   8
HETATM    8  C5  UNL     1      36.557   3.323  11.709  1.00  0.00     0.000 C 
BRANCH   8   9
HETATM    9  C4  UNL     1      37.690   3.748  10.820  1.00  0.00     0.000 C 
BRANCH   9  10
HETATM   10  C3  UNL     1      37.251   4.708   9.736  1.00  0.00    -0.000 C 
BRANCH  10  11
HETATM   11  C2  UNL     1      38.212   5.841   9.562  1.00  0.00    -0.005 C 
HETATM   12  C1  UNL     1      37.521   7.148   9.827  1.00  0.00     0.005 C 
ENDBRANCH  10  11
ENDBRANCH   9  10
ENDBRANCH   8   9
ENDBRANCH   7   8
ENDBRANCH   6   7
ENDBRANCH   5   6
ENDBRANCH   4   5
ENDBRANCH   3   4
ENDBRANCH   2   3
ENDBRANCH   1   2
BRANCH   1  13
HETATM   13  S1  UNL     1      31.938   7.774  15.361  1.00  0.00    -0.108 SA
BRANCH  13  14
HETATM   14  C13 UNL     1      30.299   8.341  15.773  1.00  0.00     0.121 A 
HETATM   15  N1  UNL     1      29.873   8.826  16.961  1.00  0.00    -0.277 N 
HETATM   16  N2  UNL     1      28.596   9.138  16.885  1.00  0.00    -0.241 N 
ATOM     17  H1  UNL     1      30.455   8.933  17.792  1.00  0.00     0.189 HD
HETATM   18  N3  UNL     1      28.159   8.873  15.673  1.00  0.00    -0.278 N 
ATOM     19  H2  UNL     1      28.035   9.525  17.645  1.00  0.00     0.208 HD
HETATM   20  C14 UNL     1      29.199   8.369  14.944  1.00  0.00     0.161 A 
ATOM     21  H3  UNL     1      27.207   9.018  15.336  1.00  0.00     0.189 HD
BRANCH  20  22
HETATM   22  C15 UNL     1      29.152   7.935  13.553  1.00  0.00     0.231 C 
HETATM   23  O1  UNL     1      29.400   8.744  12.634  1.00  0.00    -0.643 OA
HETATM   24  O2  UNL     1      28.834   6.634  13.236  1.00  0.00    -0.643 OA
ENDBRANCH  20  22
ENDBRANCH  13  14
ENDBRANCH   1  13
TORSDOF 13
ENDMDL
