MODEL 3
REMARK VINA RESULT: -7.333130911      1.253      1.976
REMARK  13 active torsions:
REMARK  status: ('A' for Active; 'I' for Inactive)
REMARK    1  A    between atoms: C2_2  and  C3_3 
REMARK    2  A    between atoms: C3_3  and  C4_4 
REMARK    3  A    between atoms: C4_4  and  C5_5 
REMARK    4  A    between atoms: C5_5  and  C6_6 
REMARK    5  A    between atoms: C6_6  and  C7_7 
REMARK    6  A    between atoms: C7_7  and  C8_8 
REMARK    7  A    between atoms: C8_8  and  C9_9 
REMARK    8  A    between atoms: C9_9  and  C10_10 
REMARK    9  A    between atoms: C10_10  and  C11_11 
REMARK   10  A    between atoms: C11_11  and  C12_12 
REMARK   11  A    between atoms: C12_12  and  S1_13 
REMARK   12  A    between atoms: S1_13  and  C13_14 
REMARK   13  A    between atoms: C14_21  and  C15_22 
ROOT
HETATM    1  C12 UNL     1      32.450   5.422  13.313  1.00  0.00     0.081 C 
ENDROOT
BRANCH   1   2
HETATM    2  C11 UNL     1      31.981   4.133  12.696  1.00  0.00     0.010 C 
BRANCH   2   3
HETATM    3  C10 UNL     1      33.141   3.395  12.046  1.00  0.00     0.001 C 
BRANCH   3   4
HETATM    4  C9  UNL     1      34.433   4.168  12.181  1.00  0.00     0.000 C 
BRANCH   4   5
HETATM    5  C8  UNL     1      35.267   3.866  10.940  1.00  0.00     0.000 C 
BRANCH   5   6
HETATM    6  C7  UNL     1      35.999   2.570  11.073  1.00  0.00     0.000 C 
BRANCH   6   7
HETATM    7  C6  UNL     1      37.417   2.721  11.555  1.00  0.00     0.000 C 
BRANCH   7   8
HETATM    8  C5  UNL     1      38.155   3.676  10.651  1.00  0.00     0.000 C 
BRANCH   8   9
HETATM    9  C4  UNL     1      39.509   3.161  10.254  1.00  0.00     0.000 C 
BRANCH   9  10
HETATM   10  C3  UNL     1      39.676   3.061   8.754  1.00  0.00    -0.000 C 
BRANCH  10  11
HETATM   11  C2  UNL     1      38.361   3.003   8.043  1.00  0.00    -0.005 C 
HETATM   12  C1  UNL     1      38.565   2.584   6.615  1.00  0.00     0.005 C 
ENDBRANCH  10  11
ENDBRANCH   9  10
ENDBRANCH   8   9
ENDBRANCH   7   8
ENDBRANCH   6   7
ENDBRANCH   5   6
ENDBRANCH   4   5
ENDBRANCH   3   4
ENDBRANCH   2   3
ENDBRANCH   1   2
BRANCH   1  13
HETATM   13  S1  UNL     1      32.136   5.573  15.064  1.00  0.00    -0.108 SA
BRANCH  13  14
HETATM   14  C13 UNL     1      31.254   7.064  15.480  1.00  0.00     0.121 A 
HETATM   15  N1  UNL     1      31.672   8.067  16.286  1.00  0.00    -0.277 N 
HETATM   16  N2  UNL     1      30.746   9.000  16.358  1.00  0.00    -0.241 N 
ATOM     17  H1  UNL     1      32.572   8.095  16.766  1.00  0.00     0.189 HD
HETATM   18  N3  UNL     1      29.717   8.643  15.619  1.00  0.00    -0.278 N 
ATOM     19  H2  UNL     1      30.814   9.862  16.900  1.00  0.00     0.208 HD
HETATM   20  C14 UNL     1      29.998   7.431  15.052  1.00  0.00     0.161 A 
ATOM     21  H3  UNL     1      28.859   9.178  15.492  1.00  0.00     0.189 HD
BRANCH  20  22
HETATM   22  C15 UNL     1      29.128   6.668  14.166  1.00  0.00     0.231 C 
HETATM   23  O1  UNL     1      28.755   5.519  14.488  1.00  0.00    -0.643 OA
HETATM   24  O2  UNL     1      28.708   7.199  12.968  1.00  0.00    -0.643 OA
ENDBRANCH  20  22
ENDBRANCH  13  14
ENDBRANCH   1  13
TORSDOF 13
ENDMDL
