MODEL 1
REMARK VINA RESULT: -7.434828015      0.000      0.000
REMARK  13 active torsions:
REMARK  status: ('A' for Active; 'I' for Inactive)
REMARK    1  A    between atoms: C2_2  and  C3_3 
REMARK    2  A    between atoms: C3_3  and  C4_4 
REMARK    3  A    between atoms: C4_4  and  C5_5 
REMARK    4  A    between atoms: C5_5  and  C6_6 
REMARK    5  A    between atoms: C6_6  and  C7_7 
REMARK    6  A    between atoms: C7_7  and  C8_8 
REMARK    7  A    between atoms: C8_8  and  C9_9 
REMARK    8  A    between atoms: C9_9  and  C10_10 
REMARK    9  A    between atoms: C10_10  and  C11_11 
REMARK   10  A    between atoms: C11_11  and  C12_12 
REMARK   11  A    between atoms: C12_12  and  S1_13 
REMARK   12  A    between atoms: S1_13  and  C13_14 
REMARK   13  A    between atoms: C14_21  and  C15_22 
ROOT
HETATM    1  C12 UNL     1      31.957   5.992  15.073  1.00  0.00     0.081 C 
ENDROOT
BRANCH   1   2
HETATM    2  C11 UNL     1      32.233   5.655  13.633  1.00  0.00     0.010 C 
BRANCH   2   3
HETATM    3  C10 UNL     1      31.347   4.509  13.171  1.00  0.00     0.001 C 
BRANCH   3   4
HETATM    4  C9  UNL     1      31.924   3.820  11.953  1.00  0.00     0.000 C 
BRANCH   4   5
HETATM    5  C8  UNL     1      33.256   3.209  12.373  1.00  0.00     0.000 C 
BRANCH   5   6
HETATM    6  C7  UNL     1      34.325   3.472  11.361  1.00  0.00     0.000 C 
BRANCH   6   7
HETATM    7  C6  UNL     1      35.188   4.661  11.687  1.00  0.00     0.000 C 
BRANCH   7   8
HETATM    8  C5  UNL     1      36.402   4.659  10.792  1.00  0.00     0.000 C 
BRANCH   8   9
HETATM    9  C4  UNL     1      37.375   3.572  11.147  1.00  0.00     0.000 C 
BRANCH   9  10
HETATM   10  C3  UNL     1      38.466   3.407  10.112  1.00  0.00    -0.000 C 
BRANCH  10  11
HETATM   11  C2  UNL     1      37.913   3.122   8.751  1.00  0.00    -0.005 C 
HETATM   12  C1  UNL     1      39.034   2.899   7.777  1.00  0.00     0.005 C 
ENDBRANCH  10  11
ENDBRANCH   9  10
ENDBRANCH   8   9
ENDBRANCH   7   8
ENDBRANCH   6   7
ENDBRANCH   5   6
ENDBRANCH   4   5
ENDBRANCH   3   4
ENDBRANCH   2   3
ENDBRANCH   1   2
BRANCH   1  13
HETATM   13  S1  UNL     1      31.917   7.739  15.438  1.00  0.00    -0.108 SA
BRANCH  13  14
HETATM   14  C13 UNL     1      30.280   8.323  15.833  1.00  0.00     0.121 A 
HETATM   15  N1  UNL     1      29.854   8.834  17.010  1.00  0.00    -0.277 N 
HETATM   16  N2  UNL     1      28.579   9.153  16.925  1.00  0.00    -0.241 N 
ATOM     17  H1  UNL     1      30.434   8.955  17.841  1.00  0.00     0.189 HD
HETATM   18  N3  UNL     1      28.143   8.865  15.717  1.00  0.00    -0.278 N 
ATOM     19  H2  UNL     1      28.018   9.558  17.675  1.00  0.00     0.208 HD
HETATM   20  C14 UNL     1      29.183   8.340  15.001  1.00  0.00     0.161 A 
ATOM     21  H3  UNL     1      27.194   9.009  15.374  1.00  0.00     0.189 HD
BRANCH  20  22
HETATM   22  C15 UNL     1      29.137   7.879  13.620  1.00  0.00     0.231 C 
HETATM   23  O1  UNL     1      28.818   6.698  13.361  1.00  0.00    -0.643 OA
HETATM   24  O2  UNL     1      29.444   8.733  12.585  1.00  0.00    -0.643 OA
ENDBRANCH  20  22
ENDBRANCH  13  14
ENDBRANCH   1  13
TORSDOF 13
ENDMDL
