MODEL 2
REMARK VINA RESULT: -6.821242971      0.050      1.220
REMARK  5 active torsions:
REMARK  status: ('A' for Active; 'I' for Inactive)
REMARK    1  A    between atoms: C1_2  and  C2_4 
REMARK    2  A    between atoms: C2_4  and  C3_5 
REMARK    3  A    between atoms: C2_4  and  C10_12 
REMARK    4  A    between atoms: C3_5  and  C4_6 
REMARK    5  A    between atoms: C10_12  and  N1_13 
ROOT
HETATM    1  C2  UNL     1      11.311 -10.927  22.704  1.00  0.00     0.115 C 
ENDROOT
BRANCH   1   2
HETATM    2  C1  UNL     1      12.237 -11.967  23.275  1.00  0.00     0.179 C 
HETATM    3  O1  UNL     1      12.741 -12.860  22.553  1.00  0.00    -0.648 OA
HETATM    4  O2  UNL     1      12.580 -11.992  24.612  1.00  0.00    -0.648 OA
ENDBRANCH   1   2
BRANCH   1   5
HETATM    5  C3  UNL     1      10.118 -11.616  22.062  1.00  0.00     0.055 C 
BRANCH   5   6
HETATM    6  C4  UNL     1       9.165 -10.681  21.441  1.00  0.00    -0.057 A 
HETATM    7  C5  UNL     1       9.133 -10.404  20.095  1.00  0.00     0.007 A 
HETATM    8  C6  UNL     1       8.223  -9.526  19.533  1.00  0.00     0.001 A 
HETATM    9  C7  UNL     1       7.300  -8.885  20.334  1.00  0.00     0.000 A 
HETATM   10  C8  UNL     1       7.306  -9.140  21.687  1.00  0.00     0.001 A 
HETATM   11  C9  UNL     1       8.219 -10.017  22.224  1.00  0.00     0.007 A 
ENDBRANCH   5   6
ENDBRANCH   1   5
BRANCH   1  12
HETATM   12  C10 UNL     1      12.126 -10.157  21.700  1.00  0.00     0.217 C 
BRANCH  12  13
HETATM   13  N1  UNL     1      12.128  -8.755  21.972  1.00  0.00    -0.155 N 
HETATM   14  O3  UNL     1      11.201  -8.137  22.464  1.00  0.00    -0.537 OA
HETATM   15  O4  UNL     1      13.278  -8.032  21.676  1.00  0.00    -0.537 OA
ENDBRANCH  12  13
ENDBRANCH   1  12
TORSDOF 5
ENDMDL
