MODEL 11
REMARK VINA RESULT: -6.456707171      2.992      5.212
REMARK  5 active torsions:
REMARK  status: ('A' for Active; 'I' for Inactive)
REMARK    1  A    between atoms: C1_2  and  C2_4 
REMARK    2  A    between atoms: C2_4  and  C3_5 
REMARK    3  A    between atoms: C2_4  and  C10_12 
REMARK    4  A    between atoms: C3_5  and  C4_6 
REMARK    5  A    between atoms: C10_12  and  N1_13 
ROOT
HETATM    1  C2  UNL     1       8.202  -9.521  21.453  1.00  0.00     0.115 C 
ENDROOT
BRANCH   1   2
HETATM    2  C1  UNL     1       7.844  -8.921  20.120  1.00  0.00     0.179 C 
HETATM    3  O1  UNL     1       7.331  -7.779  20.033  1.00  0.00    -0.648 OA
HETATM    4  O2  UNL     1       8.060  -9.589  18.932  1.00  0.00    -0.648 OA
ENDBRANCH   1   2
BRANCH   1   5
HETATM    5  C3  UNL     1       8.650 -10.959  21.252  1.00  0.00     0.055 C 
BRANCH   5   6
HETATM    6  C4  UNL     1      10.046 -11.200  21.657  1.00  0.00    -0.057 A 
HETATM    7  C5  UNL     1      11.107 -10.438  21.232  1.00  0.00     0.007 A 
HETATM    8  C6  UNL     1      12.410 -10.680  21.632  1.00  0.00     0.001 A 
HETATM    9  C7  UNL     1      12.684 -11.725  22.491  1.00  0.00     0.000 A 
HETATM   10  C8  UNL     1      11.642 -12.507  22.935  1.00  0.00     0.001 A 
HETATM   11  C9  UNL     1      10.355 -12.249  22.526  1.00  0.00     0.007 A 
ENDBRANCH   5   6
ENDBRANCH   1   5
BRANCH   1  12
HETATM   12  C10 UNL     1       6.955  -9.430  22.292  1.00  0.00     0.217 C 
BRANCH  12  13
HETATM   13  N1  UNL     1       7.248  -9.130  23.658  1.00  0.00    -0.155 N 
HETATM   14  O3  UNL     1       6.434  -9.130  24.564  1.00  0.00    -0.537 OA
HETATM   15  O4  UNL     1       8.563  -8.830  23.996  1.00  0.00    -0.537 OA
ENDBRANCH  12  13
ENDBRANCH   1  12
TORSDOF 5
ENDMDL
