MODEL 1
REMARK VINA RESULT: -6.833720785      0.000      0.000
REMARK  5 active torsions:
REMARK  status: ('A' for Active; 'I' for Inactive)
REMARK    1  A    between atoms: C1_2  and  C2_4 
REMARK    2  A    between atoms: C2_4  and  C3_5 
REMARK    3  A    between atoms: C2_4  and  C10_12 
REMARK    4  A    between atoms: C3_5  and  C4_6 
REMARK    5  A    between atoms: C10_12  and  N1_13 
ROOT
HETATM    1  C2  UNL     1      11.272 -10.925  22.719  1.00  0.00     0.115 C 
ENDROOT
BRANCH   1   2
HETATM    2  C1  UNL     1      12.200 -11.970  23.277  1.00  0.00     0.179 C 
HETATM    3  O1  UNL     1      12.671 -12.880  22.553  1.00  0.00    -0.648 OA
HETATM    4  O2  UNL     1      12.581 -11.981  24.603  1.00  0.00    -0.648 OA
ENDBRANCH   1   2
BRANCH   1   5
HETATM    5  C3  UNL     1      10.072 -11.608  22.082  1.00  0.00     0.055 C 
BRANCH   5   6
HETATM    6  C4  UNL     1       9.105 -10.665  21.495  1.00  0.00    -0.057 A 
HETATM    7  C5  UNL     1       8.159  -9.987  22.224  1.00  0.00     0.007 A 
HETATM    8  C6  UNL     1       7.264  -9.101  21.651  1.00  0.00     0.001 A 
HETATM    9  C7  UNL     1       7.300  -8.871  20.290  1.00  0.00     0.000 A 
HETATM   10  C8  UNL     1       8.236  -9.536  19.531  1.00  0.00     0.001 A 
HETATM   11  C9  UNL     1       9.116 -10.412  20.122  1.00  0.00     0.007 A 
ENDBRANCH   5   6
ENDBRANCH   1   5
BRANCH   1  12
HETATM   12  C10 UNL     1      12.081 -10.152  21.712  1.00  0.00     0.217 C 
BRANCH  12  13
HETATM   13  N1  UNL     1      12.094  -8.751  21.994  1.00  0.00    -0.155 N 
HETATM   14  O3  UNL     1      11.178  -8.134  22.506  1.00  0.00    -0.537 OA
HETATM   15  O4  UNL     1      13.241  -8.030  21.682  1.00  0.00    -0.537 OA
ENDBRANCH  12  13
ENDBRANCH   1  12
TORSDOF 5
ENDMDL
