MODEL 6
REMARK VINA RESULT: -6.704149459      1.376      1.733
REMARK  5 active torsions:
REMARK  status: ('A' for Active; 'I' for Inactive)
REMARK    1  A    between atoms: C1_2  and  C2_4 
REMARK    2  A    between atoms: C2_4  and  C3_5 
REMARK    3  A    between atoms: C2_4  and  C10_12 
REMARK    4  A    between atoms: C3_5  and  C4_6 
REMARK    5  A    between atoms: C10_12  and  N1_13 
ROOT
HETATM    1  C2  UNL     1      12.567 -10.442  22.727  1.00  0.00     0.115 C 
ENDROOT
BRANCH   1   2
HETATM    2  C1  UNL     1      12.968 -10.972  24.078  1.00  0.00     0.179 C 
HETATM    3  O1  UNL     1      12.659 -12.131  24.443  1.00  0.00    -0.648 OA
HETATM    4  O2  UNL     1      13.693 -10.217  24.977  1.00  0.00    -0.648 OA
ENDBRANCH   1   2
BRANCH   1   5
HETATM    5  C3  UNL     1      11.617 -11.426  22.064  1.00  0.00     0.055 C 
BRANCH   5   6
HETATM    6  C4  UNL     1      10.380 -10.800  21.565  1.00  0.00    -0.057 A 
HETATM    7  C5  UNL     1       9.280 -10.551  22.349  1.00  0.00     0.007 A 
HETATM    8  C6  UNL     1       8.131  -9.955  21.859  1.00  0.00     0.001 A 
HETATM    9  C7  UNL     1       8.058  -9.589  20.531  1.00  0.00     0.000 A 
HETATM   10  C8  UNL     1       9.144  -9.826  19.718  1.00  0.00     0.001 A 
HETATM   11  C9  UNL     1      10.276 -10.418  20.226  1.00  0.00     0.007 A 
ENDBRANCH   5   6
ENDBRANCH   1   5
BRANCH   1  12
HETATM   12  C10 UNL     1      13.847 -10.284  21.951  1.00  0.00     0.217 C 
BRANCH  12  13
HETATM   13  N1  UNL     1      14.299  -8.929  21.930  1.00  0.00    -0.155 N 
HETATM   14  O3  UNL     1      13.662  -7.987  21.496  1.00  0.00    -0.537 OA
HETATM   15  O4  UNL     1      15.553  -8.648  22.462  1.00  0.00    -0.537 OA
ENDBRANCH  12  13
ENDBRANCH   1  12
TORSDOF 5
ENDMDL
