MODEL 5
REMARK VINA RESULT: -6.709575277      1.351      2.078
REMARK  5 active torsions:
REMARK  status: ('A' for Active; 'I' for Inactive)
REMARK    1  A    between atoms: C1_2  and  C2_4 
REMARK    2  A    between atoms: C2_4  and  C3_5 
REMARK    3  A    between atoms: C2_4  and  C10_12 
REMARK    4  A    between atoms: C3_5  and  C4_6 
REMARK    5  A    between atoms: C10_12  and  N1_13 
ROOT
HETATM    1  C2  UNL     1      12.516 -10.436  22.728  1.00  0.00     0.115 C 
ENDROOT
BRANCH   1   2
HETATM    2  C1  UNL     1      12.948 -10.971  24.067  1.00  0.00     0.179 C 
HETATM    3  O1  UNL     1      12.662 -12.138  24.427  1.00  0.00    -0.648 OA
HETATM    4  O2  UNL     1      13.676 -10.214  24.961  1.00  0.00    -0.648 OA
ENDBRANCH   1   2
BRANCH   1   5
HETATM    5  C3  UNL     1      11.549 -11.415  22.084  1.00  0.00     0.055 C 
BRANCH   5   6
HETATM    6  C4  UNL     1      10.348 -10.770  21.524  1.00  0.00    -0.057 A 
HETATM    7  C5  UNL     1      10.214 -10.423  20.202  1.00  0.00     0.007 A 
HETATM    8  C6  UNL     1       9.073  -9.823  19.698  1.00  0.00     0.001 A 
HETATM    9  C7  UNL     1       8.010  -9.550  20.536  1.00  0.00     0.000 A 
HETATM   10  C8  UNL     1       8.114  -9.887  21.867  1.00  0.00     0.001 A 
HETATM   11  C9  UNL     1       9.257 -10.482  22.347  1.00  0.00     0.007 A 
ENDBRANCH   5   6
ENDBRANCH   1   5
BRANCH   1  12
HETATM   12  C10 UNL     1      13.778 -10.277  21.923  1.00  0.00     0.217 C 
BRANCH  12  13
HETATM   13  N1  UNL     1      14.244  -8.927  21.914  1.00  0.00    -0.155 N 
HETATM   14  O3  UNL     1      13.629  -7.978  21.459  1.00  0.00    -0.537 OA
HETATM   15  O4  UNL     1      15.484  -8.657  22.483  1.00  0.00    -0.537 OA
ENDBRANCH  12  13
ENDBRANCH   1  12
TORSDOF 5
ENDMDL
