MODEL 3
REMARK VINA RESULT: -4.723515793      1.859      2.474
REMARK  3 active torsions:
REMARK  status: ('A' for Active; 'I' for Inactive)
REMARK    1  A    between atoms: O1_1  and  C1_3 
REMARK    2  A    between atoms: C2_4  and  O2_5 
REMARK    3  A    between atoms: C5_10  and  O4_11 
ROOT
HETATM    1  C1  UNL     1      36.034  27.341 -43.348  1.00  0.00     0.179 C 
HETATM    2  C2  UNL     1      34.902  27.086 -44.296  1.00  0.00     0.173 C 
HETATM    3  C3  UNL     1      33.629  26.809 -43.541  1.00  0.00     0.201 C 
HETATM    4  O3  UNL     1      33.883  25.627 -42.808  1.00  0.00    -0.386 OA
HETATM    5  C4  UNL     1      34.653  25.978 -41.736  1.00  0.00     0.201 C 
HETATM    6  C5  UNL     1      35.925  26.665 -42.038  1.00  0.00     0.173 C 
ENDROOT
BRANCH   1   7
HETATM    7  O1  UNL     1      37.216  26.988 -44.043  1.00  0.00    -0.390 OA
ATOM      8  H1  UNL     1      37.313  27.625 -44.741  1.00  0.00     0.210 HD
ENDBRANCH   1   7
BRANCH   2   9
HETATM    9  O2  UNL     1      34.666  28.182 -45.122  1.00  0.00    -0.391 OA
ATOM     10  H2  UNL     1      35.139  28.110 -45.943  1.00  0.00     0.210 HD
ENDBRANCH   2   9
BRANCH   6  11
HETATM   11  O4  UNL     1      36.975  25.738 -41.838  1.00  0.00    -0.391 OA
ATOM     12  H4  UNL     1      36.679  24.842 -41.952  1.00  0.00     0.210 HD
ENDBRANCH   6  11
TORSDOF 3
ENDMDL
