MODEL 11
REMARK VINA RESULT: -4.521493709      1.836      3.114
REMARK  3 active torsions:
REMARK  status: ('A' for Active; 'I' for Inactive)
REMARK    1  A    between atoms: O1_1  and  C1_3 
REMARK    2  A    between atoms: C2_4  and  O2_5 
REMARK    3  A    between atoms: C5_10  and  O4_11 
ROOT
HETATM    1  C1  UNL     1      35.765  26.664 -43.422  1.00  0.00     0.179 C 
HETATM    2  C2  UNL     1      35.793  27.042 -41.973  1.00  0.00     0.173 C 
HETATM    3  C3  UNL     1      34.398  27.093 -41.410  1.00  0.00     0.201 C 
HETATM    4  O3  UNL     1      33.745  28.117 -42.133  1.00  0.00    -0.386 OA
HETATM    5  C4  UNL     1      33.423  27.602 -43.356  1.00  0.00     0.201 C 
HETATM    6  C5  UNL     1      34.542  27.058 -44.153  1.00  0.00     0.173 C 
ENDROOT
BRANCH   1   7
HETATM    7  O1  UNL     1      36.938  27.213 -43.995  1.00  0.00    -0.390 OA
ATOM      8  H1  UNL     1      37.315  26.526 -44.533  1.00  0.00     0.210 HD
ENDBRANCH   1   7
BRANCH   2   9
HETATM    9  O2  UNL     1      36.514  26.122 -41.215  1.00  0.00    -0.391 OA
ATOM     10  H2  UNL     1      36.553  26.375 -40.300  1.00  0.00     0.210 HD
ENDBRANCH   2   9
BRANCH   6  11
HETATM   11  O4  UNL     1      34.824  27.982 -45.187  1.00  0.00    -0.391 OA
ATOM     12  H4  UNL     1      34.049  28.467 -45.447  1.00  0.00     0.210 HD
ENDBRANCH   6  11
TORSDOF 3
ENDMDL
