MODEL 5
REMARK VINA RESULT: -4.695509856      2.453      3.831
REMARK  3 active torsions:
REMARK  status: ('A' for Active; 'I' for Inactive)
REMARK    1  A    between atoms: O1_1  and  C1_3 
REMARK    2  A    between atoms: C2_4  and  O2_5 
REMARK    3  A    between atoms: C5_10  and  O4_11 
ROOT
HETATM    1  C1  UNL     1      34.374  26.422 -43.665  1.00  0.00     0.179 C 
HETATM    2  C2  UNL     1      34.063  25.343 -42.674  1.00  0.00     0.173 C 
HETATM    3  C3  UNL     1      33.846  25.927 -41.303  1.00  0.00     0.201 C 
HETATM    4  O3  UNL     1      35.082  26.520 -40.955  1.00  0.00    -0.386 OA
HETATM    5  C4  UNL     1      35.166  27.699 -41.638  1.00  0.00     0.201 C 
HETATM    6  C5  UNL     1      35.045  27.616 -43.108  1.00  0.00     0.173 C 
ENDROOT
BRANCH   1   7
HETATM    7  O1  UNL     1      35.129  25.807 -44.693  1.00  0.00    -0.390 OA
ATOM      8  H1  UNL     1      34.517  25.624 -45.397  1.00  0.00     0.210 HD
ENDBRANCH   1   7
BRANCH   2   9
HETATM    9  O2  UNL     1      32.906  24.647 -43.017  1.00  0.00    -0.391 OA
ATOM     10  H2  UNL     1      32.391  24.423 -42.251  1.00  0.00     0.210 HD
ENDBRANCH   2   9
BRANCH   6  11
HETATM   11  O4  UNL     1      36.337  27.795 -43.658  1.00  0.00    -0.391 OA
ATOM     12  H4  UNL     1      36.966  28.068 -43.000  1.00  0.00     0.210 HD
ENDBRANCH   6  11
TORSDOF 3
ENDMDL
