MODEL 6
REMARK VINA RESULT: -4.671062338      1.945      3.369
REMARK  3 active torsions:
REMARK  status: ('A' for Active; 'I' for Inactive)
REMARK    1  A    between atoms: O1_1  and  C1_3 
REMARK    2  A    between atoms: C2_4  and  O2_5 
REMARK    3  A    between atoms: C5_10  and  O4_11 
ROOT
HETATM    1  C1  UNL     1      35.871  27.074 -43.829  1.00  0.00     0.179 C 
HETATM    2  C2  UNL     1      35.619  26.025 -42.789  1.00  0.00     0.173 C 
HETATM    3  C3  UNL     1      34.408  26.373 -41.965  1.00  0.00     0.201 C 
HETATM    4  O3  UNL     1      34.739  27.585 -41.316  1.00  0.00    -0.386 OA
HETATM    5  C4  UNL     1      34.616  28.582 -42.242  1.00  0.00     0.201 C 
HETATM    6  C5  UNL     1      35.418  28.436 -43.473  1.00  0.00     0.173 C 
ENDROOT
BRANCH   1   7
HETATM    7  O1  UNL     1      37.257  27.021 -44.114  1.00  0.00    -0.390 OA
ATOM      8  H1  UNL     1      37.342  27.191 -45.045  1.00  0.00     0.210 HD
ENDBRANCH   1   7
BRANCH   2   9
HETATM    9  O2  UNL     1      35.387  24.778 -43.363  1.00  0.00    -0.391 OA
ATOM     10  H2  UNL     1      34.751  24.276 -42.867  1.00  0.00     0.210 HD
ENDBRANCH   2   9
BRANCH   6  11
HETATM   11  O4  UNL     1      36.501  29.344 -43.393  1.00  0.00    -0.391 OA
ATOM     12  H4  UNL     1      36.216  30.208 -43.119  1.00  0.00     0.210 HD
ENDBRANCH   6  11
TORSDOF 3
ENDMDL
