MODEL 12
REMARK VINA RESULT: -4.519375293      2.249      3.442
REMARK  3 active torsions:
REMARK  status: ('A' for Active; 'I' for Inactive)
REMARK    1  A    between atoms: O1_1  and  C1_3 
REMARK    2  A    between atoms: C2_4  and  O2_5 
REMARK    3  A    between atoms: C5_10  and  O4_11 
ROOT
HETATM    1  C1  UNL     1      34.135  25.896 -43.652  1.00  0.00     0.179 C 
HETATM    2  C2  UNL     1      33.420  26.224 -42.377  1.00  0.00     0.173 C 
HETATM    3  C3  UNL     1      32.809  27.598 -42.449  1.00  0.00     0.201 C 
HETATM    4  O3  UNL     1      33.903  28.481 -42.596  1.00  0.00    -0.386 OA
HETATM    5  C4  UNL     1      34.312  28.400 -43.897  1.00  0.00     0.201 C 
HETATM    6  C5  UNL     1      34.681  27.056 -44.386  1.00  0.00     0.173 C 
ENDROOT
BRANCH   1   7
HETATM    7  O1  UNL     1      35.134  24.951 -43.311  1.00  0.00    -0.390 OA
ATOM      8  H1  UNL     1      35.686  24.863 -44.079  1.00  0.00     0.210 HD
ENDBRANCH   1   7
BRANCH   2   9
HETATM    9  O2  UNL     1      32.389  25.324 -42.119  1.00  0.00    -0.391 OA
ATOM     10  H2  UNL     1      32.342  25.098 -41.197  1.00  0.00     0.210 HD
ENDBRANCH   2   9
BRANCH   6  11
HETATM   11  O4  UNL     1      36.093  27.003 -44.475  1.00  0.00    -0.391 OA
ATOM     12  H4  UNL     1      36.479  27.871 -44.473  1.00  0.00     0.210 HD
ENDBRANCH   6  11
TORSDOF 3
ENDMDL
