MODEL 2
REMARK VINA RESULT: -5.395339917      9.199     10.307
REMARK  1 active torsions:
REMARK  status: ('A' for Active; 'I' for Inactive)
REMARK    1  A    between atoms: C1_2  and  P1_4 
ROOT
HETATM    1  P1  UNL     1      19.820   2.730   9.302  1.00  0.00     0.364 P 
HETATM    2  O3  UNL     1      21.415   2.937   9.572  1.00  0.00    -0.632 OA
HETATM    3  O4  UNL     1      19.374   3.850  10.256  1.00  0.00    -0.632 OA
HETATM    4  O5  UNL     1      19.994   1.609   8.260  1.00  0.00    -0.632 OA
ENDROOT
BRANCH   1   5
HETATM    5  C1  UNL     1      18.974   1.564  10.327  1.00  0.00     0.307 C 
HETATM    6  O1  UNL     1      18.766   1.876  11.497  1.00  0.00    -0.637 OA
HETATM    7  O2  UNL     1      18.601   0.393   9.769  1.00  0.00    -0.637 OA
ENDBRANCH   1   5
TORSDOF 1
ENDMDL
