MODEL 1
REMARK VINA RESULT: -5.420966680      0.000      0.000
REMARK  1 active torsions:
REMARK  status: ('A' for Active; 'I' for Inactive)
REMARK    1  A    between atoms: C1_2  and  P1_4 
ROOT
HETATM    1  P1  UNL     1      16.218  -2.328   1.419  1.00  0.00     0.364 P 
HETATM    2  O3  UNL     1      15.190  -1.179   0.890  1.00  0.00    -0.632 OA
HETATM    3  O4  UNL     1      16.440  -1.686   2.798  1.00  0.00    -0.632 OA
HETATM    4  O5  UNL     1      16.132  -3.196   0.150  1.00  0.00    -0.632 OA
ENDROOT
BRANCH   1   5
HETATM    5  C1  UNL     1      17.936  -2.095   1.070  1.00  0.00     0.307 C 
HETATM    6  O1  UNL     1      18.236  -1.547   0.013  1.00  0.00    -0.637 OA
HETATM    7  O2  UNL     1      18.827  -2.533   1.985  1.00  0.00    -0.637 OA
ENDBRANCH   1   5
TORSDOF 1
ENDMDL
