MODEL 11
REMARK VINA RESULT: -5.232461604      7.095      7.990
REMARK  1 active torsions:
REMARK  status: ('A' for Active; 'I' for Inactive)
REMARK    1  A    between atoms: C1_2  and  P1_4 
ROOT
HETATM    1  P1  UNL     1      22.338   2.583   3.978  1.00  0.00     0.364 P 
HETATM    2  O3  UNL     1      21.358   2.565   2.675  1.00  0.00    -0.632 OA
HETATM    3  O4  UNL     1      22.413   1.053   4.112  1.00  0.00    -0.632 OA
HETATM    4  O5  UNL     1      22.475   4.115   4.036  1.00  0.00    -0.632 OA
ENDROOT
BRANCH   1   5
HETATM    5  C1  UNL     1      21.565   2.651   5.567  1.00  0.00     0.307 C 
HETATM    6  O1  UNL     1      20.398   3.029   5.620  1.00  0.00    -0.637 OA
HETATM    7  O2  UNL     1      22.300   2.284   6.638  1.00  0.00    -0.637 OA
ENDBRANCH   1   5
TORSDOF 1
ENDMDL
