MODEL 4
REMARK VINA RESULT: -5.353033608      1.343      2.569
REMARK  1 active torsions:
REMARK  status: ('A' for Active; 'I' for Inactive)
REMARK    1  A    between atoms: C1_2  and  P1_4 
ROOT
HETATM    1  P1  UNL     1      16.423  -1.789   1.297  1.00  0.00     0.364 P 
HETATM    2  O3  UNL     1      16.427  -3.183   0.451  1.00  0.00    -0.632 OA
HETATM    3  O4  UNL     1      14.956  -1.448   0.989  1.00  0.00    -0.632 OA
HETATM    4  O5  UNL     1      17.874  -1.917   1.795  1.00  0.00    -0.632 OA
ENDROOT
BRANCH   1   5
HETATM    5  C1  UNL     1      16.910  -0.323   0.437  1.00  0.00     0.307 C 
HETATM    6  O1  UNL     1      18.046  -0.282  -0.026  1.00  0.00    -0.637 OA
HETATM    7  O2  UNL     1      16.005   0.675   0.336  1.00  0.00    -0.637 OA
ENDBRANCH   1   5
TORSDOF 1
ENDMDL
