MODEL 12
REMARK VINA RESULT: -5.210734846      7.109      8.064
REMARK  1 active torsions:
REMARK  status: ('A' for Active; 'I' for Inactive)
REMARK    1  A    between atoms: C1_2  and  P1_4 
ROOT
HETATM    1  P1  UNL     1      22.336   2.646   3.908  1.00  0.00     0.364 P 
HETATM    2  O3  UNL     1      21.295   2.657   2.654  1.00  0.00    -0.632 OA
HETATM    3  O4  UNL     1      22.421   1.114   4.001  1.00  0.00    -0.632 OA
HETATM    4  O5  UNL     1      22.472   4.178   3.998  1.00  0.00    -0.632 OA
ENDROOT
BRANCH   1   5
HETATM    5  C1  UNL     1      21.641   2.674   5.534  1.00  0.00     0.307 C 
HETATM    6  O1  UNL     1      22.364   2.348   6.471  1.00  0.00    -0.637 OA
HETATM    7  O2  UNL     1      20.351   3.051   5.658  1.00  0.00    -0.637 OA
ENDBRANCH   1   5
TORSDOF 1
ENDMDL
