MODEL 7
REMARK VINA RESULT: -5.303098993      7.424      8.266
REMARK  1 active torsions:
REMARK  status: ('A' for Active; 'I' for Inactive)
REMARK    1  A    between atoms: C1_2  and  P1_4 
ROOT
HETATM    1  P1  UNL     1      22.428   3.361   3.116  1.00  0.00     0.364 P 
HETATM    2  O3  UNL     1      21.066   3.786   2.326  1.00  0.00    -0.632 OA
HETATM    3  O4  UNL     1      22.310   1.863   2.795  1.00  0.00    -0.632 OA
HETATM    4  O5  UNL     1      22.809   4.795   3.529  1.00  0.00    -0.632 OA
ENDROOT
BRANCH   1   5
HETATM    5  C1  UNL     1      22.275   2.971   4.834  1.00  0.00     0.307 C 
HETATM    6  O1  UNL     1      21.157   3.038   5.338  1.00  0.00    -0.637 OA
HETATM    7  O2  UNL     1      23.396   2.621   5.500  1.00  0.00    -0.637 OA
ENDBRANCH   1   5
TORSDOF 1
ENDMDL
