MODEL 14
REMARK VINA RESULT: -4.674571479      7.483      8.807
REMARK  3 active torsions:
REMARK  status: ('A' for Active; 'I' for Inactive)
REMARK    1  A    between atoms: C1_2  and  C2_4 
REMARK    2  A    between atoms: C2_4  and  O3_5 
REMARK    3  A    between atoms: O3_5  and  P1_6 
ROOT
HETATM    1  O3  UNL     1       8.023   2.171  20.125  1.00  0.00    -0.272 OA
ENDROOT
BRANCH   1   2
HETATM    2  C2  UNL     1       6.694   1.938  19.964  1.00  0.00     0.295 C 
BRANCH   2   3
HETATM    3  C1  UNL     1       6.536   1.058  18.775  1.00  0.00     0.198 C 
HETATM    4  O1  UNL     1       5.552   0.267  18.642  1.00  0.00    -0.646 OA
HETATM    5  O2  UNL     1       7.457   1.051  17.739  1.00  0.00    -0.646 OA
ENDBRANCH   2   3
ENDBRANCH   1   2
BRANCH   1   6
HETATM    6  P1  UNL     1       8.237   3.816  20.294  1.00  0.00     0.422 P 
HETATM    7  O4  UNL     1       8.768   3.614  21.705  1.00  0.00    -0.617 OA
HETATM    8  O5  UNL     1       9.571   4.559  19.756  1.00  0.00    -0.617 OA
HETATM    9  O6  UNL     1       6.967   4.746  20.846  1.00  0.00    -0.617 OA
ENDBRANCH   1   6
TORSDOF 3
ENDMDL
