MODEL 8
REMARK VINA RESULT: -4.834041711      7.229      8.923
REMARK  3 active torsions:
REMARK  status: ('A' for Active; 'I' for Inactive)
REMARK    1  A    between atoms: C1_2  and  C2_4 
REMARK    2  A    between atoms: C2_4  and  O3_5 
REMARK    3  A    between atoms: O3_5  and  P1_6 
ROOT
HETATM    1  O3  UNL     1       7.535   3.029  19.076  1.00  0.00    -0.272 OA
ENDROOT
BRANCH   1   2
HETATM    2  C2  UNL     1       7.559   1.673  18.997  1.00  0.00     0.295 C 
BRANCH   2   3
HETATM    3  C1  UNL     1       6.197   1.182  19.340  1.00  0.00     0.198 C 
HETATM    4  O1  UNL     1       5.551   1.617  20.343  1.00  0.00    -0.646 OA
HETATM    5  O2  UNL     1       5.552   0.216  18.584  1.00  0.00    -0.646 OA
ENDBRANCH   2   3
ENDBRANCH   1   2
BRANCH   1   6
HETATM    6  P1  UNL     1       8.623   3.493  20.250  1.00  0.00     0.422 P 
HETATM    7  O4  UNL     1       7.592   4.436  20.851  1.00  0.00    -0.617 OA
HETATM    8  O5  UNL     1       8.825   2.635  21.609  1.00  0.00    -0.617 OA
HETATM    9  O6  UNL     1       9.671   4.752  19.933  1.00  0.00    -0.617 OA
ENDBRANCH   1   6
TORSDOF 3
ENDMDL
