MODEL 13
REMARK VINA RESULT: -4.682933011      2.316      4.623
REMARK  3 active torsions:
REMARK  status: ('A' for Active; 'I' for Inactive)
REMARK    1  A    between atoms: C1_2  and  C2_4 
REMARK    2  A    between atoms: C2_4  and  O3_5 
REMARK    3  A    between atoms: O3_5  and  P1_6 
ROOT
HETATM    1  O3  UNL     1      14.330   4.240  18.872  1.00  0.00    -0.272 OA
ENDROOT
BRANCH   1   2
HETATM    2  C2  UNL     1      15.050   4.431  17.736  1.00  0.00     0.295 C 
BRANCH   2   3
HETATM    3  C1  UNL     1      16.051   5.495  18.015  1.00  0.00     0.198 C 
HETATM    4  O1  UNL     1      16.686   5.558  19.113  1.00  0.00    -0.646 OA
HETATM    5  O2  UNL     1      16.350   6.484  17.091  1.00  0.00    -0.646 OA
ENDBRANCH   2   3
ENDBRANCH   1   2
BRANCH   1   6
HETATM    6  P1  UNL     1      13.140   3.119  18.541  1.00  0.00     0.422 P 
HETATM    7  O4  UNL     1      13.126   2.686  19.999  1.00  0.00    -0.617 OA
HETATM    8  O5  UNL     1      11.573   3.527  18.509  1.00  0.00    -0.617 OA
HETATM    9  O6  UNL     1      13.583   1.592  18.034  1.00  0.00    -0.617 OA
ENDBRANCH   1   6
TORSDOF 3
ENDMDL
