MODEL 19
REMARK VINA RESULT: -4.599184592      2.054      4.367
REMARK  3 active torsions:
REMARK  status: ('A' for Active; 'I' for Inactive)
REMARK    1  A    between atoms: C1_2  and  C2_4 
REMARK    2  A    between atoms: C2_4  and  O3_5 
REMARK    3  A    between atoms: O3_5  and  P1_6 
ROOT
HETATM    1  O3  UNL     1      15.007   3.226  16.983  1.00  0.00    -0.272 OA
ENDROOT
BRANCH   1   2
HETATM    2  C2  UNL     1      15.211   4.335  17.742  1.00  0.00     0.295 C 
BRANCH   2   3
HETATM    3  C1  UNL     1      15.493   5.464  16.816  1.00  0.00     0.198 C 
HETATM    4  O1  UNL     1      14.865   5.619  15.723  1.00  0.00    -0.646 OA
HETATM    5  O2  UNL     1      16.462   6.416  17.091  1.00  0.00    -0.646 OA
ENDBRANCH   2   3
ENDBRANCH   1   2
BRANCH   1   6
HETATM    6  P1  UNL     1      13.570   2.532  17.466  1.00  0.00     0.422 P 
HETATM    7  O4  UNL     1      13.164   2.332  16.014  1.00  0.00    -0.617 OA
HETATM    8  O5  UNL     1      13.470   0.962  17.849  1.00  0.00    -0.617 OA
HETATM    9  O6  UNL     1      12.253   3.515  17.757  1.00  0.00    -0.617 OA
ENDBRANCH   1   6
TORSDOF 3
ENDMDL
