MODEL 6
REMARK VINA RESULT: -4.853722985      1.738      4.148
REMARK  3 active torsions:
REMARK  status: ('A' for Active; 'I' for Inactive)
REMARK    1  A    between atoms: C1_2  and  C2_4 
REMARK    2  A    between atoms: C2_4  and  O3_5 
REMARK    3  A    between atoms: O3_5  and  P1_6 
ROOT
HETATM    1  O3  UNL     1      14.470   4.996  18.013  1.00  0.00    -0.272 OA
ENDROOT
BRANCH   1   2
HETATM    2  C2  UNL     1      15.670   5.100  17.384  1.00  0.00     0.295 C 
BRANCH   2   3
HETATM    3  C1  UNL     1      15.632   6.329  16.547  1.00  0.00     0.198 C 
HETATM    4  O1  UNL     1      16.485   7.261  16.671  1.00  0.00    -0.646 OA
HETATM    5  O2  UNL     1      14.658   6.529  15.581  1.00  0.00    -0.646 OA
ENDBRANCH   2   3
ENDBRANCH   1   2
BRANCH   1   6
HETATM    6  P1  UNL     1      14.074   3.379  18.095  1.00  0.00     0.422 P 
HETATM    7  O4  UNL     1      12.687   3.678  17.547  1.00  0.00    -0.617 OA
HETATM    8  O5  UNL     1      14.464   2.346  16.911  1.00  0.00    -0.617 OA
HETATM    9  O6  UNL     1      13.441   2.771  19.515  1.00  0.00    -0.617 OA
ENDBRANCH   1   6
TORSDOF 3
ENDMDL
