MODEL 11
REMARK VINA RESULT: -4.732752226      1.805      2.646
REMARK  3 active torsions:
REMARK  status: ('A' for Active; 'I' for Inactive)
REMARK    1  A    between atoms: C1_2  and  C2_4 
REMARK    2  A    between atoms: C2_4  and  O3_5 
REMARK    3  A    between atoms: O3_5  and  P1_6 
ROOT
HETATM    1  O3  UNL     1      14.524   6.263  14.792  1.00  0.00    -0.272 OA
ENDROOT
BRANCH   1   2
HETATM    2  C2  UNL     1      14.793   5.000  14.366  1.00  0.00     0.295 C 
BRANCH   2   3
HETATM    3  C1  UNL     1      13.746   4.107  14.929  1.00  0.00     0.198 C 
HETATM    4  O1  UNL     1      12.527   4.187  14.581  1.00  0.00    -0.646 OA
HETATM    5  O2  UNL     1      14.039   3.132  15.870  1.00  0.00    -0.646 OA
ENDBRANCH   2   3
ENDBRANCH   1   2
BRANCH   1   6
HETATM    6  P1  UNL     1      15.481   6.569  16.122  1.00  0.00     0.422 P 
HETATM    7  O4  UNL     1      14.698   7.841  16.408  1.00  0.00    -0.617 OA
HETATM    8  O5  UNL     1      15.173   5.898  17.563  1.00  0.00    -0.617 OA
HETATM    9  O6  UNL     1      16.901   7.422  15.921  1.00  0.00    -0.617 OA
ENDBRANCH   1   6
TORSDOF 3
ENDMDL
