MODEL 13
REMARK VINA RESULT: -4.745215455      6.436      8.593
REMARK  3 active torsions:
REMARK  status: ('A' for Active; 'I' for Inactive)
REMARK    1  A    between atoms: C1_2  and  C2_4 
REMARK    2  A    between atoms: C2_4  and  C3_5 
REMARK    3  A    between atoms: C3_5  and  P1_6 
ROOT
HETATM    1  C3  UNL     1       1.585  -3.898   9.663  1.00  0.00     0.156 C 
ENDROOT
BRANCH   1   2
HETATM    2  C2  UNL     1       0.679  -4.812   8.865  1.00  0.00     0.126 C 
BRANCH   2   3
HETATM    3  C1  UNL     1       1.437  -5.548   7.839  1.00  0.00     0.173 C 
HETATM    4  O1  UNL     1       0.807  -6.068   6.880  1.00  0.00    -0.648 OA
HETATM    5  O2  UNL     1       2.815  -5.667   7.934  1.00  0.00    -0.648 OA
ENDBRANCH   2   3
ENDBRANCH   1   2
BRANCH   1   6
HETATM    6  P1  UNL     1       0.797  -2.989  10.884  1.00  0.00     0.259 P 
HETATM    7  O3  UNL     1       0.229  -3.698  12.238  1.00  0.00    -0.640 OA
HETATM    8  O4  UNL     1      -0.599  -2.868  10.237  1.00  0.00    -0.640 OA
HETATM    9  O5  UNL     1       0.833  -1.268  10.795  1.00  0.00    -0.640 OA
ENDBRANCH   1   6
TORSDOF 3
ENDMDL
