MODEL 3
REMARK VINA RESULT: -5.043751823      0.668      1.881
REMARK  3 active torsions:
REMARK  status: ('A' for Active; 'I' for Inactive)
REMARK    1  A    between atoms: C1_2  and  C2_4 
REMARK    2  A    between atoms: C2_4  and  C3_5 
REMARK    3  A    between atoms: C3_5  and  P1_6 
ROOT
HETATM    1  C3  UNL     1      -1.817  -2.889  15.524  1.00  0.00     0.156 C 
ENDROOT
BRANCH   1   2
HETATM    2  C2  UNL     1      -2.110  -1.427  15.787  1.00  0.00     0.126 C 
BRANCH   2   3
HETATM    3  C1  UNL     1      -2.884  -1.254  17.028  1.00  0.00     0.173 C 
HETATM    4  O1  UNL     1      -2.460  -0.444  17.895  1.00  0.00    -0.648 OA
HETATM    5  O2  UNL     1      -4.052  -1.972  17.234  1.00  0.00    -0.648 OA
ENDBRANCH   2   3
ENDBRANCH   1   2
BRANCH   1   6
HETATM    6  P1  UNL     1      -2.712  -3.584  14.238  1.00  0.00     0.259 P 
HETATM    7  O3  UNL     1      -4.039  -2.854  13.634  1.00  0.00    -0.640 OA
HETATM    8  O4  UNL     1      -3.521  -4.627  15.038  1.00  0.00    -0.640 OA
HETATM    9  O5  UNL     1      -2.053  -4.941  13.404  1.00  0.00    -0.640 OA
ENDBRANCH   1   6
TORSDOF 3
ENDMDL
