MODEL 19
REMARK VINA RESULT: -4.658595859      6.339      8.414
REMARK  3 active torsions:
REMARK  status: ('A' for Active; 'I' for Inactive)
REMARK    1  A    between atoms: C1_2  and  C2_4 
REMARK    2  A    between atoms: C2_4  and  C3_5 
REMARK    3  A    between atoms: C3_5  and  P1_6 
ROOT
HETATM    1  C3  UNL     1       1.537  -3.718   9.700  1.00  0.00     0.156 C 
ENDROOT
BRANCH   1   2
HETATM    2  C2  UNL     1       1.393  -4.944   8.823  1.00  0.00     0.126 C 
BRANCH   2   3
HETATM    3  C1  UNL     1       2.620  -5.758   8.841  1.00  0.00     0.173 C 
HETATM    4  O1  UNL     1       3.568  -5.404   9.591  1.00  0.00    -0.648 OA
HETATM    5  O2  UNL     1       2.725  -6.887   8.043  1.00  0.00    -0.648 OA
ENDBRANCH   2   3
ENDBRANCH   1   2
BRANCH   1   6
HETATM    6  P1  UNL     1       0.172  -3.362  10.674  1.00  0.00     0.259 P 
HETATM    7  O3  UNL     1      -1.250  -2.916  10.013  1.00  0.00    -0.640 OA
HETATM    8  O4  UNL     1       0.544  -1.927  11.102  1.00  0.00    -0.640 OA
HETATM    9  O5  UNL     1       0.232  -3.730  12.357  1.00  0.00    -0.640 OA
ENDBRANCH   1   6
TORSDOF 3
ENDMDL
