MODEL 1
REMARK VINA RESULT: -5.175153485      0.000      0.000
REMARK  3 active torsions:
REMARK  status: ('A' for Active; 'I' for Inactive)
REMARK    1  A    between atoms: C1_2  and  C2_4 
REMARK    2  A    between atoms: C2_4  and  C3_5 
REMARK    3  A    between atoms: C3_5  and  P1_6 
ROOT
HETATM    1  C3  UNL     1      -2.269  -2.481  15.062  1.00  0.00     0.156 C 
ENDROOT
BRANCH   1   2
HETATM    2  C2  UNL     1      -1.856  -2.282  16.505  1.00  0.00     0.126 C 
BRANCH   2   3
HETATM    3  C1  UNL     1      -2.835  -1.455  17.230  1.00  0.00     0.173 C 
HETATM    4  O1  UNL     1      -4.043  -1.810  17.228  1.00  0.00    -0.648 OA
HETATM    5  O2  UNL     1      -2.430  -0.308  17.895  1.00  0.00    -0.648 OA
ENDBRANCH   2   3
ENDBRANCH   1   2
BRANCH   1   6
HETATM    6  P1  UNL     1      -2.713  -4.086  14.653  1.00  0.00     0.259 P 
HETATM    7  O3  UNL     1      -2.005  -4.872  13.412  1.00  0.00    -0.640 OA
HETATM    8  O4  UNL     1      -4.006  -3.789  13.865  1.00  0.00    -0.640 OA
HETATM    9  O5  UNL     1      -3.734  -4.966  15.726  1.00  0.00    -0.640 OA
ENDBRANCH   1   6
TORSDOF 3
ENDMDL
