MODEL 13
REMARK VINA RESULT: -4.798458536      1.496      3.618
REMARK  2 active torsions:
REMARK  status: ('A' for Active; 'I' for Inactive)
REMARK    1  A    between atoms: C1_2  and  C2_4 
REMARK    2  A    between atoms: C2_4  and  S1_5 
ROOT
HETATM    1  C2  UNL     1       3.282  -5.235   9.445  1.00  0.00     0.277 C 
ENDROOT
BRANCH   1   2
HETATM    2  C1  UNL     1       3.226  -6.663   9.221  1.00  0.00     0.189 C 
HETATM    3  O1  UNL     1       2.694  -7.411  10.067  1.00  0.00    -0.647 OA
HETATM    4  O2  UNL     1       3.754  -7.228   8.081  1.00  0.00    -0.647 OA
ENDBRANCH   1   2
BRANCH   1   5
HETATM    5  S1  UNL     1       1.775  -4.420   9.305  1.00  0.00     0.111 S 
HETATM    6  O3  UNL     1       1.966  -4.393   7.307  1.00  0.00    -0.595 OA
HETATM    7  O4  UNL     1       2.005  -2.803   9.412  1.00  0.00    -0.595 OA
HETATM    8  O5  UNL     1       0.540  -4.977   9.426  1.00  0.00    -0.595 OA
ENDBRANCH   1   5
TORSDOF 2
ENDMDL
