MODEL 8
REMARK VINA RESULT: -4.899701967      1.882      3.735
REMARK  2 active torsions:
REMARK  status: ('A' for Active; 'I' for Inactive)
REMARK    1  A    between atoms: C1_2  and  C2_4 
REMARK    2  A    between atoms: C2_4  and  S1_5 
ROOT
HETATM    1  C2  UNL     1       2.115  -6.815   9.091  1.00  0.00     0.277 C 
ENDROOT
BRANCH   1   2
HETATM    2  C1  UNL     1       3.532  -6.775   8.805  1.00  0.00     0.189 C 
HETATM    3  O1  UNL     1       4.334  -6.346   9.661  1.00  0.00    -0.647 OA
HETATM    4  O2  UNL     1       4.029  -7.204   7.594  1.00  0.00    -0.647 OA
ENDBRANCH   1   2
BRANCH   1   5
HETATM    5  S1  UNL     1       1.258  -5.373   8.715  1.00  0.00     0.111 S 
HETATM    6  O3  UNL     1       0.681  -6.163   6.963  1.00  0.00    -0.595 OA
HETATM    7  O4  UNL     1       2.258  -4.308   7.978  1.00  0.00    -0.595 OA
HETATM    8  O5  UNL     1       0.054  -4.993   9.221  1.00  0.00    -0.595 OA
ENDBRANCH   1   5
TORSDOF 2
ENDMDL
