MODEL 4
REMARK VINA RESULT: -4.967380922      1.910      3.809
REMARK  2 active torsions:
REMARK  status: ('A' for Active; 'I' for Inactive)
REMARK    1  A    between atoms: C1_2  and  C2_4 
REMARK    2  A    between atoms: C2_4  and  S1_5 
ROOT
HETATM    1  C2  UNL     1       2.149  -6.512   8.920  1.00  0.00     0.277 C 
ENDROOT
BRANCH   1   2
HETATM    2  C1  UNL     1       3.568  -6.736   8.745  1.00  0.00     0.189 C 
HETATM    3  O1  UNL     1       3.997  -7.250   7.691  1.00  0.00    -0.647 OA
HETATM    4  O2  UNL     1       4.471  -6.391   9.726  1.00  0.00    -0.647 OA
ENDBRANCH   1   2
BRANCH   1   5
HETATM    5  S1  UNL     1       1.469  -5.325   7.879  1.00  0.00     0.111 S 
HETATM    6  O3  UNL     1      -0.040  -5.044   9.173  1.00  0.00    -0.595 OA
HETATM    7  O4  UNL     1       0.484  -6.042   6.787  1.00  0.00    -0.595 OA
HETATM    8  O5  UNL     1       1.899  -4.044   7.723  1.00  0.00    -0.595 OA
ENDBRANCH   1   5
TORSDOF 2
ENDMDL
