MODEL 5
REMARK VINA RESULT: -4.939490274      1.874      3.686
REMARK  2 active torsions:
REMARK  status: ('A' for Active; 'I' for Inactive)
REMARK    1  A    between atoms: C1_2  and  C2_4 
REMARK    2  A    between atoms: C2_4  and  S1_5 
ROOT
HETATM    1  C2  UNL     1       2.115  -6.816   9.036  1.00  0.00     0.277 C 
ENDROOT
BRANCH   1   2
HETATM    2  C1  UNL     1       3.534  -6.757   8.762  1.00  0.00     0.189 C 
HETATM    3  O1  UNL     1       3.981  -7.171   7.673  1.00  0.00    -0.647 OA
HETATM    4  O2  UNL     1       4.419  -6.249   9.687  1.00  0.00    -0.647 OA
ENDBRANCH   1   2
BRANCH   1   5
HETATM    5  S1  UNL     1       1.250  -5.370   8.697  1.00  0.00     0.111 S 
HETATM    6  O3  UNL     1       0.651  -6.131   6.939  1.00  0.00    -0.595 OA
HETATM    7  O4  UNL     1       2.238  -4.290   7.965  1.00  0.00    -0.595 OA
HETATM    8  O5  UNL     1       0.052  -5.001   9.226  1.00  0.00    -0.595 OA
ENDBRANCH   1   5
TORSDOF 2
ENDMDL
