MODEL 10
REMARK VINA RESULT: -4.808876171      1.699      3.654
REMARK  2 active torsions:
REMARK  status: ('A' for Active; 'I' for Inactive)
REMARK    1  A    between atoms: C1_2  and  C2_4 
REMARK    2  A    between atoms: C2_4  and  S1_5 
ROOT
HETATM    1  C2  UNL     1       2.237  -6.575   9.147  1.00  0.00     0.277 C 
ENDROOT
BRANCH   1   2
HETATM    2  C1  UNL     1       3.634  -6.710   8.796  1.00  0.00     0.189 C 
HETATM    3  O1  UNL     1       3.960  -7.208   7.699  1.00  0.00    -0.647 OA
HETATM    4  O2  UNL     1       4.629  -6.298   9.655  1.00  0.00    -0.647 OA
ENDBRANCH   1   2
BRANCH   1   5
HETATM    5  S1  UNL     1       1.481  -5.141   8.575  1.00  0.00     0.111 S 
HETATM    6  O3  UNL     1       2.046  -4.170  10.239  1.00  0.00    -0.595 OA
HETATM    7  O4  UNL     1      -0.093  -5.125   9.023  1.00  0.00    -0.595 OA
HETATM    8  O5  UNL     1       1.964  -4.297   7.624  1.00  0.00    -0.595 OA
ENDBRANCH   1   5
TORSDOF 2
ENDMDL
