MODEL 2
REMARK VINA RESULT: -10.174543964      0.306      1.456
REMARK  16 active torsions:
REMARK  status: ('A' for Active; 'I' for Inactive)
REMARK    1  A    between atoms: C8_8  and  O1_9 
REMARK    2  A    between atoms: O1_9  and  C9_10 
REMARK    3  A    between atoms: C9_10  and  C10_11 
REMARK       I    between atoms: C10_11  and  N1_13 
REMARK    4  A    between atoms: N1_13  and  C11_15 
REMARK    5  A    between atoms: C11_15  and  C12_16 
REMARK    6  A    between atoms: C11_15  and  C19_23 
REMARK    7  A    between atoms: C12_16  and  C13_17 
REMARK    8  A    between atoms: C19_23  and  O3_24 
REMARK    9  A    between atoms: C19_23  and  C20_26 
REMARK   10  A    between atoms: C20_26  and  C21_27 
REMARK   11  A    between atoms: C21_27  and  C22_28 
REMARK   12  A    between atoms: C21_27  and  N2_35 
REMARK   13  A    between atoms: C22_28  and  C23_29 
REMARK       I    between atoms: N2_35  and  C29_37 
REMARK   14  A    between atoms: C29_37  and  C30_39 
REMARK   15  A    between atoms: C30_39  and  C31_40 
REMARK   16  A    between atoms: C30_39  and  N3_43 
ROOT
HETATM    1  C19 UNL     1     -19.459  -0.408  -0.216  1.00  0.00     0.143 C 
ENDROOT
BRANCH   1   2
HETATM    2  C11 UNL     1     -19.048   0.759  -1.120  1.00  0.00     0.117 C 
BRANCH   2   3
HETATM    3  N1  UNL     1     -19.229   0.535  -2.501  1.00  0.00    -0.352 N 
HETATM    4  C10 UNL     1     -18.148   0.382  -3.440  1.00  0.00     0.242 C 
HETATM    5  O2  UNL     1     -17.032   0.460  -2.903  1.00  0.00    -0.271 OA
ATOM      6  H1  UNL     1     -20.183   0.478  -2.856  1.00  0.00     0.163 HD
BRANCH   4   7
HETATM    7  C9  UNL     1     -18.457   0.161  -4.862  1.00  0.00     0.278 C 
BRANCH   7   8
HETATM    8  O1  UNL     1     -18.817   1.170  -5.665  1.00  0.00    -0.341 OA
BRANCH   8   9
HETATM    9  C8  UNL     1     -18.068   2.061  -6.352  1.00  0.00     0.081 A 
HETATM   10  C2  UNL     1     -17.796   3.316  -5.885  1.00  0.00    -0.028 A 
HETATM   11  C1  UNL     1     -18.273   3.734  -4.531  1.00  0.00     0.051 C 
HETATM   12  C3  UNL     1     -17.037   4.262  -6.569  1.00  0.00     0.009 A 
HETATM   13  C4  UNL     1     -16.533   3.864  -7.813  1.00  0.00     0.001 A 
HETATM   14  C5  UNL     1     -16.790   2.602  -8.308  1.00  0.00     0.009 A 
HETATM   15  C6  UNL     1     -17.539   1.710  -7.605  1.00  0.00    -0.028 A 
HETATM   16  C7  UNL     1     -17.825   0.359  -8.106  1.00  0.00     0.051 C 
ENDBRANCH   8   9
ENDBRANCH   7   8
ENDBRANCH   4   7
ENDBRANCH   2   3
BRANCH   2  17
HETATM   17  C12 UNL     1     -19.568   2.068  -0.601  1.00  0.00     0.066 C 
BRANCH  17  18
HETATM   18  C13 UNL     1     -18.598   3.178  -0.719  1.00  0.00    -0.056 A 
HETATM   19  C14 UNL     1     -17.254   2.998  -0.500  1.00  0.00     0.007 A 
HETATM   20  C15 UNL     1     -16.374   4.047  -0.626  1.00  0.00     0.001 A 
HETATM   21  C16 UNL     1     -16.879   5.291  -0.981  1.00  0.00     0.000 A 
HETATM   22  C17 UNL     1     -18.224   5.498  -1.206  1.00  0.00     0.001 A 
HETATM   23  C18 UNL     1     -19.087   4.414  -1.069  1.00  0.00     0.007 A 
ENDBRANCH  17  18
ENDBRANCH   2  17
ENDBRANCH   1   2
BRANCH   1  24
HETATM   24  O3  UNL     1     -20.840  -0.341  -0.070  1.00  0.00    -0.393 OA
ATOM     25  H3  UNL     1     -21.095  -1.071   0.483  1.00  0.00     0.210 HD
ENDBRANCH   1  24
BRANCH   1  26
HETATM   26  C20 UNL     1     -18.900  -1.701  -0.589  1.00  0.00     0.059 C 
BRANCH  26  27
HETATM   27  C21 UNL     1     -18.602  -2.707   0.477  1.00  0.00     0.091 C 
BRANCH  27  28
HETATM   28  C22 UNL     1     -19.110  -4.072   0.270  1.00  0.00     0.063 C 
BRANCH  28  29
HETATM   29  C23 UNL     1     -18.474  -5.170   1.014  1.00  0.00    -0.056 A 
HETATM   30  C24 UNL     1     -19.180  -5.977   1.902  1.00  0.00     0.007 A 
HETATM   31  C25 UNL     1     -18.571  -6.988   2.615  1.00  0.00     0.001 A 
HETATM   32  C26 UNL     1     -17.220  -7.213   2.449  1.00  0.00     0.000 A 
HETATM   33  C27 UNL     1     -16.479  -6.447   1.585  1.00  0.00     0.001 A 
HETATM   34  C28 UNL     1     -17.112  -5.457   0.896  1.00  0.00     0.007 A 
ENDBRANCH  28  29
ENDBRANCH  27  28
BRANCH  27  35
HETATM   35  N2  UNL     1     -18.989  -2.215   1.799  1.00  0.00    -0.354 N 
HETATM   36  C29 UNL     1     -18.055  -1.760   2.771  1.00  0.00     0.241 C 
HETATM   37  O4  UNL     1     -16.811  -1.805   2.443  1.00  0.00    -0.271 OA
ATOM     38  H2  UNL     1     -19.980  -2.197   2.037  1.00  0.00     0.162 HD
BRANCH  36  39
HETATM   39  C30 UNL     1     -18.435  -1.260   4.090  1.00  0.00     0.184 C 
BRANCH  39  40
HETATM   40  C31 UNL     1     -18.131   0.204   4.324  1.00  0.00     0.010 C 
HETATM   41  C32 UNL     1     -18.265   1.054   3.094  1.00  0.00     0.012 C 
HETATM   42  C33 UNL     1     -18.789   0.780   5.550  1.00  0.00     0.012 C 
ENDBRANCH  39  40
BRANCH  39  43
HETATM   43  N3  UNL     1     -17.937  -2.098   5.138  1.00  0.00    -0.320 N 
HETATM   44  C34 UNL     1     -16.740  -1.919   5.904  1.00  0.00     0.130 C 
HETATM   45  C35 UNL     1     -17.091  -1.864   7.371  1.00  0.00     0.040 C 
HETATM   46  C36 UNL     1     -17.933  -3.035   7.809  1.00  0.00     0.126 C 
HETATM   47  N4  UNL     1     -18.351  -3.890   6.723  1.00  0.00    -0.343 N 
HETATM   48  C37 UNL     1     -18.707  -3.276   5.491  1.00  0.00     0.319 C 
ATOM     49  H4  UNL     1     -18.389  -4.903   6.835  1.00  0.00     0.164 HD
HETATM   50  O5  UNL     1     -19.605  -3.682   4.737  1.00  0.00    -0.247 OA
ENDBRANCH  39  43
ENDBRANCH  36  39
ENDBRANCH  27  35
ENDBRANCH  26  27
ENDBRANCH   1  26
TORSDOF 16
ENDMDL
