MODEL 4
REMARK VINA RESULT: -10.138184081      1.719     11.031
REMARK  16 active torsions:
REMARK  status: ('A' for Active; 'I' for Inactive)
REMARK    1  A    between atoms: C8_8  and  O1_9 
REMARK    2  A    between atoms: O1_9  and  C9_10 
REMARK    3  A    between atoms: C9_10  and  C10_11 
REMARK       I    between atoms: C10_11  and  N1_13 
REMARK    4  A    between atoms: N1_13  and  C11_15 
REMARK    5  A    between atoms: C11_15  and  C12_16 
REMARK    6  A    between atoms: C11_15  and  C19_23 
REMARK    7  A    between atoms: C12_16  and  C13_17 
REMARK    8  A    between atoms: C19_23  and  O3_24 
REMARK    9  A    between atoms: C19_23  and  C20_26 
REMARK   10  A    between atoms: C20_26  and  C21_27 
REMARK   11  A    between atoms: C21_27  and  C22_28 
REMARK   12  A    between atoms: C21_27  and  N2_35 
REMARK   13  A    between atoms: C22_28  and  C23_29 
REMARK       I    between atoms: N2_35  and  C29_37 
REMARK   14  A    between atoms: C29_37  and  C30_39 
REMARK   15  A    between atoms: C30_39  and  C31_40 
REMARK   16  A    between atoms: C30_39  and  N3_43 
ROOT
HETATM    1  C19 UNL     1     -19.481   0.582  -0.534  1.00  0.00     0.143 C 
ENDROOT
BRANCH   1   2
HETATM    2  C11 UNL     1     -18.992  -0.596   0.316  1.00  0.00     0.117 C 
BRANCH   2   3
HETATM    3  N1  UNL     1     -19.075  -0.399   1.710  1.00  0.00    -0.352 N 
HETATM    4  C10 UNL     1     -17.935  -0.182   2.562  1.00  0.00     0.242 C 
HETATM    5  O2  UNL     1     -16.863  -0.179   1.937  1.00  0.00    -0.271 OA
ATOM      6  H1  UNL     1     -19.999  -0.410   2.141  1.00  0.00     0.163 HD
BRANCH   4   7
HETATM    7  C9  UNL     1     -18.143   0.003   4.008  1.00  0.00     0.278 C 
BRANCH   7   8
HETATM    8  O1  UNL     1     -18.792  -0.908   4.744  1.00  0.00    -0.341 OA
BRANCH   8   9
HETATM    9  C8  UNL     1     -18.325  -1.894   5.542  1.00  0.00     0.081 A 
HETATM   10  C2  UNL     1     -18.196  -3.187   5.122  1.00  0.00    -0.028 A 
HETATM   11  C1  UNL     1     -18.511  -3.554   3.707  1.00  0.00     0.051 C 
HETATM   12  C3  UNL     1     -17.726  -4.229   5.918  1.00  0.00     0.009 A 
HETATM   13  C4  UNL     1     -17.371  -3.890   7.229  1.00  0.00     0.001 A 
HETATM   14  C5  UNL     1     -17.488  -2.591   7.678  1.00  0.00     0.009 A 
HETATM   15  C6  UNL     1     -17.953  -1.604   6.865  1.00  0.00    -0.028 A 
HETATM   16  C7  UNL     1     -18.085  -0.213   7.316  1.00  0.00     0.051 C 
ENDBRANCH   8   9
ENDBRANCH   7   8
ENDBRANCH   4   7
ENDBRANCH   2   3
BRANCH   2  17
HETATM   17  C12 UNL     1     -19.532  -1.902  -0.189  1.00  0.00     0.066 C 
BRANCH  17  18
HETATM   18  C13 UNL     1     -18.574  -3.023  -0.070  1.00  0.00    -0.056 A 
HETATM   19  C14 UNL     1     -17.226  -2.854  -0.269  1.00  0.00     0.007 A 
HETATM   20  C15 UNL     1     -16.358  -3.913  -0.143  1.00  0.00     0.001 A 
HETATM   21  C16 UNL     1     -16.879  -5.156   0.190  1.00  0.00     0.000 A 
HETATM   22  C17 UNL     1     -18.229  -5.352   0.395  1.00  0.00     0.001 A 
HETATM   23  C18 UNL     1     -19.080  -4.259   0.259  1.00  0.00     0.007 A 
ENDBRANCH  17  18
ENDBRANCH   2  17
ENDBRANCH   1   2
BRANCH   1  24
HETATM   24  O3  UNL     1     -20.855   0.431  -0.683  1.00  0.00    -0.393 OA
ATOM     25  H3  UNL     1     -21.001  -0.435  -1.045  1.00  0.00     0.210 HD
ENDBRANCH   1  24
BRANCH   1  26
HETATM   26  C20 UNL     1     -19.006   1.890  -0.105  1.00  0.00     0.059 C 
BRANCH  26  27
HETATM   27  C21 UNL     1     -18.623   2.906  -1.132  1.00  0.00     0.091 C 
BRANCH  27  28
HETATM   28  C22 UNL     1     -19.044   4.295  -0.890  1.00  0.00     0.063 C 
BRANCH  28  29
HETATM   29  C23 UNL     1     -18.411   5.361  -1.681  1.00  0.00    -0.056 A 
HETATM   30  C24 UNL     1     -17.054   5.655  -1.585  1.00  0.00     0.007 A 
HETATM   31  C25 UNL     1     -16.472   6.674  -2.310  1.00  0.00     0.001 A 
HETATM   32  C26 UNL     1     -17.252   7.430  -3.159  1.00  0.00     0.000 A 
HETATM   33  C27 UNL     1     -18.595   7.181  -3.291  1.00  0.00     0.001 A 
HETATM   34  C28 UNL     1     -19.138   6.167  -2.561  1.00  0.00     0.007 A 
ENDBRANCH  28  29
ENDBRANCH  27  28
BRANCH  27  35
HETATM   35  N2  UNL     1     -19.017   2.482  -2.476  1.00  0.00    -0.354 N 
HETATM   36  C29 UNL     1     -18.103   1.970  -3.437  1.00  0.00     0.241 C 
HETATM   37  O4  UNL     1     -16.868   1.898  -3.079  1.00  0.00    -0.271 OA
ATOM     38  H2  UNL     1     -20.000   2.558  -2.737  1.00  0.00     0.162 HD
BRANCH  36  39
HETATM   39  C30 UNL     1     -18.491   1.537  -4.777  1.00  0.00     0.184 C 
BRANCH  39  40
HETATM   40  C31 UNL     1     -18.282   0.064  -5.052  1.00  0.00     0.010 C 
HETATM   41  C32 UNL     1     -18.620  -0.822  -3.888  1.00  0.00     0.012 C 
HETATM   42  C33 UNL     1     -18.846  -0.401  -6.369  1.00  0.00     0.012 C 
ENDBRANCH  39  40
BRANCH  39  43
HETATM   43  N3  UNL     1     -17.918   2.371  -5.790  1.00  0.00    -0.320 N 
HETATM   44  C34 UNL     1     -16.654   2.205  -6.445  1.00  0.00     0.130 C 
HETATM   45  C35 UNL     1     -16.874   2.123  -7.937  1.00  0.00     0.040 C 
HETATM   46  C36 UNL     1     -17.695   3.271  -8.464  1.00  0.00     0.126 C 
HETATM   47  N4  UNL     1     -18.223   4.133  -7.432  1.00  0.00    -0.343 N 
HETATM   48  C37 UNL     1     -18.675   3.529  -6.228  1.00  0.00     0.319 C 
ATOM     49  H4  UNL     1     -18.270   5.143  -7.563  1.00  0.00     0.164 HD
HETATM   50  O5  UNL     1     -19.643   3.927  -5.562  1.00  0.00    -0.247 OA
ENDBRANCH  39  43
ENDBRANCH  36  39
ENDBRANCH  27  35
ENDBRANCH  26  27
ENDBRANCH   1  26
TORSDOF 16
ENDMDL
