MODEL 1
REMARK VINA RESULT: -10.203597780      0.000      0.000
REMARK  16 active torsions:
REMARK  status: ('A' for Active; 'I' for Inactive)
REMARK    1  A    between atoms: C8_8  and  O1_9 
REMARK    2  A    between atoms: O1_9  and  C9_10 
REMARK    3  A    between atoms: C9_10  and  C10_11 
REMARK       I    between atoms: C10_11  and  N1_13 
REMARK    4  A    between atoms: N1_13  and  C11_15 
REMARK    5  A    between atoms: C11_15  and  C12_16 
REMARK    6  A    between atoms: C11_15  and  C19_23 
REMARK    7  A    between atoms: C12_16  and  C13_17 
REMARK    8  A    between atoms: C19_23  and  O3_24 
REMARK    9  A    between atoms: C19_23  and  C20_26 
REMARK   10  A    between atoms: C20_26  and  C21_27 
REMARK   11  A    between atoms: C21_27  and  C22_28 
REMARK   12  A    between atoms: C21_27  and  N2_35 
REMARK   13  A    between atoms: C22_28  and  C23_29 
REMARK       I    between atoms: N2_35  and  C29_37 
REMARK   14  A    between atoms: C29_37  and  C30_39 
REMARK   15  A    between atoms: C30_39  and  C31_40 
REMARK   16  A    between atoms: C30_39  and  N3_43 
ROOT
HETATM    1  C19 UNL     1     -19.518  -0.200  -0.317  1.00  0.00     0.143 C 
ENDROOT
BRANCH   1   2
HETATM    2  C11 UNL     1     -19.081   0.978  -1.195  1.00  0.00     0.117 C 
BRANCH   2   3
HETATM    3  N1  UNL     1     -19.282   0.795  -2.579  1.00  0.00    -0.352 N 
HETATM    4  C10 UNL     1     -18.215   0.687  -3.540  1.00  0.00     0.242 C 
HETATM    5  O2  UNL     1     -17.091   0.762  -3.019  1.00  0.00    -0.271 OA
ATOM      6  H1  UNL     1     -20.241   0.737  -2.921  1.00  0.00     0.163 HD
BRANCH   4   7
HETATM    7  C9  UNL     1     -18.545   0.507  -4.963  1.00  0.00     0.278 C 
BRANCH   7   8
HETATM    8  O1  UNL     1     -18.949   1.533  -5.723  1.00  0.00    -0.341 OA
BRANCH   8   9
HETATM    9  C8  UNL     1     -18.249   2.376  -6.513  1.00  0.00     0.081 A 
HETATM   10  C2  UNL     1     -17.596   1.964  -7.640  1.00  0.00    -0.028 A 
HETATM   11  C1  UNL     1     -17.692   0.540  -8.087  1.00  0.00     0.051 C 
HETATM   12  C3  UNL     1     -16.860   2.802  -8.473  1.00  0.00     0.009 A 
HETATM   13  C4  UNL     1     -16.809   4.151  -8.101  1.00  0.00     0.001 A 
HETATM   14  C5  UNL     1     -17.461   4.595  -6.969  1.00  0.00     0.009 A 
HETATM   15  C6  UNL     1     -18.169   3.739  -6.183  1.00  0.00    -0.028 A 
HETATM   16  C7  UNL     1     -18.876   4.185  -4.976  1.00  0.00     0.051 C 
ENDBRANCH   8   9
ENDBRANCH   7   8
ENDBRANCH   4   7
ENDBRANCH   2   3
BRANCH   2  17
HETATM   17  C12 UNL     1     -19.557   2.287  -0.637  1.00  0.00     0.066 C 
BRANCH  17  18
HETATM   18  C13 UNL     1     -18.606   3.400  -0.848  1.00  0.00    -0.056 A 
HETATM   19  C14 UNL     1     -18.999   4.603  -1.383  1.00  0.00     0.007 A 
HETATM   20  C15 UNL     1     -18.093   5.622  -1.559  1.00  0.00     0.001 A 
HETATM   21  C16 UNL     1     -16.775   5.406  -1.183  1.00  0.00     0.000 A 
HETATM   22  C17 UNL     1     -16.355   4.208  -0.643  1.00  0.00     0.001 A 
HETATM   23  C18 UNL     1     -17.298   3.196  -0.479  1.00  0.00     0.007 A 
ENDBRANCH  17  18
ENDBRANCH   2  17
ENDBRANCH   1   2
BRANCH   1  24
HETATM   24  O3  UNL     1     -20.902  -0.130  -0.203  1.00  0.00    -0.393 OA
ATOM     25  H3  UNL     1     -21.265  -0.587  -0.953  1.00  0.00     0.210 HD
ENDBRANCH   1  24
BRANCH   1  26
HETATM   26  C20 UNL     1     -18.956  -1.490  -0.694  1.00  0.00     0.059 C 
BRANCH  26  27
HETATM   27  C21 UNL     1     -18.645  -2.495   0.368  1.00  0.00     0.091 C 
BRANCH  27  28
HETATM   28  C22 UNL     1     -19.147  -3.863   0.165  1.00  0.00     0.063 C 
BRANCH  28  29
HETATM   29  C23 UNL     1     -18.481  -4.962   0.879  1.00  0.00    -0.056 A 
HETATM   30  C24 UNL     1     -19.148  -5.769   1.795  1.00  0.00     0.007 A 
HETATM   31  C25 UNL     1     -18.510  -6.781   2.481  1.00  0.00     0.001 A 
HETATM   32  C26 UNL     1     -17.168  -7.006   2.259  1.00  0.00     0.000 A 
HETATM   33  C27 UNL     1     -16.464  -6.240   1.365  1.00  0.00     0.001 A 
HETATM   34  C28 UNL     1     -17.125  -5.249   0.704  1.00  0.00     0.007 A 
ENDBRANCH  28  29
ENDBRANCH  27  28
BRANCH  27  35
HETATM   35  N2  UNL     1     -19.025  -2.006   1.694  1.00  0.00    -0.354 N 
HETATM   36  C29 UNL     1     -18.085  -1.677   2.709  1.00  0.00     0.241 C 
HETATM   37  O4  UNL     1     -16.841  -1.838   2.418  1.00  0.00    -0.271 OA
ATOM     38  H2  UNL     1     -20.018  -1.895   1.901  1.00  0.00     0.162 HD
BRANCH  36  39
HETATM   39  C30 UNL     1     -18.458  -1.180   4.030  1.00  0.00     0.184 C 
BRANCH  39  40
HETATM   40  C31 UNL     1     -18.145   0.281   4.269  1.00  0.00     0.010 C 
HETATM   41  C32 UNL     1     -18.250   1.132   3.037  1.00  0.00     0.012 C 
HETATM   42  C33 UNL     1     -18.821   0.863   5.483  1.00  0.00     0.012 C 
ENDBRANCH  39  40
BRANCH  39  43
HETATM   43  N3  UNL     1     -17.961  -2.025   5.074  1.00  0.00    -0.320 N 
HETATM   44  C34 UNL     1     -16.766  -1.849   5.845  1.00  0.00     0.130 C 
HETATM   45  C35 UNL     1     -17.123  -1.807   7.312  1.00  0.00     0.040 C 
HETATM   46  C36 UNL     1     -17.963  -2.982   7.737  1.00  0.00     0.126 C 
HETATM   47  N4  UNL     1     -18.375  -3.831   6.643  1.00  0.00    -0.343 N 
HETATM   48  C37 UNL     1     -18.729  -3.208   5.416  1.00  0.00     0.319 C 
ATOM     49  H4  UNL     1     -18.411  -4.844   6.748  1.00  0.00     0.164 HD
HETATM   50  O5  UNL     1     -19.623  -3.610   4.656  1.00  0.00    -0.247 OA
ENDBRANCH  39  43
ENDBRANCH  36  39
ENDBRANCH  27  35
ENDBRANCH  26  27
ENDBRANCH   1  26
TORSDOF 16
ENDMDL
