MODEL 3
REMARK VINA RESULT: -10.161153348      1.700     11.093
REMARK  16 active torsions:
REMARK  status: ('A' for Active; 'I' for Inactive)
REMARK    1  A    between atoms: C8_8  and  O1_9 
REMARK    2  A    between atoms: O1_9  and  C9_10 
REMARK    3  A    between atoms: C9_10  and  C10_11 
REMARK       I    between atoms: C10_11  and  N1_13 
REMARK    4  A    between atoms: N1_13  and  C11_15 
REMARK    5  A    between atoms: C11_15  and  C12_16 
REMARK    6  A    between atoms: C11_15  and  C19_23 
REMARK    7  A    between atoms: C12_16  and  C13_17 
REMARK    8  A    between atoms: C19_23  and  O3_24 
REMARK    9  A    between atoms: C19_23  and  C20_26 
REMARK   10  A    between atoms: C20_26  and  C21_27 
REMARK   11  A    between atoms: C21_27  and  C22_28 
REMARK   12  A    between atoms: C21_27  and  N2_35 
REMARK   13  A    between atoms: C22_28  and  C23_29 
REMARK       I    between atoms: N2_35  and  C29_37 
REMARK   14  A    between atoms: C29_37  and  C30_39 
REMARK   15  A    between atoms: C30_39  and  C31_40 
REMARK   16  A    between atoms: C30_39  and  N3_43 
ROOT
HETATM    1  C19 UNL     1     -19.493   0.546  -0.520  1.00  0.00     0.143 C 
ENDROOT
BRANCH   1   2
HETATM    2  C11 UNL     1     -19.022  -0.637   0.333  1.00  0.00     0.117 C 
BRANCH   2   3
HETATM    3  N1  UNL     1     -19.164  -0.460   1.725  1.00  0.00    -0.352 N 
HETATM    4  C10 UNL     1     -18.063  -0.242   2.626  1.00  0.00     0.242 C 
HETATM    5  O2  UNL     1     -16.966  -0.217   2.045  1.00  0.00    -0.271 OA
ATOM      6  H1  UNL     1     -20.105  -0.489   2.118  1.00  0.00     0.163 HD
BRANCH   4   7
HETATM    7  C9  UNL     1     -18.331  -0.080   4.065  1.00  0.00     0.278 C 
BRANCH   7   8
HETATM    8  O1  UNL     1     -18.774  -1.099   4.813  1.00  0.00    -0.341 OA
BRANCH   8   9
HETATM    9  C8  UNL     1     -18.104  -1.991   5.575  1.00  0.00     0.081 A 
HETATM   10  C2  UNL     1     -17.616  -1.687   6.815  1.00  0.00    -0.028 A 
HETATM   11  C1  UNL     1     -17.873  -0.341   7.415  1.00  0.00     0.051 C 
HETATM   12  C3  UNL     1     -16.915  -2.577   7.624  1.00  0.00     0.009 A 
HETATM   13  C4  UNL     1     -16.718  -3.860   7.100  1.00  0.00     0.001 A 
HETATM   14  C5  UNL     1     -17.201  -4.195   5.852  1.00  0.00     0.009 A 
HETATM   15  C6  UNL     1     -17.881  -3.291   5.095  1.00  0.00    -0.028 A 
HETATM   16  C7  UNL     1     -18.409  -3.622   3.766  1.00  0.00     0.051 C 
ENDBRANCH   8   9
ENDBRANCH   7   8
ENDBRANCH   4   7
ENDBRANCH   2   3
BRANCH   2  17
HETATM   17  C12 UNL     1     -19.523  -1.943  -0.210  1.00  0.00     0.066 C 
BRANCH  17  18
HETATM   18  C13 UNL     1     -18.555  -3.052  -0.068  1.00  0.00    -0.056 A 
HETATM   19  C14 UNL     1     -17.207  -2.872  -0.253  1.00  0.00     0.007 A 
HETATM   20  C15 UNL     1     -16.330  -3.920  -0.105  1.00  0.00     0.001 A 
HETATM   21  C16 UNL     1     -16.842  -5.165   0.237  1.00  0.00     0.000 A 
HETATM   22  C17 UNL     1     -18.192  -5.373   0.428  1.00  0.00     0.001 A 
HETATM   23  C18 UNL     1     -19.052  -4.289   0.269  1.00  0.00     0.007 A 
ENDBRANCH  17  18
ENDBRANCH   2  17
ENDBRANCH   1   2
BRANCH   1  24
HETATM   24  O3  UNL     1     -20.869   0.415  -0.671  1.00  0.00    -0.393 OA
ATOM     25  H3  UNL     1     -21.196   1.257  -0.966  1.00  0.00     0.210 HD
ENDBRANCH   1  24
BRANCH   1  26
HETATM   26  C20 UNL     1     -19.001   1.848  -0.091  1.00  0.00     0.059 C 
BRANCH  26  27
HETATM   27  C21 UNL     1     -18.623   2.866  -1.120  1.00  0.00     0.091 C 
BRANCH  27  28
HETATM   28  C22 UNL     1     -19.048   4.253  -0.878  1.00  0.00     0.063 C 
BRANCH  28  29
HETATM   29  C23 UNL     1     -18.410   5.322  -1.661  1.00  0.00    -0.056 A 
HETATM   30  C24 UNL     1     -17.051   5.606  -1.565  1.00  0.00     0.007 A 
HETATM   31  C25 UNL     1     -16.464   6.628  -2.282  1.00  0.00     0.001 A 
HETATM   32  C26 UNL     1     -17.241   7.396  -3.123  1.00  0.00     0.000 A 
HETATM   33  C27 UNL     1     -18.585   7.157  -3.255  1.00  0.00     0.001 A 
HETATM   34  C28 UNL     1     -19.133   6.140  -2.533  1.00  0.00     0.007 A 
ENDBRANCH  28  29
ENDBRANCH  27  28
BRANCH  27  35
HETATM   35  N2  UNL     1     -19.017   2.439  -2.463  1.00  0.00    -0.354 N 
HETATM   36  C29 UNL     1     -18.098   1.961  -3.437  1.00  0.00     0.241 C 
HETATM   37  O4  UNL     1     -16.858   1.922  -3.091  1.00  0.00    -0.271 OA
ATOM     38  H2  UNL     1     -20.005   2.488  -2.714  1.00  0.00     0.162 HD
BRANCH  36  39
HETATM   39  C30 UNL     1     -18.487   1.527  -4.776  1.00  0.00     0.184 C 
BRANCH  39  40
HETATM   40  C31 UNL     1     -18.281   0.052  -5.048  1.00  0.00     0.010 C 
HETATM   41  C32 UNL     1     -18.624  -0.831  -3.883  1.00  0.00     0.012 C 
HETATM   42  C33 UNL     1     -18.843  -0.413  -6.365  1.00  0.00     0.012 C 
ENDBRANCH  39  40
BRANCH  39  43
HETATM   43  N3  UNL     1     -17.911   2.357  -5.791  1.00  0.00    -0.320 N 
HETATM   44  C34 UNL     1     -16.629   2.212  -6.414  1.00  0.00     0.130 C 
HETATM   45  C35 UNL     1     -16.813   2.099  -7.908  1.00  0.00     0.040 C 
HETATM   46  C36 UNL     1     -17.650   3.216  -8.474  1.00  0.00     0.126 C 
HETATM   47  N4  UNL     1     -18.222   4.082  -7.470  1.00  0.00    -0.343 N 
HETATM   48  C37 UNL     1     -18.687   3.488  -6.265  1.00  0.00     0.319 C 
ATOM     49  H4  UNL     1     -18.291   5.089  -7.620  1.00  0.00     0.164 HD
HETATM   50  O5  UNL     1     -19.679   3.873  -5.629  1.00  0.00    -0.247 OA
ENDBRANCH  39  43
ENDBRANCH  36  39
ENDBRANCH  27  35
ENDBRANCH  26  27
ENDBRANCH   1  26
TORSDOF 16
ENDMDL
