MODEL 12
REMARK VINA RESULT: -9.720755913      2.003     10.966
REMARK  16 active torsions:
REMARK  status: ('A' for Active; 'I' for Inactive)
REMARK    1  A    between atoms: C8_8  and  O1_9 
REMARK    2  A    between atoms: O1_9  and  C9_10 
REMARK    3  A    between atoms: C9_10  and  C10_11 
REMARK       I    between atoms: C10_11  and  N1_13 
REMARK    4  A    between atoms: N1_13  and  C11_15 
REMARK    5  A    between atoms: C11_15  and  C12_16 
REMARK    6  A    between atoms: C11_15  and  C19_23 
REMARK    7  A    between atoms: C12_16  and  C13_17 
REMARK    8  A    between atoms: C19_23  and  O3_24 
REMARK    9  A    between atoms: C19_23  and  C20_26 
REMARK   10  A    between atoms: C20_26  and  C21_27 
REMARK   11  A    between atoms: C21_27  and  C22_28 
REMARK   12  A    between atoms: C21_27  and  N2_35 
REMARK   13  A    between atoms: C22_28  and  C23_29 
REMARK       I    between atoms: N2_35  and  C29_37 
REMARK   14  A    between atoms: C29_37  and  C30_39 
REMARK   15  A    between atoms: C30_39  and  C31_40 
REMARK   16  A    between atoms: C30_39  and  N3_43 
ROOT
HETATM    1  C19 UNL     1     -19.601   1.019  -1.154  1.00  0.00     0.143 C 
ENDROOT
BRANCH   1   2
HETATM    2  C11 UNL     1     -18.518   0.011  -0.755  1.00  0.00     0.117 C 
BRANCH   2   3
HETATM    3  N1  UNL     1     -18.350  -0.163   0.634  1.00  0.00    -0.352 N 
HETATM    4  C10 UNL     1     -17.134   0.141   1.343  1.00  0.00     0.242 C 
HETATM    5  O2  UNL     1     -16.244   0.584   0.600  1.00  0.00    -0.271 OA
ATOM      6  H1  UNL     1     -19.138  -0.527   1.170  1.00  0.00     0.163 HD
BRANCH   4   7
HETATM    7  C9  UNL     1     -17.072  -0.091   2.796  1.00  0.00     0.278 C 
BRANCH   7   8
HETATM    8  O1  UNL     1     -18.089  -0.657   3.459  1.00  0.00    -0.341 OA
BRANCH   8   9
HETATM    9  C8  UNL     1     -18.182  -1.079   4.739  1.00  0.00     0.081 A 
HETATM   10  C2  UNL     1     -18.034  -2.388   5.099  1.00  0.00    -0.028 A 
HETATM   11  C1  UNL     1     -17.686  -3.417   4.071  1.00  0.00     0.051 C 
HETATM   12  C3  UNL     1     -18.132  -2.860   6.406  1.00  0.00     0.009 A 
HETATM   13  C4  UNL     1     -18.398  -1.899   7.389  1.00  0.00     0.001 A 
HETATM   14  C5  UNL     1     -18.550  -0.570   7.053  1.00  0.00     0.009 A 
HETATM   15  C6  UNL     1     -18.447  -0.154   5.761  1.00  0.00    -0.028 A 
HETATM   16  C7  UNL     1     -18.601   1.255   5.377  1.00  0.00     0.051 C 
ENDBRANCH   8   9
ENDBRANCH   7   8
ENDBRANCH   4   7
ENDBRANCH   2   3
BRANCH   2  17
HETATM   17  C12 UNL     1     -18.615  -1.251  -1.561  1.00  0.00     0.066 C 
BRANCH  17  18
HETATM   18  C13 UNL     1     -18.373  -2.477  -0.770  1.00  0.00    -0.056 A 
HETATM   19  C14 UNL     1     -19.397  -3.186  -0.193  1.00  0.00     0.007 A 
HETATM   20  C15 UNL     1     -19.142  -4.328   0.530  1.00  0.00     0.001 A 
HETATM   21  C16 UNL     1     -17.824  -4.746   0.659  1.00  0.00     0.000 A 
HETATM   22  C17 UNL     1     -16.777  -4.051   0.088  1.00  0.00     0.001 A 
HETATM   23  C18 UNL     1     -17.071  -2.899  -0.636  1.00  0.00     0.007 A 
ENDBRANCH  17  18
ENDBRANCH   2  17
ENDBRANCH   1   2
BRANCH   1  24
HETATM   24  O3  UNL     1     -20.819   0.491  -0.741  1.00  0.00    -0.393 OA
ATOM     25  H3  UNL     1     -20.762   0.369   0.200  1.00  0.00     0.210 HD
ENDBRANCH   1  24
BRANCH   1  26
HETATM   26  C20 UNL     1     -19.324   2.400  -0.782  1.00  0.00     0.059 C 
BRANCH  26  27
HETATM   27  C21 UNL     1     -18.650   3.304  -1.763  1.00  0.00     0.091 C 
BRANCH  27  28
HETATM   28  C22 UNL     1     -18.874   4.750  -1.607  1.00  0.00     0.063 C 
BRANCH  28  29
HETATM   29  C23 UNL     1     -18.047   5.672  -2.400  1.00  0.00    -0.056 A 
HETATM   30  C24 UNL     1     -16.657   5.619  -2.394  1.00  0.00     0.007 A 
HETATM   31  C25 UNL     1     -15.887   6.504  -3.119  1.00  0.00     0.001 A 
HETATM   32  C26 UNL     1     -16.507   7.474  -3.878  1.00  0.00     0.000 A 
HETATM   33  C27 UNL     1     -17.875   7.568  -3.920  1.00  0.00     0.001 A 
HETATM   34  C28 UNL     1     -18.605   6.679  -3.192  1.00  0.00     0.007 A 
ENDBRANCH  28  29
ENDBRANCH  27  28
BRANCH  27  35
HETATM   35  N2  UNL     1     -18.919   2.894  -3.141  1.00  0.00    -0.354 N 
HETATM   36  C29 UNL     1     -17.951   2.278  -3.981  1.00  0.00     0.241 C 
HETATM   37  O4  UNL     1     -16.780   2.095  -3.475  1.00  0.00    -0.271 OA
ATOM     38  H2  UNL     1     -19.852   3.058  -3.520  1.00  0.00     0.162 HD
BRANCH  36  39
HETATM   39  C30 UNL     1     -18.216   1.858  -5.354  1.00  0.00     0.184 C 
BRANCH  39  40
HETATM   40  C31 UNL     1     -17.490   0.602  -5.784  1.00  0.00     0.010 C 
HETATM   41  C32 UNL     1     -15.994   0.733  -5.768  1.00  0.00     0.012 C 
HETATM   42  C33 UNL     1     -18.009  -0.657  -5.142  1.00  0.00     0.012 C 
ENDBRANCH  39  40
BRANCH  39  43
HETATM   43  N3  UNL     1     -18.043   2.936  -6.281  1.00  0.00    -0.320 N 
HETATM   44  C34 UNL     1     -17.475   4.226  -6.024  1.00  0.00     0.130 C 
HETATM   45  C35 UNL     1     -16.315   4.455  -6.962  1.00  0.00     0.040 C 
HETATM   46  C36 UNL     1     -16.683   4.220  -8.404  1.00  0.00     0.126 C 
HETATM   47  N4  UNL     1     -18.014   3.692  -8.588  1.00  0.00    -0.343 N 
HETATM   48  C37 UNL     1     -18.486   2.735  -7.648  1.00  0.00     0.319 C 
ATOM     49  H4  UNL     1     -18.598   3.996  -9.367  1.00  0.00     0.164 HD
HETATM   50  O5  UNL     1     -19.225   1.780  -7.929  1.00  0.00    -0.247 OA
ENDBRANCH  39  43
ENDBRANCH  36  39
ENDBRANCH  27  35
ENDBRANCH  26  27
ENDBRANCH   1  26
TORSDOF 16
ENDMDL
