MODEL 7
REMARK VINA RESULT: -9.799742226      1.433      2.030
REMARK  16 active torsions:
REMARK  status: ('A' for Active; 'I' for Inactive)
REMARK    1  A    between atoms: C8_8  and  O1_9 
REMARK    2  A    between atoms: O1_9  and  C9_10 
REMARK    3  A    between atoms: C9_10  and  C10_11 
REMARK       I    between atoms: C10_11  and  N1_13 
REMARK    4  A    between atoms: N1_13  and  C11_15 
REMARK    5  A    between atoms: C11_15  and  C12_16 
REMARK    6  A    between atoms: C11_15  and  C19_23 
REMARK    7  A    between atoms: C12_16  and  C13_17 
REMARK    8  A    between atoms: C19_23  and  O3_24 
REMARK    9  A    between atoms: C19_23  and  C20_26 
REMARK   10  A    between atoms: C20_26  and  C21_27 
REMARK   11  A    between atoms: C21_27  and  C22_28 
REMARK   12  A    between atoms: C21_27  and  N2_35 
REMARK   13  A    between atoms: C22_28  and  C23_29 
REMARK       I    between atoms: N2_35  and  C29_37 
REMARK   14  A    between atoms: C29_37  and  C30_39 
REMARK   15  A    between atoms: C30_39  and  C31_40 
REMARK   16  A    between atoms: C30_39  and  N3_43 
ROOT
HETATM    1  C19 UNL     1     -19.556  -0.293   0.076  1.00  0.00     0.143 C 
ENDROOT
BRANCH   1   2
HETATM    2  C11 UNL     1     -18.600   0.871  -0.206  1.00  0.00     0.117 C 
BRANCH   2   3
HETATM    3  N1  UNL     1     -18.031   0.875  -1.497  1.00  0.00    -0.352 N 
HETATM    4  C10 UNL     1     -16.632   0.657  -1.760  1.00  0.00     0.242 C 
HETATM    5  O2  UNL     1     -15.975   0.456  -0.727  1.00  0.00    -0.271 OA
ATOM      6  H1  UNL     1     -18.647   1.042  -2.292  1.00  0.00     0.163 HD
BRANCH   4   7
HETATM    7  C9  UNL     1     -16.148   0.692  -3.151  1.00  0.00     0.278 C 
BRANCH   7   8
HETATM    8  O1  UNL     1     -16.535  -0.222  -4.049  1.00  0.00    -0.341 OA
BRANCH   8   9
HETATM    9  C8  UNL     1     -17.177  -0.083  -5.230  1.00  0.00     0.081 A 
HETATM   10  C2  UNL     1     -16.609   0.522  -6.315  1.00  0.00    -0.028 A 
HETATM   11  C1  UNL     1     -15.195   1.004  -6.253  1.00  0.00     0.051 C 
HETATM   12  C3  UNL     1     -17.244   0.690  -7.543  1.00  0.00     0.009 A 
HETATM   13  C4  UNL     1     -18.549   0.191  -7.635  1.00  0.00     0.001 A 
HETATM   14  C5  UNL     1     -19.145  -0.427  -6.556  1.00  0.00     0.009 A 
HETATM   15  C6  UNL     1     -18.487  -0.568  -5.373  1.00  0.00    -0.028 A 
HETATM   16  C7  UNL     1     -19.097  -1.225  -4.210  1.00  0.00     0.051 C 
ENDBRANCH   8   9
ENDBRANCH   7   8
ENDBRANCH   4   7
ENDBRANCH   2   3
BRANCH   2  17
HETATM   17  C12 UNL     1     -19.173   2.180   0.254  1.00  0.00     0.066 C 
BRANCH  17  18
HETATM   18  C13 UNL     1     -18.479   3.359  -0.307  1.00  0.00    -0.056 A 
HETATM   19  C14 UNL     1     -17.171   3.647  -0.004  1.00  0.00     0.007 A 
HETATM   20  C15 UNL     1     -16.549   4.746  -0.548  1.00  0.00     0.001 A 
HETATM   21  C16 UNL     1     -17.276   5.556  -1.411  1.00  0.00     0.000 A 
HETATM   22  C17 UNL     1     -18.591   5.288  -1.731  1.00  0.00     0.001 A 
HETATM   23  C18 UNL     1     -19.191   4.168  -1.162  1.00  0.00     0.007 A 
ENDBRANCH  17  18
ENDBRANCH   2  17
ENDBRANCH   1   2
BRANCH   1  24
HETATM   24  O3  UNL     1     -20.825   0.122  -0.311  1.00  0.00    -0.393 OA
ATOM     25  H3  UNL     1     -20.757   1.042  -0.539  1.00  0.00     0.210 HD
ENDBRANCH   1  24
BRANCH   1  26
HETATM   26  C20 UNL     1     -19.109  -1.589  -0.418  1.00  0.00     0.059 C 
BRANCH  26  27
HETATM   27  C21 UNL     1     -18.696  -2.644   0.558  1.00  0.00     0.091 C 
BRANCH  27  28
HETATM   28  C22 UNL     1     -19.126  -4.022   0.277  1.00  0.00     0.063 C 
BRANCH  28  29
HETATM   29  C23 UNL     1     -18.450  -5.119   0.985  1.00  0.00    -0.056 A 
HETATM   30  C24 UNL     1     -19.127  -5.984   1.840  1.00  0.00     0.007 A 
HETATM   31  C25 UNL     1     -18.481  -6.994   2.522  1.00  0.00     0.001 A 
HETATM   32  C26 UNL     1     -17.122  -7.160   2.356  1.00  0.00     0.000 A 
HETATM   33  C27 UNL     1     -16.408  -6.335   1.523  1.00  0.00     0.001 A 
HETATM   34  C28 UNL     1     -17.077  -5.348   0.865  1.00  0.00     0.007 A 
ENDBRANCH  28  29
ENDBRANCH  27  28
BRANCH  27  35
HETATM   35  N2  UNL     1     -19.047  -2.271   1.928  1.00  0.00    -0.354 N 
HETATM   36  C29 UNL     1     -18.098  -1.818   2.886  1.00  0.00     0.241 C 
HETATM   37  O4  UNL     1     -16.872  -1.753   2.499  1.00  0.00    -0.271 OA
ATOM     38  H2  UNL     1     -20.024  -2.339   2.212  1.00  0.00     0.162 HD
BRANCH  36  39
HETATM   39  C30 UNL     1     -18.443  -1.437   4.253  1.00  0.00     0.184 C 
BRANCH  39  40
HETATM   40  C31 UNL     1     -18.134   0.002   4.606  1.00  0.00     0.010 C 
HETATM   41  C32 UNL     1     -18.305   0.956   3.460  1.00  0.00     0.012 C 
HETATM   42  C33 UNL     1     -18.758   0.465   5.897  1.00  0.00     0.012 C 
ENDBRANCH  39  40
BRANCH  39  43
HETATM   43  N3  UNL     1     -17.917  -2.362   5.211  1.00  0.00    -0.320 N 
HETATM   44  C34 UNL     1     -16.660  -2.290   5.894  1.00  0.00     0.130 C 
HETATM   45  C35 UNL     1     -16.902  -2.309   7.385  1.00  0.00     0.040 C 
HETATM   46  C36 UNL     1     -17.772  -3.462   7.814  1.00  0.00     0.126 C 
HETATM   47  N4  UNL     1     -18.311  -4.227   6.714  1.00  0.00    -0.343 N 
HETATM   48  C37 UNL     1     -18.721  -3.521   5.550  1.00  0.00     0.319 C 
ATOM     49  H4  UNL     1     -18.395  -5.242   6.769  1.00  0.00     0.164 HD
HETATM   50  O5  UNL     1     -19.691  -3.835   4.843  1.00  0.00    -0.247 OA
ENDBRANCH  39  43
ENDBRANCH  36  39
ENDBRANCH  27  35
ENDBRANCH  26  27
ENDBRANCH   1  26
TORSDOF 16
ENDMDL
