MODEL 6
REMARK VINA RESULT: -10.623828540      1.729     10.647
REMARK  16 active torsions:
REMARK  status: ('A' for Active; 'I' for Inactive)
REMARK    1  A    between atoms: C8_8  and  O1_9 
REMARK    2  A    between atoms: O1_9  and  C9_10 
REMARK    3  A    between atoms: C9_10  and  C10_11 
REMARK       I    between atoms: C10_11  and  N1_13 
REMARK    4  A    between atoms: N1_13  and  C11_15 
REMARK    5  A    between atoms: C11_15  and  C12_16 
REMARK    6  A    between atoms: C11_15  and  C19_23 
REMARK    7  A    between atoms: C12_16  and  C13_17 
REMARK    8  A    between atoms: C19_23  and  O3_24 
REMARK    9  A    between atoms: C19_23  and  C20_26 
REMARK   10  A    between atoms: C20_26  and  C21_27 
REMARK   11  A    between atoms: C21_27  and  C22_28 
REMARK   12  A    between atoms: C21_27  and  N2_35 
REMARK   13  A    between atoms: C22_28  and  C23_29 
REMARK       I    between atoms: N2_35  and  C29_37 
REMARK   14  A    between atoms: C29_37  and  C30_39 
REMARK   15  A    between atoms: C30_39  and  C31_40 
REMARK   16  A    between atoms: C30_39  and  N3_43 
ROOT
HETATM    1  C19 UNL     1     -10.430  15.498  -0.646  1.00  0.00     0.143 C 
ENDROOT
BRANCH   1   2
HETATM    2  C11 UNL     1     -10.503  14.338   0.354  1.00  0.00     0.117 C 
BRANCH   2   3
HETATM    3  N1  UNL     1     -11.040  14.672   1.615  1.00  0.00    -0.352 N 
HETATM    4  C10 UNL     1     -10.384  14.398   2.867  1.00  0.00     0.242 C 
HETATM    5  O2  UNL     1      -9.285  13.841   2.721  1.00  0.00    -0.271 OA
ATOM      6  H1  UNL     1     -11.948  15.136   1.641  1.00  0.00     0.163 HD
BRANCH   4   7
HETATM    7  C9  UNL     1     -11.046  14.785   4.124  1.00  0.00     0.278 C 
BRANCH   7   8
HETATM    8  O1  UNL     1     -10.603  15.813   4.860  1.00  0.00    -0.341 OA
BRANCH   8   9
HETATM    9  C8  UNL     1      -9.679  15.861   5.844  1.00  0.00     0.081 A 
HETATM   10  C2  UNL     1      -9.925  15.417   7.113  1.00  0.00    -0.028 A 
HETATM   11  C1  UNL     1     -11.237  14.782   7.446  1.00  0.00     0.051 C 
HETATM   12  C3  UNL     1      -9.000  15.458   8.153  1.00  0.00     0.009 A 
HETATM   13  C4  UNL     1      -7.746  15.996   7.841  1.00  0.00     0.001 A 
HETATM   14  C5  UNL     1      -7.470  16.450   6.568  1.00  0.00     0.009 A 
HETATM   15  C6  UNL     1      -8.405  16.391   5.581  1.00  0.00    -0.028 A 
HETATM   16  C7  UNL     1      -8.137  16.863   4.217  1.00  0.00     0.051 C 
ENDBRANCH   8   9
ENDBRANCH   7   8
ENDBRANCH   4   7
ENDBRANCH   2   3
BRANCH   2  17
HETATM   17  C12 UNL     1     -11.060  13.097  -0.281  1.00  0.00     0.066 C 
BRANCH  17  18
HETATM   18  C13 UNL     1     -12.223  12.535   0.440  1.00  0.00    -0.056 A 
HETATM   19  C14 UNL     1     -13.484  13.063   0.314  1.00  0.00     0.007 A 
HETATM   20  C15 UNL     1     -14.547  12.513   0.990  1.00  0.00     0.001 A 
HETATM   21  C16 UNL     1     -14.314  11.412   1.802  1.00  0.00     0.000 A 
HETATM   22  C17 UNL     1     -13.056  10.863   1.946  1.00  0.00     0.001 A 
HETATM   23  C18 UNL     1     -12.002  11.444   1.248  1.00  0.00     0.007 A 
ENDBRANCH  17  18
ENDBRANCH   2  17
ENDBRANCH   1   2
BRANCH   1  24
HETATM   24  O3  UNL     1     -11.728  15.739  -1.082  1.00  0.00    -0.393 OA
ATOM     25  H3  UNL     1     -12.233  14.957  -0.894  1.00  0.00     0.210 HD
ENDBRANCH   1  24
BRANCH   1  26
HETATM   26  C20 UNL     1      -9.664  16.651  -0.195  1.00  0.00     0.059 C 
BRANCH  26  27
HETATM   27  C21 UNL     1      -8.328  16.930  -0.807  1.00  0.00     0.091 C 
BRANCH  27  28
HETATM   28  C22 UNL     1      -7.477  17.923  -0.134  1.00  0.00     0.063 C 
BRANCH  28  29
HETATM   29  C23 UNL     1      -6.019  17.734  -0.181  1.00  0.00    -0.056 A 
HETATM   30  C24 UNL     1      -5.416  16.512   0.100  1.00  0.00     0.007 A 
HETATM   31  C25 UNL     1      -4.047  16.349   0.080  1.00  0.00     0.001 A 
HETATM   32  C26 UNL     1      -3.242  17.426  -0.226  1.00  0.00     0.000 A 
HETATM   33  C27 UNL     1      -3.786  18.653  -0.511  1.00  0.00     0.001 A 
HETATM   34  C28 UNL     1      -5.142  18.779  -0.483  1.00  0.00     0.007 A 
ENDBRANCH  28  29
ENDBRANCH  27  28
BRANCH  27  35
HETATM   35  N2  UNL     1      -8.449  17.245  -2.231  1.00  0.00    -0.354 N 
HETATM   36  C29 UNL     1      -7.944  16.409  -3.265  1.00  0.00     0.241 C 
HETATM   37  O4  UNL     1      -7.346  15.330  -2.896  1.00  0.00    -0.271 OA
ATOM     38  H2  UNL     1      -8.920  18.110  -2.496  1.00  0.00     0.162 HD
BRANCH  36  39
HETATM   39  C30 UNL     1      -8.068  16.714  -4.688  1.00  0.00     0.184 C 
BRANCH  39  40
HETATM   40  C31 UNL     1      -9.045  15.836  -5.440  1.00  0.00     0.010 C 
HETATM   41  C32 UNL     1     -10.264  15.468  -4.645  1.00  0.00     0.012 C 
HETATM   42  C33 UNL     1      -9.338  16.305  -6.842  1.00  0.00     0.012 C 
ENDBRANCH  39  40
BRANCH  39  43
HETATM   43  N3  UNL     1      -6.790  16.785  -5.329  1.00  0.00    -0.320 N 
HETATM   44  C34 UNL     1      -5.966  15.694  -5.758  1.00  0.00     0.130 C 
HETATM   45  C35 UNL     1      -5.683  15.834  -7.234  1.00  0.00     0.040 C 
HETATM   46  C36 UNL     1      -5.141  17.193  -7.592  1.00  0.00     0.126 C 
HETATM   47  N4  UNL     1      -5.133  18.127  -6.490  1.00  0.00    -0.343 N 
HETATM   48  C37 UNL     1      -6.230  18.099  -5.587  1.00  0.00     0.319 C 
ATOM     49  H4  UNL     1      -4.365  18.786  -6.364  1.00  0.00     0.164 HD
HETATM   50  O5  UNL     1      -6.711  19.100  -5.034  1.00  0.00    -0.247 OA
ENDBRANCH  39  43
ENDBRANCH  36  39
ENDBRANCH  27  35
ENDBRANCH  26  27
ENDBRANCH   1  26
TORSDOF 16
ENDMDL
