MODEL 5
REMARK VINA RESULT: -10.634110420      0.968      2.160
REMARK  16 active torsions:
REMARK  status: ('A' for Active; 'I' for Inactive)
REMARK    1  A    between atoms: C8_8  and  O1_9 
REMARK    2  A    between atoms: O1_9  and  C9_10 
REMARK    3  A    between atoms: C9_10  and  C10_11 
REMARK       I    between atoms: C10_11  and  N1_13 
REMARK    4  A    between atoms: N1_13  and  C11_15 
REMARK    5  A    between atoms: C11_15  and  C12_16 
REMARK    6  A    between atoms: C11_15  and  C19_23 
REMARK    7  A    between atoms: C12_16  and  C13_17 
REMARK    8  A    between atoms: C19_23  and  O3_24 
REMARK    9  A    between atoms: C19_23  and  C20_26 
REMARK   10  A    between atoms: C20_26  and  C21_27 
REMARK   11  A    between atoms: C21_27  and  C22_28 
REMARK   12  A    between atoms: C21_27  and  N2_35 
REMARK   13  A    between atoms: C22_28  and  C23_29 
REMARK       I    between atoms: N2_35  and  C29_37 
REMARK   14  A    between atoms: C29_37  and  C30_39 
REMARK   15  A    between atoms: C30_39  and  C31_40 
REMARK   16  A    between atoms: C30_39  and  N3_43 
ROOT
HETATM    1  C19 UNL     1      -9.676  16.886   0.012  1.00  0.00     0.143 C 
ENDROOT
BRANCH   1   2
HETATM    2  C11 UNL     1      -8.407  17.120  -0.816  1.00  0.00     0.117 C 
BRANCH   2   3
HETATM    3  N1  UNL     1      -8.620  17.272  -2.202  1.00  0.00    -0.352 N 
HETATM    4  C10 UNL     1      -8.186  16.322  -3.192  1.00  0.00     0.242 C 
HETATM    5  O2  UNL     1      -7.606  15.343  -2.695  1.00  0.00    -0.271 OA
ATOM      6  H1  UNL     1      -9.112  18.106  -2.522  1.00  0.00     0.163 HD
BRANCH   4   7
HETATM    7  C9  UNL     1      -8.456  16.590  -4.614  1.00  0.00     0.278 C 
BRANCH   7   8
HETATM    8  O1  UNL     1      -7.735  17.481  -5.307  1.00  0.00    -0.341 OA
BRANCH   8   9
HETATM    9  C8  UNL     1      -6.616  17.325  -6.049  1.00  0.00     0.081 A 
HETATM   10  C2  UNL     1      -6.611  16.681  -7.254  1.00  0.00    -0.028 A 
HETATM   11  C1  UNL     1      -7.889  16.172  -7.841  1.00  0.00     0.051 C 
HETATM   12  C3  UNL     1      -5.477  16.494  -8.041  1.00  0.00     0.009 A 
HETATM   13  C4  UNL     1      -4.282  17.017  -7.532  1.00  0.00     0.001 A 
HETATM   14  C5  UNL     1      -4.259  17.674  -6.320  1.00  0.00     0.009 A 
HETATM   15  C6  UNL     1      -5.393  17.832  -5.583  1.00  0.00    -0.028 A 
HETATM   16  C7  UNL     1      -5.397  18.531  -4.291  1.00  0.00     0.051 C 
ENDBRANCH   8   9
ENDBRANCH   7   8
ENDBRANCH   4   7
ENDBRANCH   2   3
BRANCH   2  17
HETATM   17  C12 UNL     1      -7.515  18.147  -0.179  1.00  0.00     0.066 C 
BRANCH  17  18
HETATM   18  C13 UNL     1      -6.080  17.793  -0.227  1.00  0.00    -0.056 A 
HETATM   19  C14 UNL     1      -5.635  16.516   0.009  1.00  0.00     0.007 A 
HETATM   20  C15 UNL     1      -4.295  16.215  -0.051  1.00  0.00     0.001 A 
HETATM   21  C16 UNL     1      -3.404  17.235  -0.358  1.00  0.00     0.000 A 
HETATM   22  C17 UNL     1      -3.825  18.526  -0.600  1.00  0.00     0.001 A 
HETATM   23  C18 UNL     1      -5.189  18.796  -0.530  1.00  0.00     0.007 A 
ENDBRANCH  17  18
ENDBRANCH   2  17
ENDBRANCH   1   2
BRANCH   1  24
HETATM   24  O3  UNL     1     -10.380  18.084   0.022  1.00  0.00    -0.393 OA
ATOM     25  H3  UNL     1     -11.304  17.862   0.035  1.00  0.00     0.210 HD
ENDBRANCH   1  24
BRANCH   1  26
HETATM   26  C20 UNL     1     -10.425  15.686  -0.337  1.00  0.00     0.059 C 
BRANCH  26  27
HETATM   27  C21 UNL     1     -11.280  15.027   0.697  1.00  0.00     0.091 C 
BRANCH  27  28
HETATM   28  C22 UNL     1     -12.725  14.962   0.429  1.00  0.00     0.063 C 
BRANCH  28  29
HETATM   29  C23 UNL     1     -13.454  13.751   0.838  1.00  0.00    -0.056 A 
HETATM   30  C24 UNL     1     -14.263  13.715   1.970  1.00  0.00     0.007 A 
HETATM   31  C25 UNL     1     -14.922  12.569   2.362  1.00  0.00     0.001 A 
HETATM   32  C26 UNL     1     -14.780  11.418   1.616  1.00  0.00     0.000 A 
HETATM   33  C27 UNL     1     -13.995  11.401   0.490  1.00  0.00     0.001 A 
HETATM   34  C28 UNL     1     -13.358  12.550   0.131  1.00  0.00     0.007 A 
ENDBRANCH  28  29
ENDBRANCH  27  28
BRANCH  27  35
HETATM   35  N2  UNL     1     -11.034  15.584   2.027  1.00  0.00    -0.354 N 
HETATM   36  C29 UNL     1     -10.727  14.790   3.166  1.00  0.00     0.241 C 
HETATM   37  O4  UNL     1     -10.681  13.516   2.987  1.00  0.00    -0.271 OA
ATOM     38  H2  UNL     1     -11.085  16.596   2.144  1.00  0.00     0.162 HD
BRANCH  36  39
HETATM   39  C30 UNL     1     -10.473  15.341   4.495  1.00  0.00     0.184 C 
BRANCH  39  40
HETATM   40  C31 UNL     1      -9.019  15.334   4.915  1.00  0.00     0.010 C 
HETATM   41  C32 UNL     1      -8.319  14.033   4.649  1.00  0.00     0.012 C 
HETATM   42  C33 UNL     1      -8.249  16.553   4.481  1.00  0.00     0.012 C 
ENDBRANCH  39  40
BRANCH  39  43
HETATM   43  N3  UNL     1     -11.332  14.761   5.483  1.00  0.00    -0.320 N 
HETATM   44  C34 UNL     1     -12.335  13.757   5.287  1.00  0.00     0.130 C 
HETATM   45  C35 UNL     1     -12.041  12.578   6.184  1.00  0.00     0.040 C 
HETATM   46  C36 UNL     1     -11.846  12.981   7.623  1.00  0.00     0.126 C 
HETATM   47  N4  UNL     1     -11.837  14.410   7.832  1.00  0.00    -0.343 N 
HETATM   48  C37 UNL     1     -11.202  15.222   6.853  1.00  0.00     0.319 C 
ATOM     49  H4  UNL     1     -12.273  14.824   8.655  1.00  0.00     0.164 HD
HETATM   50  O5  UNL     1     -10.569  16.259   7.103  1.00  0.00    -0.247 OA
ENDBRANCH  39  43
ENDBRANCH  36  39
ENDBRANCH  27  35
ENDBRANCH  26  27
ENDBRANCH   1  26
TORSDOF 16
ENDMDL
