MODEL 17
REMARK VINA RESULT: -10.352258241      1.421      2.139
REMARK  16 active torsions:
REMARK  status: ('A' for Active; 'I' for Inactive)
REMARK    1  A    between atoms: C8_8  and  O1_9 
REMARK    2  A    between atoms: O1_9  and  C9_10 
REMARK    3  A    between atoms: C9_10  and  C10_11 
REMARK       I    between atoms: C10_11  and  N1_13 
REMARK    4  A    between atoms: N1_13  and  C11_15 
REMARK    5  A    between atoms: C11_15  and  C12_16 
REMARK    6  A    between atoms: C11_15  and  C19_23 
REMARK    7  A    between atoms: C12_16  and  C13_17 
REMARK    8  A    between atoms: C19_23  and  O3_24 
REMARK    9  A    between atoms: C19_23  and  C20_26 
REMARK   10  A    between atoms: C20_26  and  C21_27 
REMARK   11  A    between atoms: C21_27  and  C22_28 
REMARK   12  A    between atoms: C21_27  and  N2_35 
REMARK   13  A    between atoms: C22_28  and  C23_29 
REMARK       I    between atoms: N2_35  and  C29_37 
REMARK   14  A    between atoms: C29_37  and  C30_39 
REMARK   15  A    between atoms: C30_39  and  C31_40 
REMARK   16  A    between atoms: C30_39  and  N3_43 
ROOT
HETATM    1  C19 UNL     1     -10.432  16.595   0.664  1.00  0.00     0.143 C 
ENDROOT
BRANCH   1   2
HETATM    2  C11 UNL     1      -9.044  16.023   0.356  1.00  0.00     0.117 C 
BRANCH   2   3
HETATM    3  N1  UNL     1      -8.743  15.900  -1.016  1.00  0.00    -0.352 N 
HETATM    4  C10 UNL     1      -8.608  14.640  -1.701  1.00  0.00     0.242 C 
HETATM    5  O2  UNL     1      -8.794  13.666  -0.955  1.00  0.00    -0.271 OA
ATOM      6  H1  UNL     1      -8.612  16.755  -1.556  1.00  0.00     0.163 HD
BRANCH   4   7
HETATM    7  C9  UNL     1      -8.281  14.634  -3.137  1.00  0.00     0.278 C 
BRANCH   7   8
HETATM    8  O1  UNL     1      -8.812  15.530  -3.979  1.00  0.00    -0.341 OA
BRANCH   8   9
HETATM    9  C8  UNL     1      -8.343  16.034  -5.142  1.00  0.00     0.081 A 
HETATM   10  C2  UNL     1      -8.846  15.674  -6.360  1.00  0.00    -0.028 A 
HETATM   11  C1  UNL     1     -10.008  14.737  -6.448  1.00  0.00     0.051 C 
HETATM   12  C3  UNL     1      -8.383  16.167  -7.578  1.00  0.00     0.009 A 
HETATM   13  C4  UNL     1      -7.333  17.091  -7.509  1.00  0.00     0.001 A 
HETATM   14  C5  UNL     1      -6.809  17.474  -6.292  1.00  0.00     0.009 A 
HETATM   15  C6  UNL     1      -7.292  16.965  -5.126  1.00  0.00    -0.028 A 
HETATM   16  C7  UNL     1      -6.755  17.358  -3.817  1.00  0.00     0.051 C 
ENDBRANCH   8   9
ENDBRANCH   7   8
ENDBRANCH   4   7
ENDBRANCH   2   3
BRANCH   2  17
HETATM   17  C12 UNL     1      -7.982  16.666   1.200  1.00  0.00     0.066 C 
BRANCH  17  18
HETATM   18  C13 UNL     1      -6.780  17.063   0.434  1.00  0.00    -0.056 A 
HETATM   19  C14 UNL     1      -6.643  18.316  -0.109  1.00  0.00     0.007 A 
HETATM   20  C15 UNL     1      -5.510  18.659  -0.808  1.00  0.00     0.001 A 
HETATM   21  C16 UNL     1      -4.508  17.708  -0.949  1.00  0.00     0.000 A 
HETATM   22  C17 UNL     1      -4.622  16.442  -0.412  1.00  0.00     0.001 A 
HETATM   23  C18 UNL     1      -5.783  16.128   0.289  1.00  0.00     0.007 A 
ENDBRANCH  17  18
ENDBRANCH   2  17
ENDBRANCH   1   2
BRANCH   1  24
HETATM   24  O3  UNL     1     -10.436  17.911   0.215  1.00  0.00    -0.393 OA
ATOM     25  H3  UNL     1     -11.325  18.233   0.311  1.00  0.00     0.210 HD
ENDBRANCH   1  24
BRANCH   1  26
HETATM   26  C20 UNL     1     -11.549  15.757   0.252  1.00  0.00     0.059 C 
BRANCH  26  27
HETATM   27  C21 UNL     1     -11.909  14.558   1.070  1.00  0.00     0.091 C 
BRANCH  27  28
HETATM   28  C22 UNL     1     -13.096  13.795   0.654  1.00  0.00     0.063 C 
BRANCH  28  29
HETATM   29  C23 UNL     1     -13.498  12.637   1.467  1.00  0.00    -0.056 A 
HETATM   30  C24 UNL     1     -14.763  12.531   2.038  1.00  0.00     0.007 A 
HETATM   31  C25 UNL     1     -15.125  11.455   2.821  1.00  0.00     0.001 A 
HETATM   32  C26 UNL     1     -14.210  10.449   3.052  1.00  0.00     0.000 A 
HETATM   33  C27 UNL     1     -12.950  10.506   2.512  1.00  0.00     0.001 A 
HETATM   34  C28 UNL     1     -12.626  11.582   1.743  1.00  0.00     0.007 A 
ENDBRANCH  28  29
ENDBRANCH  27  28
BRANCH  27  35
HETATM   35  N2  UNL     1     -11.990  14.887   2.493  1.00  0.00    -0.354 N 
HETATM   36  C29 UNL     1     -11.061  14.417   3.462  1.00  0.00     0.241 C 
HETATM   37  O4  UNL     1     -10.116  13.654   3.033  1.00  0.00    -0.271 OA
ATOM     38  H2  UNL     1     -12.753  15.487   2.808  1.00  0.00     0.162 HD
BRANCH  36  39
HETATM   39  C30 UNL     1     -11.131  14.749   4.882  1.00  0.00     0.184 C 
BRANCH  39  40
HETATM   40  C31 UNL     1      -9.862  15.339   5.458  1.00  0.00     0.010 C 
HETATM   41  C32 UNL     1      -9.069  16.146   4.472  1.00  0.00     0.012 C 
HETATM   42  C33 UNL     1     -10.046  16.003   6.797  1.00  0.00     0.012 C 
ENDBRANCH  39  40
BRANCH  39  43
HETATM   43  N3  UNL     1     -11.627  13.653   5.659  1.00  0.00    -0.320 N 
HETATM   44  C34 UNL     1     -10.865  12.658   6.352  1.00  0.00     0.130 C 
HETATM   45  C35 UNL     1     -11.250  12.665   7.812  1.00  0.00     0.040 C 
HETATM   46  C36 UNL     1     -12.738  12.555   8.019  1.00  0.00     0.126 C 
HETATM   47  N4  UNL     1     -13.502  12.608   6.794  1.00  0.00    -0.343 N 
HETATM   48  C37 UNL     1     -13.066  13.499   5.776  1.00  0.00     0.319 C 
ATOM     49  H4  UNL     1     -14.328  12.025   6.664  1.00  0.00     0.164 HD
HETATM   50  O5  UNL     1     -13.823  14.124   5.018  1.00  0.00    -0.247 OA
ENDBRANCH  39  43
ENDBRANCH  36  39
ENDBRANCH  27  35
ENDBRANCH  26  27
ENDBRANCH   1  26
TORSDOF 16
ENDMDL
