MODEL 8
REMARK VINA RESULT: -10.457911913      1.191      1.853
REMARK  16 active torsions:
REMARK  status: ('A' for Active; 'I' for Inactive)
REMARK    1  A    between atoms: C8_8  and  O1_9 
REMARK    2  A    between atoms: O1_9  and  C9_10 
REMARK    3  A    between atoms: C9_10  and  C10_11 
REMARK       I    between atoms: C10_11  and  N1_13 
REMARK    4  A    between atoms: N1_13  and  C11_15 
REMARK    5  A    between atoms: C11_15  and  C12_16 
REMARK    6  A    between atoms: C11_15  and  C19_23 
REMARK    7  A    between atoms: C12_16  and  C13_17 
REMARK    8  A    between atoms: C19_23  and  O3_24 
REMARK    9  A    between atoms: C19_23  and  C20_26 
REMARK   10  A    between atoms: C20_26  and  C21_27 
REMARK   11  A    between atoms: C21_27  and  C22_28 
REMARK   12  A    between atoms: C21_27  and  N2_35 
REMARK   13  A    between atoms: C22_28  and  C23_29 
REMARK       I    between atoms: N2_35  and  C29_37 
REMARK   14  A    between atoms: C29_37  and  C30_39 
REMARK   15  A    between atoms: C30_39  and  C31_40 
REMARK   16  A    between atoms: C30_39  and  N3_43 
ROOT
HETATM    1  C19 UNL     1      -9.311  15.917  -0.791  1.00  0.00     0.143 C 
ENDROOT
BRANCH   1   2
HETATM    2  C11 UNL     1      -7.993  16.592  -1.185  1.00  0.00     0.117 C 
BRANCH   2   3
HETATM    3  N1  UNL     1      -7.964  17.125  -2.491  1.00  0.00    -0.352 N 
HETATM    4  C10 UNL     1      -6.955  16.808  -3.468  1.00  0.00     0.242 C 
HETATM    5  O2  UNL     1      -6.111  16.004  -3.042  1.00  0.00    -0.271 OA
ATOM      6  H1  UNL     1      -8.702  17.776  -2.759  1.00  0.00     0.163 HD
BRANCH   4   7
HETATM    7  C9  UNL     1      -7.021  17.434  -4.799  1.00  0.00     0.278 C 
BRANCH   7   8
HETATM    8  O1  UNL     1      -8.142  17.404  -5.531  1.00  0.00    -0.341 OA
BRANCH   8   9
HETATM    9  C8  UNL     1      -8.629  16.454  -6.360  1.00  0.00     0.081 A 
HETATM   10  C2  UNL     1      -8.120  16.227  -7.607  1.00  0.00    -0.028 A 
HETATM   11  C1  UNL     1      -6.929  16.996  -8.085  1.00  0.00     0.051 C 
HETATM   12  C3  UNL     1      -8.601  15.264  -8.490  1.00  0.00     0.009 A 
HETATM   13  C4  UNL     1      -9.679  14.495  -8.034  1.00  0.00     0.001 A 
HETATM   14  C5  UNL     1     -10.212  14.702  -6.779  1.00  0.00     0.009 A 
HETATM   15  C6  UNL     1      -9.709  15.656  -5.949  1.00  0.00    -0.028 A 
HETATM   16  C7  UNL     1     -10.254  15.893  -4.606  1.00  0.00     0.051 C 
ENDBRANCH   8   9
ENDBRANCH   7   8
ENDBRANCH   4   7
ENDBRANCH   2   3
BRANCH   2  17
HETATM   17  C12 UNL     1      -7.493  17.502  -0.101  1.00  0.00     0.066 C 
BRANCH  17  18
HETATM   18  C13 UNL     1      -6.022  17.650  -0.085  1.00  0.00    -0.056 A 
HETATM   19  C14 UNL     1      -5.403  18.821  -0.446  1.00  0.00     0.007 A 
HETATM   20  C15 UNL     1      -4.033  18.932  -0.413  1.00  0.00     0.001 A 
HETATM   21  C16 UNL     1      -3.292  17.831  -0.004  1.00  0.00     0.000 A 
HETATM   22  C17 UNL     1      -3.890  16.643   0.365  1.00  0.00     0.001 A 
HETATM   23  C18 UNL     1      -5.279  16.565   0.318  1.00  0.00     0.007 A 
ENDBRANCH  17  18
ENDBRANCH   2  17
ENDBRANCH   1   2
BRANCH   1  24
HETATM   24  O3  UNL     1      -9.166  14.560  -1.052  1.00  0.00    -0.393 OA
ATOM     25  H3  UNL     1      -8.605  14.206  -0.371  1.00  0.00     0.210 HD
ENDBRANCH   1  24
BRANCH   1  26
HETATM   26  C20 UNL     1      -9.821  16.283   0.523  1.00  0.00     0.059 C 
BRANCH  26  27
HETATM   27  C21 UNL     1     -10.794  15.380   1.211  1.00  0.00     0.091 C 
BRANCH  27  28
HETATM   28  C22 UNL     1     -12.136  15.266   0.619  1.00  0.00     0.063 C 
BRANCH  28  29
HETATM   29  C23 UNL     1     -12.749  13.932   0.537  1.00  0.00    -0.056 A 
HETATM   30  C24 UNL     1     -12.111  12.854  -0.069  1.00  0.00     0.007 A 
HETATM   31  C25 UNL     1     -12.702  11.612  -0.165  1.00  0.00     0.001 A 
HETATM   32  C26 UNL     1     -13.967  11.424   0.352  1.00  0.00     0.000 A 
HETATM   33  C27 UNL     1     -14.639  12.453   0.960  1.00  0.00     0.001 A 
HETATM   34  C28 UNL     1     -14.026  13.667   1.039  1.00  0.00     0.007 A 
ENDBRANCH  28  29
ENDBRANCH  27  28
BRANCH  27  35
HETATM   35  N2  UNL     1     -10.893  15.687   2.638  1.00  0.00    -0.354 N 
HETATM   36  C29 UNL     1     -10.235  14.936   3.650  1.00  0.00     0.241 C 
HETATM   37  O4  UNL     1      -9.531  13.931   3.259  1.00  0.00    -0.271 OA
ATOM     38  H2  UNL     1     -11.463  16.484   2.922  1.00  0.00     0.162 HD
BRANCH  36  39
HETATM   39  C30 UNL     1     -10.323  15.243   5.075  1.00  0.00     0.184 C 
BRANCH  39  40
HETATM   40  C31 UNL     1      -9.015  15.653   5.716  1.00  0.00     0.010 C 
HETATM   41  C32 UNL     1      -8.150  16.505   4.834  1.00  0.00     0.012 C 
HETATM   42  C33 UNL     1      -9.155  16.164   7.126  1.00  0.00     0.012 C 
ENDBRANCH  39  40
BRANCH  39  43
HETATM   43  N3  UNL     1     -10.987  14.203   5.802  1.00  0.00    -0.320 N 
HETATM   44  C34 UNL     1     -10.393  13.063   6.433  1.00  0.00     0.130 C 
HETATM   45  C35 UNL     1     -10.763  13.055   7.897  1.00  0.00     0.040 C 
HETATM   46  C36 UNL     1     -12.248  13.177   8.118  1.00  0.00     0.126 C 
HETATM   47  N4  UNL     1     -13.000  13.418   6.909  1.00  0.00    -0.343 N 
HETATM   48  C37 UNL     1     -12.430  14.279   5.932  1.00  0.00     0.319 C 
ATOM     49  H4  UNL     1     -13.911  12.985   6.760  1.00  0.00     0.164 HD
HETATM   50  O5  UNL     1     -13.080  15.057   5.216  1.00  0.00    -0.247 OA
ENDBRANCH  39  43
ENDBRANCH  36  39
ENDBRANCH  27  35
ENDBRANCH  26  27
ENDBRANCH   1  26
TORSDOF 16
ENDMDL
