MODEL 3
REMARK VINA RESULT: -11.006411100      1.731     10.729
REMARK  16 active torsions:
REMARK  status: ('A' for Active; 'I' for Inactive)
REMARK    1  A    between atoms: C8_8  and  O1_9 
REMARK    2  A    between atoms: O1_9  and  C9_10 
REMARK    3  A    between atoms: C9_10  and  C10_11 
REMARK       I    between atoms: C10_11  and  N1_13 
REMARK    4  A    between atoms: N1_13  and  C11_15 
REMARK    5  A    between atoms: C11_15  and  C12_16 
REMARK    6  A    between atoms: C11_15  and  C19_23 
REMARK    7  A    between atoms: C12_16  and  C13_17 
REMARK    8  A    between atoms: C19_23  and  O3_24 
REMARK    9  A    between atoms: C19_23  and  C20_26 
REMARK   10  A    between atoms: C20_26  and  C21_27 
REMARK   11  A    between atoms: C21_27  and  C22_28 
REMARK   12  A    between atoms: C21_27  and  N2_35 
REMARK   13  A    between atoms: C22_28  and  C23_29 
REMARK       I    between atoms: N2_35  and  C29_37 
REMARK   14  A    between atoms: C29_37  and  C30_39 
REMARK   15  A    between atoms: C30_39  and  C31_40 
REMARK   16  A    between atoms: C30_39  and  N3_43 
ROOT
HETATM    1  C19 UNL     1      -9.960  16.811   0.117  1.00  0.00     0.143 C 
ENDROOT
BRANCH   1   2
HETATM    2  C11 UNL     1     -10.733  15.590   0.627  1.00  0.00     0.117 C 
BRANCH   2   3
HETATM    3  N1  UNL     1     -11.059  15.623   1.999  1.00  0.00    -0.352 N 
HETATM    4  C10 UNL     1     -10.627  14.634   2.953  1.00  0.00     0.242 C 
HETATM    5  O2  UNL     1      -9.925  13.748   2.441  1.00  0.00    -0.271 OA
ATOM      6  H1  UNL     1     -11.636  16.393   2.336  1.00  0.00     0.163 HD
BRANCH   4   7
HETATM    7  C9  UNL     1     -11.037  14.766   4.361  1.00  0.00     0.278 C 
BRANCH   7   8
HETATM    8  O1  UNL     1     -10.598  15.773   5.126  1.00  0.00    -0.341 OA
BRANCH   8   9
HETATM    9  C8  UNL     1      -9.630  15.809   6.068  1.00  0.00     0.081 A 
HETATM   10  C2  UNL     1      -9.819  15.349   7.341  1.00  0.00    -0.028 A 
HETATM   11  C1  UNL     1     -11.115  14.711   7.726  1.00  0.00     0.051 C 
HETATM   12  C3  UNL     1      -8.848  15.377   8.339  1.00  0.00     0.009 A 
HETATM   13  C4  UNL     1      -7.608  15.919   7.977  1.00  0.00     0.001 A 
HETATM   14  C5  UNL     1      -7.390  16.388   6.698  1.00  0.00     0.009 A 
HETATM   15  C6  UNL     1      -8.369  16.342   5.754  1.00  0.00    -0.028 A 
HETATM   16  C7  UNL     1      -8.163  16.831   4.385  1.00  0.00     0.051 C 
ENDBRANCH   8   9
ENDBRANCH   7   8
ENDBRANCH   4   7
ENDBRANCH   2   3
BRANCH   2  17
HETATM   17  C12 UNL     1     -11.856  15.222  -0.299  1.00  0.00     0.066 C 
BRANCH  17  18
HETATM   18  C13 UNL     1     -12.498  13.933   0.035  1.00  0.00    -0.056 A 
HETATM   19  C14 UNL     1     -13.774  13.863   0.538  1.00  0.00     0.007 A 
HETATM   20  C15 UNL     1     -14.349  12.649   0.830  1.00  0.00     0.001 A 
HETATM   21  C16 UNL     1     -13.608  11.497   0.605  1.00  0.00     0.000 A 
HETATM   22  C17 UNL     1     -12.324  11.540   0.101  1.00  0.00     0.001 A 
HETATM   23  C18 UNL     1     -11.772  12.786  -0.184  1.00  0.00     0.007 A 
ENDBRANCH  17  18
ENDBRANCH   2  17
ENDBRANCH   1   2
BRANCH   1  24
HETATM   24  O3  UNL     1     -10.746  17.927   0.379  1.00  0.00    -0.393 OA
ATOM     25  H3  UNL     1     -11.311  18.051  -0.375  1.00  0.00     0.210 HD
ENDBRANCH   1  24
BRANCH   1  26
HETATM   26  C20 UNL     1      -8.566  16.876   0.537  1.00  0.00     0.059 C 
BRANCH  26  27
HETATM   27  C21 UNL     1      -7.517  17.256  -0.458  1.00  0.00     0.091 C 
BRANCH  27  28
HETATM   28  C22 UNL     1      -6.678  18.421  -0.136  1.00  0.00     0.063 C 
BRANCH  28  29
HETATM   29  C23 UNL     1      -5.281  18.421  -0.596  1.00  0.00    -0.056 A 
HETATM   30  C24 UNL     1      -4.290  17.672   0.030  1.00  0.00     0.007 A 
HETATM   31  C25 UNL     1      -2.977  17.697  -0.391  1.00  0.00     0.001 A 
HETATM   32  C26 UNL     1      -2.627  18.487  -1.466  1.00  0.00     0.000 A 
HETATM   33  C27 UNL     1      -3.566  19.244  -2.119  1.00  0.00     0.001 A 
HETATM   34  C28 UNL     1      -4.854  19.196  -1.678  1.00  0.00     0.007 A 
ENDBRANCH  28  29
ENDBRANCH  27  28
BRANCH  27  35
HETATM   35  N2  UNL     1      -8.078  17.389  -1.802  1.00  0.00    -0.354 N 
HETATM   36  C29 UNL     1      -7.580  16.685  -2.934  1.00  0.00     0.241 C 
HETATM   37  O4  UNL     1      -6.575  15.906  -2.733  1.00  0.00    -0.271 OA
ATOM     38  H2  UNL     1      -8.868  18.019  -1.935  1.00  0.00     0.162 HD
BRANCH  36  39
HETATM   39  C30 UNL     1      -8.141  16.808  -4.277  1.00  0.00     0.184 C 
BRANCH  39  40
HETATM   40  C31 UNL     1      -8.851  15.570  -4.781  1.00  0.00     0.010 C 
HETATM   41  C32 UNL     1      -8.051  14.309  -4.629  1.00  0.00     0.012 C 
HETATM   42  C33 UNL     1     -10.282  15.455  -4.325  1.00  0.00     0.012 C 
ENDBRANCH  39  40
BRANCH  39  43
HETATM   43  N3  UNL     1      -7.177  17.305  -5.211  1.00  0.00    -0.320 N 
HETATM   44  C34 UNL     1      -5.847  17.759  -4.935  1.00  0.00     0.130 C 
HETATM   45  C35 UNL     1      -4.867  16.959  -5.760  1.00  0.00     0.040 C 
HETATM   46  C36 UNL     1      -5.221  16.944  -7.224  1.00  0.00     0.126 C 
HETATM   47  N4  UNL     1      -6.488  17.569  -7.524  1.00  0.00    -0.343 N 
HETATM   48  C37 UNL     1      -7.558  17.375  -6.609  1.00  0.00     0.319 C 
ATOM     49  H4  UNL     1      -6.611  18.133  -8.365  1.00  0.00     0.164 HD
HETATM   50  O5  UNL     1      -8.750  17.268  -6.936  1.00  0.00    -0.247 OA
ENDBRANCH  39  43
ENDBRANCH  36  39
ENDBRANCH  27  35
ENDBRANCH  26  27
ENDBRANCH   1  26
TORSDOF 16
ENDMDL
