MODEL 1
REMARK VINA RESULT: -11.192927705      0.000      0.000
REMARK  16 active torsions:
REMARK  status: ('A' for Active; 'I' for Inactive)
REMARK    1  A    between atoms: C8_8  and  O1_9 
REMARK    2  A    between atoms: O1_9  and  C9_10 
REMARK    3  A    between atoms: C9_10  and  C10_11 
REMARK       I    between atoms: C10_11  and  N1_13 
REMARK    4  A    between atoms: N1_13  and  C11_15 
REMARK    5  A    between atoms: C11_15  and  C12_16 
REMARK    6  A    between atoms: C11_15  and  C19_23 
REMARK    7  A    between atoms: C12_16  and  C13_17 
REMARK    8  A    between atoms: C19_23  and  O3_24 
REMARK    9  A    between atoms: C19_23  and  C20_26 
REMARK   10  A    between atoms: C20_26  and  C21_27 
REMARK   11  A    between atoms: C21_27  and  C22_28 
REMARK   12  A    between atoms: C21_27  and  N2_35 
REMARK   13  A    between atoms: C22_28  and  C23_29 
REMARK       I    between atoms: N2_35  and  C29_37 
REMARK   14  A    between atoms: C29_37  and  C30_39 
REMARK   15  A    between atoms: C30_39  and  C31_40 
REMARK   16  A    between atoms: C30_39  and  N3_43 
ROOT
HETATM    1  C19 UNL     1      -9.689  17.048  -0.086  1.00  0.00     0.143 C 
ENDROOT
BRANCH   1   2
HETATM    2  C11 UNL     1      -8.226  16.939  -0.528  1.00  0.00     0.117 C 
BRANCH   2   3
HETATM    3  N1  UNL     1      -7.979  17.314  -1.865  1.00  0.00    -0.352 N 
HETATM    4  C10 UNL     1      -7.443  16.426  -2.865  1.00  0.00     0.242 C 
HETATM    5  O2  UNL     1      -7.227  15.285  -2.426  1.00  0.00    -0.271 OA
ATOM      6  H1  UNL     1      -8.192  18.272  -2.142  1.00  0.00     0.163 HD
BRANCH   4   7
HETATM    7  C9  UNL     1      -7.218  16.931  -4.229  1.00  0.00     0.278 C 
BRANCH   7   8
HETATM    8  O1  UNL     1      -8.234  17.122  -5.081  1.00  0.00    -0.341 OA
BRANCH   8   9
HETATM    9  C8  UNL     1      -8.769  16.305  -6.015  1.00  0.00     0.081 A 
HETATM   10  C2  UNL     1      -9.833  15.487  -5.760  1.00  0.00    -0.028 A 
HETATM   11  C1  UNL     1     -10.503  15.518  -4.424  1.00  0.00     0.051 C 
HETATM   12  C3  UNL     1     -10.404  14.626  -6.694  1.00  0.00     0.009 A 
HETATM   13  C4  UNL     1      -9.824  14.629  -7.969  1.00  0.00     0.001 A 
HETATM   14  C5  UNL     1      -8.751  15.446  -8.254  1.00  0.00     0.009 A 
HETATM   15  C6  UNL     1      -8.224  16.271  -7.308  1.00  0.00    -0.028 A 
HETATM   16  C7  UNL     1      -7.084  17.155  -7.586  1.00  0.00     0.051 C 
ENDBRANCH   8   9
ENDBRANCH   7   8
ENDBRANCH   4   7
ENDBRANCH   2   3
BRANCH   2  17
HETATM   17  C12 UNL     1      -7.296  17.527   0.493  1.00  0.00     0.066 C 
BRANCH  17  18
HETATM   18  C13 UNL     1      -5.875  17.500   0.084  1.00  0.00    -0.056 A 
HETATM   19  C14 UNL     1      -5.221  18.624  -0.355  1.00  0.00     0.007 A 
HETATM   20  C15 UNL     1      -3.896  18.570  -0.720  1.00  0.00     0.001 A 
HETATM   21  C16 UNL     1      -3.238  17.350  -0.633  1.00  0.00     0.000 A 
HETATM   22  C17 UNL     1      -3.873  16.206  -0.195  1.00  0.00     0.001 A 
HETATM   23  C18 UNL     1      -5.214  16.297   0.166  1.00  0.00     0.007 A 
ENDBRANCH  17  18
ENDBRANCH   2  17
ENDBRANCH   1   2
BRANCH   1  24
HETATM   24  O3  UNL     1     -10.136  18.308  -0.466  1.00  0.00    -0.393 OA
ATOM     25  H3  UNL     1      -9.625  18.942   0.024  1.00  0.00     0.210 HD
ENDBRANCH   1  24
BRANCH   1  26
HETATM   26  C20 UNL     1     -10.528  15.915  -0.454  1.00  0.00     0.059 C 
BRANCH  26  27
HETATM   27  C21 UNL     1     -11.302  15.199   0.606  1.00  0.00     0.091 C 
BRANCH  27  28
HETATM   28  C22 UNL     1     -12.753  15.068   0.403  1.00  0.00     0.063 C 
BRANCH  28  29
HETATM   29  C23 UNL     1     -13.400  13.808   0.802  1.00  0.00    -0.056 A 
HETATM   30  C24 UNL     1     -13.218  12.622   0.097  1.00  0.00     0.007 A 
HETATM   31  C25 UNL     1     -13.848  11.450   0.461  1.00  0.00     0.001 A 
HETATM   32  C26 UNL     1     -14.686  11.445   1.556  1.00  0.00     0.000 A 
HETATM   33  C27 UNL     1     -14.899  12.588   2.285  1.00  0.00     0.001 A 
HETATM   34  C28 UNL     1     -14.261  13.727   1.899  1.00  0.00     0.007 A 
ENDBRANCH  28  29
ENDBRANCH  27  28
BRANCH  27  35
HETATM   35  N2  UNL     1     -11.021  15.746   1.934  1.00  0.00    -0.354 N 
HETATM   36  C29 UNL     1     -10.677  14.944   3.057  1.00  0.00     0.241 C 
HETATM   37  O4  UNL     1     -10.629  13.671   2.865  1.00  0.00    -0.271 OA
ATOM     38  H2  UNL     1     -11.075  16.756   2.061  1.00  0.00     0.162 HD
BRANCH  36  39
HETATM   39  C30 UNL     1     -10.388  15.484   4.382  1.00  0.00     0.184 C 
BRANCH  39  40
HETATM   40  C31 UNL     1      -8.925  15.461   4.770  1.00  0.00     0.010 C 
HETATM   41  C32 UNL     1      -8.269  14.125   4.575  1.00  0.00     0.012 C 
HETATM   42  C33 UNL     1      -8.131  16.626   4.238  1.00  0.00     0.012 C 
ENDBRANCH  39  40
BRANCH  39  43
HETATM   43  N3  UNL     1     -11.230  14.907   5.386  1.00  0.00    -0.320 N 
HETATM   44  C34 UNL     1     -12.259  13.927   5.204  1.00  0.00     0.130 C 
HETATM   45  C35 UNL     1     -11.965  12.729   6.074  1.00  0.00     0.040 C 
HETATM   46  C36 UNL     1     -11.719  13.105   7.513  1.00  0.00     0.126 C 
HETATM   47  N4  UNL     1     -11.674  14.530   7.743  1.00  0.00    -0.343 N 
HETATM   48  C37 UNL     1     -11.050  15.343   6.758  1.00  0.00     0.319 C 
ATOM     49  H4  UNL     1     -12.077  14.940   8.585  1.00  0.00     0.164 HD
HETATM   50  O5  UNL     1     -10.389  16.363   7.005  1.00  0.00    -0.247 OA
ENDBRANCH  39  43
ENDBRANCH  36  39
ENDBRANCH  27  35
ENDBRANCH  26  27
ENDBRANCH   1  26
TORSDOF 16
ENDMDL
