MODEL 4
REMARK VINA RESULT: -10.962358281      0.794      1.355
REMARK  16 active torsions:
REMARK  status: ('A' for Active; 'I' for Inactive)
REMARK    1  A    between atoms: C8_8  and  O1_9 
REMARK    2  A    between atoms: O1_9  and  C9_10 
REMARK    3  A    between atoms: C9_10  and  C10_11 
REMARK       I    between atoms: C10_11  and  N1_13 
REMARK    4  A    between atoms: N1_13  and  C11_15 
REMARK    5  A    between atoms: C11_15  and  C12_16 
REMARK    6  A    between atoms: C11_15  and  C19_23 
REMARK    7  A    between atoms: C12_16  and  C13_17 
REMARK    8  A    between atoms: C19_23  and  O3_24 
REMARK    9  A    between atoms: C19_23  and  C20_26 
REMARK   10  A    between atoms: C20_26  and  C21_27 
REMARK   11  A    between atoms: C21_27  and  C22_28 
REMARK   12  A    between atoms: C21_27  and  N2_35 
REMARK   13  A    between atoms: C22_28  and  C23_29 
REMARK       I    between atoms: N2_35  and  C29_37 
REMARK   14  A    between atoms: C29_37  and  C30_39 
REMARK   15  A    between atoms: C30_39  and  C31_40 
REMARK   16  A    between atoms: C30_39  and  N3_43 
ROOT
HETATM    1  C19 UNL     1      -9.645  17.083  -0.105  1.00  0.00     0.143 C 
ENDROOT
BRANCH   1   2
HETATM    2  C11 UNL     1      -8.184  17.055  -0.565  1.00  0.00     0.117 C 
BRANCH   2   3
HETATM    3  N1  UNL     1      -7.982  17.364  -1.926  1.00  0.00    -0.352 N 
HETATM    4  C10 UNL     1      -7.364  16.470  -2.871  1.00  0.00     0.242 C 
HETATM    5  O2  UNL     1      -7.031  15.389  -2.362  1.00  0.00    -0.271 OA
ATOM      6  H1  UNL     1      -8.293  18.275  -2.262  1.00  0.00     0.163 HD
BRANCH   4   7
HETATM    7  C9  UNL     1      -7.198  16.904  -4.269  1.00  0.00     0.278 C 
BRANCH   7   8
HETATM    8  O1  UNL     1      -8.252  17.089  -5.074  1.00  0.00    -0.341 OA
BRANCH   8   9
HETATM    9  C8  UNL     1      -8.803  16.281  -6.006  1.00  0.00     0.081 A 
HETATM   10  C2  UNL     1      -9.857  15.454  -5.739  1.00  0.00    -0.028 A 
HETATM   11  C1  UNL     1     -10.498  15.464  -4.387  1.00  0.00     0.051 C 
HETATM   12  C3  UNL     1     -10.445  14.603  -6.671  1.00  0.00     0.009 A 
HETATM   13  C4  UNL     1      -9.894  14.625  -7.958  1.00  0.00     0.001 A 
HETATM   14  C5  UNL     1      -8.831  15.453  -8.256  1.00  0.00     0.009 A 
HETATM   15  C6  UNL     1      -8.287  16.268  -7.312  1.00  0.00    -0.028 A 
HETATM   16  C7  UNL     1      -7.159  17.161  -7.603  1.00  0.00     0.051 C 
ENDBRANCH   8   9
ENDBRANCH   7   8
ENDBRANCH   4   7
ENDBRANCH   2   3
BRANCH   2  17
HETATM   17  C12 UNL     1      -7.288  17.772   0.403  1.00  0.00     0.066 C 
BRANCH  17  18
HETATM   18  C13 UNL     1      -5.849  17.636   0.088  1.00  0.00    -0.056 A 
HETATM   19  C14 UNL     1      -5.175  16.451   0.256  1.00  0.00     0.007 A 
HETATM   20  C15 UNL     1      -3.839  16.352  -0.054  1.00  0.00     0.001 A 
HETATM   21  C16 UNL     1      -3.190  17.478  -0.541  1.00  0.00     0.000 A 
HETATM   22  C17 UNL     1      -3.844  18.680  -0.718  1.00  0.00     0.001 A 
HETATM   23  C18 UNL     1      -5.196  18.746  -0.394  1.00  0.00     0.007 A 
ENDBRANCH  17  18
ENDBRANCH   2  17
ENDBRANCH   1   2
BRANCH   1  24
HETATM   24  O3  UNL     1     -10.127  18.361  -0.360  1.00  0.00    -0.393 OA
ATOM     25  H3  UNL     1     -10.976  18.426   0.061  1.00  0.00     0.210 HD
ENDBRANCH   1  24
BRANCH   1  26
HETATM   26  C20 UNL     1     -10.459  15.969  -0.573  1.00  0.00     0.059 C 
BRANCH  26  27
HETATM   27  C21 UNL     1     -11.266  15.184   0.410  1.00  0.00     0.091 C 
BRANCH  27  28
HETATM   28  C22 UNL     1     -12.704  15.042   0.136  1.00  0.00     0.063 C 
BRANCH  28  29
HETATM   29  C23 UNL     1     -13.380  13.816   0.586  1.00  0.00    -0.056 A 
HETATM   30  C24 UNL     1     -14.269  13.804   1.657  1.00  0.00     0.007 A 
HETATM   31  C25 UNL     1     -14.879  12.646   2.090  1.00  0.00     0.001 A 
HETATM   32  C26 UNL     1     -14.605  11.457   1.447  1.00  0.00     0.000 A 
HETATM   33  C27 UNL     1     -13.738  11.414   0.385  1.00  0.00     0.001 A 
HETATM   34  C28 UNL     1     -13.153  12.576  -0.018  1.00  0.00     0.007 A 
ENDBRANCH  28  29
ENDBRANCH  27  28
BRANCH  27  35
HETATM   35  N2  UNL     1     -11.053  15.660   1.777  1.00  0.00    -0.354 N 
HETATM   36  C29 UNL     1     -10.645  14.818   2.848  1.00  0.00     0.241 C 
HETATM   37  O4  UNL     1     -10.471  13.573   2.569  1.00  0.00    -0.271 OA
ATOM     38  H2  UNL     1     -11.206  16.649   1.972  1.00  0.00     0.162 HD
BRANCH  36  39
HETATM   39  C30 UNL     1     -10.424  15.289   4.212  1.00  0.00     0.184 C 
BRANCH  39  40
HETATM   40  C31 UNL     1      -8.988  15.643   4.534  1.00  0.00     0.010 C 
HETATM   41  C32 UNL     1      -8.210  16.148   3.354  1.00  0.00     0.012 C 
HETATM   42  C33 UNL     1      -8.825  16.469   5.784  1.00  0.00     0.012 C 
ENDBRANCH  39  40
BRANCH  39  43
HETATM   43  N3  UNL     1     -11.001  14.405   5.179  1.00  0.00    -0.320 N 
HETATM   44  C34 UNL     1     -10.366  13.308   5.847  1.00  0.00     0.130 C 
HETATM   45  C35 UNL     1     -10.462  13.513   7.340  1.00  0.00     0.040 C 
HETATM   46  C36 UNL     1     -11.872  13.781   7.798  1.00  0.00     0.126 C 
HETATM   47  N4  UNL     1     -12.818  13.928   6.717  1.00  0.00    -0.343 N 
HETATM   48  C37 UNL     1     -12.389  14.612   5.547  1.00  0.00     0.319 C 
ATOM     49  H4  UNL     1     -13.763  13.554   6.790  1.00  0.00     0.164 HD
HETATM   50  O5  UNL     1     -13.114  15.344   4.856  1.00  0.00    -0.247 OA
ENDBRANCH  39  43
ENDBRANCH  36  39
ENDBRANCH  27  35
ENDBRANCH  26  27
ENDBRANCH   1  26
TORSDOF 16
ENDMDL
