MODEL 2
REMARK VINA RESULT: -11.094352846      1.758     10.791
REMARK  16 active torsions:
REMARK  status: ('A' for Active; 'I' for Inactive)
REMARK    1  A    between atoms: C8_8  and  O1_9 
REMARK    2  A    between atoms: O1_9  and  C9_10 
REMARK    3  A    between atoms: C9_10  and  C10_11 
REMARK       I    between atoms: C10_11  and  N1_13 
REMARK    4  A    between atoms: N1_13  and  C11_15 
REMARK    5  A    between atoms: C11_15  and  C12_16 
REMARK    6  A    between atoms: C11_15  and  C19_23 
REMARK    7  A    between atoms: C12_16  and  C13_17 
REMARK    8  A    between atoms: C19_23  and  O3_24 
REMARK    9  A    between atoms: C19_23  and  C20_26 
REMARK   10  A    between atoms: C20_26  and  C21_27 
REMARK   11  A    between atoms: C21_27  and  C22_28 
REMARK   12  A    between atoms: C21_27  and  N2_35 
REMARK   13  A    between atoms: C22_28  and  C23_29 
REMARK       I    between atoms: N2_35  and  C29_37 
REMARK   14  A    between atoms: C29_37  and  C30_39 
REMARK   15  A    between atoms: C30_39  and  C31_40 
REMARK   16  A    between atoms: C30_39  and  N3_43 
ROOT
HETATM    1  C19 UNL     1      -9.908  16.894   0.116  1.00  0.00     0.143 C 
ENDROOT
BRANCH   1   2
HETATM    2  C11 UNL     1     -10.537  15.570   0.563  1.00  0.00     0.117 C 
BRANCH   2   3
HETATM    3  N1  UNL     1     -10.989  15.547   1.899  1.00  0.00    -0.352 N 
HETATM    4  C10 UNL     1     -10.459  14.673   2.913  1.00  0.00     0.242 C 
HETATM    5  O2  UNL     1      -9.550  13.941   2.488  1.00  0.00    -0.271 OA
ATOM      6  H1  UNL     1     -11.737  16.188   2.163  1.00  0.00     0.163 HD
BRANCH   4   7
HETATM    7  C9  UNL     1     -11.016  14.730   4.275  1.00  0.00     0.278 C 
BRANCH   7   8
HETATM    8  O1  UNL     1     -10.686  15.711   5.125  1.00  0.00    -0.341 OA
BRANCH   8   9
HETATM    9  C8  UNL     1      -9.693  15.791   6.037  1.00  0.00     0.081 A 
HETATM   10  C2  UNL     1      -8.465  16.318   5.750  1.00  0.00    -0.028 A 
HETATM   11  C1  UNL     1      -8.194  16.902   4.401  1.00  0.00     0.051 C 
HETATM   12  C3  UNL     1      -7.417  16.410   6.662  1.00  0.00     0.009 A 
HETATM   13  C4  UNL     1      -7.675  15.921   7.949  1.00  0.00     0.001 A 
HETATM   14  C5  UNL     1      -8.906  15.386   8.266  1.00  0.00     0.009 A 
HETATM   15  C6  UNL     1      -9.903  15.316   7.342  1.00  0.00    -0.028 A 
HETATM   16  C7  UNL     1     -11.223  14.755   7.654  1.00  0.00     0.051 C 
ENDBRANCH   8   9
ENDBRANCH   7   8
ENDBRANCH   4   7
ENDBRANCH   2   3
BRANCH   2  17
HETATM   17  C12 UNL     1     -11.504  15.047  -0.459  1.00  0.00     0.066 C 
BRANCH  17  18
HETATM   18  C13 UNL     1     -12.237  13.841  -0.016  1.00  0.00    -0.056 A 
HETATM   19  C14 UNL     1     -13.539  13.896   0.417  1.00  0.00     0.007 A 
HETATM   20  C15 UNL     1     -14.196  12.756   0.814  1.00  0.00     0.001 A 
HETATM   21  C16 UNL     1     -13.512  11.549   0.765  1.00  0.00     0.000 A 
HETATM   22  C17 UNL     1     -12.204  11.467   0.334  1.00  0.00     0.001 A 
HETATM   23  C18 UNL     1     -11.568  12.640  -0.060  1.00  0.00     0.007 A 
ENDBRANCH  17  18
ENDBRANCH   2  17
ENDBRANCH   1   2
BRANCH   1  24
HETATM   24  O3  UNL     1     -10.781  17.907   0.496  1.00  0.00    -0.393 OA
ATOM     25  H3  UNL     1     -10.378  18.729   0.242  1.00  0.00     0.210 HD
ENDBRANCH   1  24
BRANCH   1  26
HETATM   26  C20 UNL     1      -8.508  17.064   0.481  1.00  0.00     0.059 C 
BRANCH  26  27
HETATM   27  C21 UNL     1      -7.508  17.401  -0.578  1.00  0.00     0.091 C 
BRANCH  27  28
HETATM   28  C22 UNL     1      -6.681  18.598  -0.363  1.00  0.00     0.063 C 
BRANCH  28  29
HETATM   29  C23 UNL     1      -5.265  18.545  -0.756  1.00  0.00    -0.056 A 
HETATM   30  C24 UNL     1      -4.783  19.181  -1.897  1.00  0.00     0.007 A 
HETATM   31  C25 UNL     1      -3.459  19.105  -2.274  1.00  0.00     0.001 A 
HETATM   32  C26 UNL     1      -2.577  18.377  -1.503  1.00  0.00     0.000 A 
HETATM   33  C27 UNL     1      -3.001  17.732  -0.368  1.00  0.00     0.001 A 
HETATM   34  C28 UNL     1      -4.315  17.828  -0.024  1.00  0.00     0.007 A 
ENDBRANCH  28  29
ENDBRANCH  27  28
BRANCH  27  35
HETATM   35  N2  UNL     1      -8.127  17.441  -1.903  1.00  0.00    -0.354 N 
HETATM   36  C29 UNL     1      -7.602  16.760  -3.036  1.00  0.00     0.241 C 
HETATM   37  O4  UNL     1      -6.518  16.088  -2.856  1.00  0.00    -0.271 OA
ATOM     38  H2  UNL     1      -8.980  17.987  -2.021  1.00  0.00     0.162 HD
BRANCH  36  39
HETATM   39  C30 UNL     1      -8.220  16.790  -4.359  1.00  0.00     0.184 C 
BRANCH  39  40
HETATM   40  C31 UNL     1      -8.964  15.528  -4.739  1.00  0.00     0.010 C 
HETATM   41  C32 UNL     1      -8.154  14.275  -4.573  1.00  0.00     0.012 C 
HETATM   42  C33 UNL     1     -10.358  15.444  -4.175  1.00  0.00     0.012 C 
ENDBRANCH  39  40
BRANCH  39  43
HETATM   43  N3  UNL     1      -7.292  17.204  -5.368  1.00  0.00    -0.320 N 
HETATM   44  C34 UNL     1      -5.925  17.592  -5.191  1.00  0.00     0.130 C 
HETATM   45  C35 UNL     1      -5.043  16.714  -6.046  1.00  0.00     0.040 C 
HETATM   46  C36 UNL     1      -5.490  16.673  -7.485  1.00  0.00     0.126 C 
HETATM   47  N4  UNL     1      -6.739  17.357  -7.727  1.00  0.00    -0.343 N 
HETATM   48  C37 UNL     1      -7.758  17.251  -6.742  1.00  0.00     0.319 C 
ATOM     49  H4  UNL     1      -6.885  17.900  -8.578  1.00  0.00     0.164 HD
HETATM   50  O5  UNL     1      -8.972  17.199  -6.990  1.00  0.00    -0.247 OA
ENDBRANCH  39  43
ENDBRANCH  36  39
ENDBRANCH  27  35
ENDBRANCH  26  27
ENDBRANCH   1  26
TORSDOF 16
ENDMDL
