MODEL 6
REMARK VINA RESULT: -6.307339701      2.479      5.000
REMARK  9 active torsions:
REMARK  status: ('A' for Active; 'I' for Inactive)
REMARK       I    between atoms: C2_2  and  N1_4 
REMARK    1  A    between atoms: N1_4  and  C3_6 
REMARK    2  A    between atoms: C4_7  and  O2_8 
REMARK    3  A    between atoms: C6_11  and  C7_12 
REMARK    4  A    between atoms: C8_16  and  C9_17 
REMARK    5  A    between atoms: C9_17  and  O6_18 
REMARK    6  A    between atoms: C9_17  and  C10_20 
REMARK    7  A    between atoms: C10_20  and  O7_21 
REMARK    8  A    between atoms: C10_20  and  C11_23 
REMARK    9  A    between atoms: C11_23  and  O8_24 
ROOT
HETATM    1  C3  UNL     1      43.967  51.558  47.743  1.00  0.00     0.149 C 
HETATM    2  C4  UNL     1      42.695  51.191  48.462  1.00  0.00     0.169 C 
HETATM    3  C5  UNL     1      42.998  50.055  49.357  1.00  0.00     0.050 C 
HETATM    4  C6  UNL     1      44.206  49.894  49.851  1.00  0.00     0.144 C 
HETATM    5  O5  UNL     1      45.235  50.761  49.563  1.00  0.00    -0.335 OA
HETATM    6  C8  UNL     1      45.097  51.875  48.715  1.00  0.00     0.186 C 
ENDROOT
BRANCH   6   7
HETATM    7  C9  UNL     1      46.298  52.131  47.868  1.00  0.00     0.180 C 
BRANCH   7   8
HETATM    8  O6  UNL     1      46.135  51.583  46.608  1.00  0.00    -0.390 OA
ATOM      9  H6  UNL     1      46.102  50.635  46.655  1.00  0.00     0.210 HD
ENDBRANCH   7   8
BRANCH   7  10
HETATM   10  C10 UNL     1      47.596  51.731  48.472  1.00  0.00     0.173 C 
BRANCH  10  11
HETATM   11  O7  UNL     1      48.496  52.803  48.259  1.00  0.00    -0.391 OA
ATOM     12  H7  UNL     1      48.816  52.720  47.369  1.00  0.00     0.210 HD
ENDBRANCH  10  11
BRANCH  10  13
HETATM   13  C11 UNL     1      48.226  50.539  47.766  1.00  0.00     0.198 C 
BRANCH  13  14
HETATM   14  O8  UNL     1      47.368  49.443  47.804  1.00  0.00    -0.398 OA
ATOM     15  H8  UNL     1      47.843  48.644  47.609  1.00  0.00     0.209 HD
ENDBRANCH  13  14
ENDBRANCH  10  13
ENDBRANCH   7  10
ENDBRANCH   6   7
BRANCH   1  16
HETATM   16  N1  UNL     1      43.720  52.766  46.983  1.00  0.00    -0.351 N 
HETATM   17  C2  UNL     1      43.498  52.783  45.584  1.00  0.00     0.214 C 
HETATM   18  C1  UNL     1      43.245  54.067  44.844  1.00  0.00     0.117 C 
HETATM   19  O1  UNL     1      43.515  51.695  44.968  1.00  0.00    -0.274 OA
ATOM     20  H1  UNL     1      43.704  53.655  47.484  1.00  0.00     0.163 HD
ENDBRANCH   1  16
BRANCH   2  21
HETATM   21  O2  UNL     1      41.787  50.753  47.499  1.00  0.00    -0.389 OA
ATOM     22  H2  UNL     1      41.808  51.380  46.786  1.00  0.00     0.210 HD
ENDBRANCH   2  21
BRANCH   4  23
HETATM   23  C7  UNL     1      44.446  48.739  50.740  1.00  0.00     0.233 C 
HETATM   24  O3  UNL     1      44.022  48.714  51.905  1.00  0.00    -0.642 OA
HETATM   25  O4  UNL     1      45.160  47.635  50.287  1.00  0.00    -0.642 OA
ENDBRANCH   4  23
TORSDOF 9
ENDMDL
