MODEL 7
REMARK VINA RESULT: -6.294178368      2.791      5.005
REMARK  9 active torsions:
REMARK  status: ('A' for Active; 'I' for Inactive)
REMARK       I    between atoms: C2_2  and  N1_4 
REMARK    1  A    between atoms: N1_4  and  C3_6 
REMARK    2  A    between atoms: C4_7  and  O2_8 
REMARK    3  A    between atoms: C6_11  and  C7_12 
REMARK    4  A    between atoms: C8_16  and  C9_17 
REMARK    5  A    between atoms: C9_17  and  O6_18 
REMARK    6  A    between atoms: C9_17  and  C10_20 
REMARK    7  A    between atoms: C10_20  and  O7_21 
REMARK    8  A    between atoms: C10_20  and  C11_23 
REMARK    9  A    between atoms: C11_23  and  O8_24 
ROOT
HETATM    1  C3  UNL     1      45.918  51.658  47.642  1.00  0.00     0.149 C 
HETATM    2  C4  UNL     1      46.603  52.851  47.029  1.00  0.00     0.169 C 
HETATM    3  C5  UNL     1      45.652  53.480  46.087  1.00  0.00     0.050 C 
HETATM    4  C6  UNL     1      44.355  53.383  46.281  1.00  0.00     0.144 C 
HETATM    5  O5  UNL     1      43.824  52.701  47.352  1.00  0.00    -0.335 OA
HETATM    6  C8  UNL     1      44.606  52.042  48.317  1.00  0.00     0.186 C 
ENDROOT
BRANCH   6   7
HETATM    7  C9  UNL     1      44.008  50.762  48.795  1.00  0.00     0.180 C 
BRANCH   7   8
HETATM    8  O6  UNL     1      44.091  49.787  47.815  1.00  0.00    -0.390 OA
ATOM      9  H6  UNL     1      44.948  49.379  47.819  1.00  0.00     0.210 HD
ENDBRANCH   7   8
BRANCH   7  10
HETATM   10  C10 UNL     1      42.629  50.871  49.339  1.00  0.00     0.173 C 
BRANCH  10  11
HETATM   11  O7  UNL     1      42.596  50.103  50.528  1.00  0.00    -0.391 OA
ATOM     12  H7  UNL     1      42.190  50.645  51.194  1.00  0.00     0.210 HD
ENDBRANCH  10  11
BRANCH  10  13
HETATM   13  C11 UNL     1      41.589  50.234  48.428  1.00  0.00     0.198 C 
BRANCH  13  14
HETATM   14  O8  UNL     1      41.444  50.982  47.262  1.00  0.00    -0.398 OA
ATOM     15  H8  UNL     1      41.600  50.438  46.499  1.00  0.00     0.209 HD
ENDBRANCH  13  14
ENDBRANCH  10  13
ENDBRANCH   7  10
ENDBRANCH   6   7
BRANCH   1  16
HETATM   16  N1  UNL     1      46.781  51.129  48.678  1.00  0.00    -0.351 N 
HETATM   17  C2  UNL     1      47.329  49.823  48.653  1.00  0.00     0.214 C 
HETATM   18  C1  UNL     1      48.220  49.324  49.755  1.00  0.00     0.117 C 
HETATM   19  O1  UNL     1      47.055  49.083  47.682  1.00  0.00    -0.274 OA
ATOM     20  H1  UNL     1      47.006  51.730  49.470  1.00  0.00     0.163 HD
ENDBRANCH   1  16
BRANCH   2  21
HETATM   21  O2  UNL     1      47.687  52.373  46.294  1.00  0.00    -0.389 OA
ATOM     22  H2  UNL     1      48.358  53.045  46.311  1.00  0.00     0.210 HD
ENDBRANCH   2  21
BRANCH   4  23
HETATM   23  C7  UNL     1      43.457  54.034  45.306  1.00  0.00     0.233 C 
HETATM   24  O3  UNL     1      43.652  53.953  44.084  1.00  0.00    -0.642 OA
HETATM   25  O4  UNL     1      42.354  54.762  45.737  1.00  0.00    -0.642 OA
ENDBRANCH   4  23
TORSDOF 9
ENDMDL
