MODEL 4
REMARK VINA RESULT: -6.314289671      2.511      5.045
REMARK  9 active torsions:
REMARK  status: ('A' for Active; 'I' for Inactive)
REMARK       I    between atoms: C2_2  and  N1_4 
REMARK    1  A    between atoms: N1_4  and  C3_6 
REMARK    2  A    between atoms: C4_7  and  O2_8 
REMARK    3  A    between atoms: C6_11  and  C7_12 
REMARK    4  A    between atoms: C8_16  and  C9_17 
REMARK    5  A    between atoms: C9_17  and  O6_18 
REMARK    6  A    between atoms: C9_17  and  C10_20 
REMARK    7  A    between atoms: C10_20  and  O7_21 
REMARK    8  A    between atoms: C10_20  and  C11_23 
REMARK    9  A    between atoms: C11_23  and  O8_24 
ROOT
HETATM    1  C3  UNL     1      45.929  51.285  49.382  1.00  0.00     0.149 C 
HETATM    2  C4  UNL     1      47.295  51.602  49.933  1.00  0.00     0.169 C 
HETATM    3  C5  UNL     1      48.295  51.137  48.949  1.00  0.00     0.050 C 
HETATM    4  C6  UNL     1      48.001  51.085  47.668  1.00  0.00     0.144 C 
HETATM    5  O5  UNL     1      46.767  51.456  47.185  1.00  0.00    -0.335 OA
HETATM    6  C8  UNL     1      45.715  51.903  48.005  1.00  0.00     0.186 C 
ENDROOT
BRANCH   6   7
HETATM    7  C9  UNL     1      44.372  51.436  47.557  1.00  0.00     0.180 C 
BRANCH   7   8
HETATM    8  O6  UNL     1      44.348  50.058  47.433  1.00  0.00    -0.390 OA
ATOM      9  H6  UNL     1      43.479  49.756  47.197  1.00  0.00     0.210 HD
ENDBRANCH   7   8
BRANCH   7  10
HETATM   10  C10 UNL     1      43.843  52.101  46.337  1.00  0.00     0.173 C 
BRANCH  10  11
HETATM   11  O7  UNL     1      44.865  52.035  45.359  1.00  0.00    -0.391 OA
ATOM     12  H7  UNL     1      44.551  51.460  44.672  1.00  0.00     0.210 HD
ENDBRANCH  10  11
BRANCH  10  13
HETATM   13  C11 UNL     1      43.590  53.587  46.546  1.00  0.00     0.198 C 
BRANCH  13  14
HETATM   14  O8  UNL     1      42.332  53.791  47.106  1.00  0.00    -0.398 OA
ATOM     15  H8  UNL     1      42.354  53.623  48.040  1.00  0.00     0.209 HD
ENDBRANCH  13  14
ENDBRANCH  10  13
ENDBRANCH   7  10
ENDBRANCH   6   7
BRANCH   1  16
HETATM   16  N1  UNL     1      44.942  51.877  50.262  1.00  0.00    -0.351 N 
HETATM   17  C2  UNL     1      44.202  51.140  51.220  1.00  0.00     0.214 C 
HETATM   18  C1  UNL     1      43.189  51.805  52.109  1.00  0.00     0.117 C 
HETATM   19  O1  UNL     1      44.411  49.910  51.313  1.00  0.00    -0.274 OA
ATOM     20  H1  UNL     1      44.770  52.879  50.188  1.00  0.00     0.163 HD
ENDBRANCH   1  16
BRANCH   2  21
HETATM   21  O2  UNL     1      47.454  50.855  51.099  1.00  0.00    -0.389 OA
ATOM     22  H2  UNL     1      47.122  51.379  51.818  1.00  0.00     0.210 HD
ENDBRANCH   2  21
BRANCH   4  23
HETATM   23  C7  UNL     1      49.044  50.612  46.735  1.00  0.00     0.233 C 
HETATM   24  O3  UNL     1      49.652  51.390  45.985  1.00  0.00    -0.642 OA
HETATM   25  O4  UNL     1      49.375  49.263  46.672  1.00  0.00    -0.642 OA
ENDBRANCH   4  23
TORSDOF 9
ENDMDL
