MODEL 2
REMARK VINA RESULT: -7.210685214      0.916      1.341
REMARK  9 active torsions:
REMARK  status: ('A' for Active; 'I' for Inactive)
REMARK       I    between atoms: C2_2  and  N1_4 
REMARK    1  A    between atoms: N1_4  and  C3_6 
REMARK    2  A    between atoms: C4_7  and  O2_8 
REMARK    3  A    between atoms: C6_11  and  C7_12 
REMARK    4  A    between atoms: C8_16  and  C9_17 
REMARK    5  A    between atoms: C9_17  and  O6_18 
REMARK    6  A    between atoms: C9_17  and  C10_20 
REMARK    7  A    between atoms: C10_20  and  O7_21 
REMARK    8  A    between atoms: C10_20  and  C11_23 
REMARK    9  A    between atoms: C11_23  and  O8_24 
ROOT
HETATM    1  C3  UNL     1      42.810  50.853  50.105  1.00  0.00     0.149 C 
HETATM    2  C4  UNL     1      41.607  50.584  49.239  1.00  0.00     0.169 C 
HETATM    3  C5  UNL     1      41.816  51.280  47.953  1.00  0.00     0.050 C 
HETATM    4  C6  UNL     1      43.031  51.495  47.496  1.00  0.00     0.144 C 
HETATM    5  O5  UNL     1      44.152  51.089  48.182  1.00  0.00    -0.335 OA
HETATM    6  C8  UNL     1      44.106  50.430  49.424  1.00  0.00     0.186 C 
ENDROOT
BRANCH   6   7
HETATM    7  C9  UNL     1      45.201  50.833  50.353  1.00  0.00     0.180 C 
BRANCH   7   8
HETATM    8  O6  UNL     1      45.147  52.191  50.614  1.00  0.00    -0.390 OA
ATOM      9  H6  UNL     1      45.984  52.506  50.932  1.00  0.00     0.210 HD
ENDBRANCH   7   8
BRANCH   7  10
HETATM   10  C10 UNL     1      46.567  50.411  49.944  1.00  0.00     0.173 C 
BRANCH  10  11
HETATM   11  O7  UNL     1      46.872  51.110  48.752  1.00  0.00    -0.391 OA
ATOM     12  H7  UNL     1      47.469  50.562  48.257  1.00  0.00     0.210 HD
ENDBRANCH  10  11
BRANCH  10  13
HETATM   13  C11 UNL     1      46.635  48.938  49.568  1.00  0.00     0.198 C 
BRANCH  13  14
HETATM   14  O8  UNL     1      46.559  48.142  50.708  1.00  0.00    -0.398 OA
ATOM     15  H8  UNL     1      45.724  47.692  50.743  1.00  0.00     0.209 HD
ENDBRANCH  13  14
ENDBRANCH  10  13
ENDBRANCH   7  10
ENDBRANCH   6   7
BRANCH   1  16
HETATM   16  N1  UNL     1      42.688  50.048  51.304  1.00  0.00    -0.351 N 
HETATM   17  C2  UNL     1      42.689  50.587  52.615  1.00  0.00     0.214 C 
HETATM   18  C1  UNL     1      42.559  49.706  53.825  1.00  0.00     0.117 C 
HETATM   19  O1  UNL     1      42.801  51.826  52.747  1.00  0.00    -0.274 OA
ATOM     20  H1  UNL     1      42.596  49.038  51.199  1.00  0.00     0.163 HD
ENDBRANCH   1  16
BRANCH   2  21
HETATM   21  O2  UNL     1      40.506  51.160  49.870  1.00  0.00    -0.389 OA
ATOM     22  H2  UNL     1      40.185  50.533  50.507  1.00  0.00     0.210 HD
ENDBRANCH   2  21
BRANCH   4  23
HETATM   23  C7  UNL     1      43.173  52.196  46.204  1.00  0.00     0.233 C 
HETATM   24  O3  UNL     1      42.743  53.347  46.035  1.00  0.00    -0.642 OA
HETATM   25  O4  UNL     1      43.803  51.577  45.130  1.00  0.00    -0.642 OA
ENDBRANCH   4  23
TORSDOF 9
ENDMDL
