MODEL 1
REMARK VINA RESULT: -7.274415390      0.000      0.000
REMARK  9 active torsions:
REMARK  status: ('A' for Active; 'I' for Inactive)
REMARK       I    between atoms: C2_2  and  N1_4 
REMARK    1  A    between atoms: N1_4  and  C3_6 
REMARK    2  A    between atoms: C4_7  and  O2_8 
REMARK    3  A    between atoms: C6_11  and  C7_12 
REMARK    4  A    between atoms: C8_16  and  C9_17 
REMARK    5  A    between atoms: C9_17  and  O6_18 
REMARK    6  A    between atoms: C9_17  and  C10_20 
REMARK    7  A    between atoms: C10_20  and  O7_21 
REMARK    8  A    between atoms: C10_20  and  C11_23 
REMARK    9  A    between atoms: C11_23  and  O8_24 
ROOT
HETATM    1  C3  UNL     1      42.840  50.986  50.149  1.00  0.00     0.149 C 
HETATM    2  C4  UNL     1      41.692  50.587  49.259  1.00  0.00     0.169 C 
HETATM    3  C5  UNL     1      41.865  51.280  47.965  1.00  0.00     0.050 C 
HETATM    4  C6  UNL     1      43.064  51.605  47.534  1.00  0.00     0.144 C 
HETATM    5  O5  UNL     1      44.202  51.322  48.255  1.00  0.00    -0.335 OA
HETATM    6  C8  UNL     1      44.188  50.681  49.507  1.00  0.00     0.186 C 
ENDROOT
BRANCH   6   7
HETATM    7  C9  UNL     1      45.214  51.205  50.454  1.00  0.00     0.180 C 
BRANCH   7   8
HETATM    8  O6  UNL     1      44.959  52.527  50.771  1.00  0.00    -0.390 OA
ATOM      9  H6  UNL     1      44.563  52.979  50.036  1.00  0.00     0.210 HD
ENDBRANCH   7   8
BRANCH   7  10
HETATM   10  C10 UNL     1      46.626  51.009  50.032  1.00  0.00     0.173 C 
BRANCH  10  11
HETATM   11  O7  UNL     1      47.086  49.831  50.669  1.00  0.00    -0.391 OA
ATOM     12  H7  UNL     1      47.042  49.990  51.604  1.00  0.00     0.210 HD
ENDBRANCH  10  11
BRANCH  10  13
HETATM   13  C11 UNL     1      47.544  52.115  50.533  1.00  0.00     0.198 C 
BRANCH  13  14
HETATM   14  O8  UNL     1      47.734  52.002  51.907  1.00  0.00    -0.398 OA
ATOM     15  H8  UNL     1      47.298  52.713  52.361  1.00  0.00     0.209 HD
ENDBRANCH  13  14
ENDBRANCH  10  13
ENDBRANCH   7  10
ENDBRANCH   6   7
BRANCH   1  16
HETATM   16  N1  UNL     1      42.766  50.193  51.358  1.00  0.00    -0.351 N 
HETATM   17  C2  UNL     1      42.690  50.750  52.659  1.00  0.00     0.214 C 
HETATM   18  C1  UNL     1      42.614  49.880  53.882  1.00  0.00     0.117 C 
HETATM   19  O1  UNL     1      42.685  51.996  52.772  1.00  0.00    -0.274 OA
ATOM     20  H1  UNL     1      42.768  49.177  51.269  1.00  0.00     0.163 HD
ENDBRANCH   1  16
BRANCH   2  21
HETATM   21  O2  UNL     1      40.523  51.063  49.852  1.00  0.00    -0.389 OA
ATOM     22  H2  UNL     1      39.793  50.645  49.411  1.00  0.00     0.210 HD
ENDBRANCH   2  21
BRANCH   4  23
HETATM   23  C7  UNL     1      43.171  52.297  46.233  1.00  0.00     0.233 C 
HETATM   24  O3  UNL     1      42.772  53.461  46.078  1.00  0.00    -0.642 OA
HETATM   25  O4  UNL     1      43.730  51.653  45.135  1.00  0.00    -0.642 OA
ENDBRANCH   4  23
TORSDOF 9
ENDMDL
