MODEL 14
REMARK VINA RESULT: -6.763596946      2.493      8.625
REMARK  14 active torsions:
REMARK  status: ('A' for Active; 'I' for Inactive)
REMARK    1  A    between atoms: C2_2  and  O1_3 
REMARK    2  A    between atoms: O1_3  and  C3_4 
REMARK    3  A    between atoms: C3_4  and  C4_6 
REMARK    4  A    between atoms: C4_6  and  N1_8 
REMARK       I    between atoms: N1_8  and  C6_10 
REMARK    5  A    between atoms: C6_10  and  C7_12 
REMARK    6  A    between atoms: C7_12  and  C8_13 
REMARK    7  A    between atoms: C7_12  and  N2_17 
REMARK    8  A    between atoms: C8_13  and  C9_14 
REMARK       I    between atoms: N2_17  and  C12_19 
REMARK    9  A    between atoms: C12_19  and  C13_21 
REMARK   10  A    between atoms: C13_21  and  C14_22 
REMARK   11  A    between atoms: C13_21  and  C16_29 
REMARK   12  A    between atoms: C14_22  and  C15_23 
REMARK       I    between atoms: C15_23  and  N3_25 
REMARK   13  A    between atoms: N3_25  and  O6_27 
REMARK   14  A    between atoms: C16_29  and  C17_30 
ROOT
HETATM    1  C7  UNL     1      74.496   9.221   8.338  1.00  0.00     0.177 C 
ENDROOT
BRANCH   1   2
HETATM    2  C6  UNL     1      74.552   8.093   7.391  1.00  0.00     0.241 C 
HETATM    3  N1  UNL     1      74.827   8.143   6.012  1.00  0.00    -0.346 N 
ATOM      4  H1  UNL     1      75.007   9.053   5.588  1.00  0.00     0.163 HD
HETATM    5  O3  UNL     1      74.325   6.905   7.839  1.00  0.00    -0.271 OA
BRANCH   3   6
HETATM    6  C4  UNL     1      74.869   6.968   5.160  1.00  0.00     0.180 C 
HETATM    7  C5  UNL     1      74.438   7.296   3.744  1.00  0.00     0.043 C 
BRANCH   6   8
HETATM    8  C3  UNL     1      76.217   6.367   5.108  1.00  0.00     0.281 C 
HETATM    9  O2  UNL     1      77.031   6.808   4.257  1.00  0.00    -0.263 OA
BRANCH   8  10
HETATM   10  O1  UNL     1      76.604   5.360   5.945  1.00  0.00    -0.320 OA
BRANCH  10  11
HETATM   11  C2  UNL     1      76.067   4.050   5.917  1.00  0.00     0.174 C 
HETATM   12  C1  UNL     1      77.071   3.012   5.459  1.00  0.00     0.034 C 
ENDBRANCH  10  11
ENDBRANCH   8  10
ENDBRANCH   6   8
ENDBRANCH   3   6
ENDBRANCH   1   2
BRANCH   1  13
HETATM   13  C8  UNL     1      75.804   9.859   8.672  1.00  0.00     0.038 C 
BRANCH  13  14
HETATM   14  C9  UNL     1      76.200  11.008   7.839  1.00  0.00    -0.020 C 
HETATM   15  C10 UNL     1      75.044  11.944   7.515  1.00  0.00     0.009 C 
HETATM   16  C11 UNL     1      77.099  11.882   8.762  1.00  0.00     0.009 C 
ENDBRANCH  13  14
ENDBRANCH   1  13
BRANCH   1  17
HETATM   17  N2  UNL     1      73.838   8.785   9.579  1.00  0.00    -0.347 N 
HETATM   18  C12 UNL     1      72.451   8.916   9.753  1.00  0.00     0.223 C 
HETATM   19  O4  UNL     1      71.795   9.415   8.804  1.00  0.00    -0.273 OA
ATOM     20  H2  UNL     1      74.399   8.380  10.329  1.00  0.00     0.163 HD
BRANCH  18  21
HETATM   21  C13 UNL     1      71.808   8.469  11.038  1.00  0.00     0.087 C 
BRANCH  21  22
HETATM   22  C14 UNL     1      70.641   9.321  11.366  1.00  0.00     0.119 C 
BRANCH  22  23
HETATM   23  C15 UNL     1      70.721  10.188  12.525  1.00  0.00     0.241 C 
HETATM   24  O5  UNL     1      71.799  10.436  13.118  1.00  0.00    -0.271 OA
HETATM   25  N3  UNL     1      69.575  10.841  13.098  1.00  0.00    -0.237 N 
ATOM     26  H3  UNL     1      68.659  10.692  12.674  1.00  0.00     0.197 HD
BRANCH  25  27
HETATM   27  O6  UNL     1      69.669  11.638  14.170  1.00  0.00    -0.287 OA
ATOM     28  H6  UNL     1      69.989  11.325  15.008  1.00  0.00     0.244 HD
ENDBRANCH  25  27
ENDBRANCH  22  23
ENDBRANCH  21  22
BRANCH  21  29
HETATM   29  C16 UNL     1      71.524   7.022  10.840  1.00  0.00     0.018 C 
BRANCH  29  30
HETATM   30  C17 UNL     1      71.571   6.099  11.975  1.00  0.00    -0.022 C 
HETATM   31  C18 UNL     1      71.214   4.670  11.670  1.00  0.00     0.009 C 
HETATM   32  C19 UNL     1      72.791   6.269  12.827  1.00  0.00     0.009 C 
ENDBRANCH  29  30
ENDBRANCH  21  29
ENDBRANCH  18  21
ENDBRANCH   1  17
TORSDOF 14
ENDMDL
