MODEL 5
REMARK VINA RESULT: -7.235445704      2.607      8.676
REMARK  14 active torsions:
REMARK  status: ('A' for Active; 'I' for Inactive)
REMARK    1  A    between atoms: C2_2  and  O1_3 
REMARK    2  A    between atoms: O1_3  and  C3_4 
REMARK    3  A    between atoms: C3_4  and  C4_6 
REMARK    4  A    between atoms: C4_6  and  N1_8 
REMARK       I    between atoms: N1_8  and  C6_10 
REMARK    5  A    between atoms: C6_10  and  C7_12 
REMARK    6  A    between atoms: C7_12  and  C8_13 
REMARK    7  A    between atoms: C7_12  and  N2_17 
REMARK    8  A    between atoms: C8_13  and  C9_14 
REMARK       I    between atoms: N2_17  and  C12_19 
REMARK    9  A    between atoms: C12_19  and  C13_21 
REMARK   10  A    between atoms: C13_21  and  C14_22 
REMARK   11  A    between atoms: C13_21  and  C16_29 
REMARK   12  A    between atoms: C14_22  and  C15_23 
REMARK       I    between atoms: C15_23  and  N3_25 
REMARK   13  A    between atoms: N3_25  and  O6_27 
REMARK   14  A    between atoms: C16_29  and  C17_30 
ROOT
HETATM    1  C7  UNL     1      74.677   9.353   8.408  1.00  0.00     0.177 C 
ENDROOT
BRANCH   1   2
HETATM    2  C6  UNL     1      75.100   8.233   7.549  1.00  0.00     0.241 C 
HETATM    3  N1  UNL     1      74.712   7.975   6.221  1.00  0.00    -0.346 N 
ATOM      4  H1  UNL     1      74.057   8.618   5.776  1.00  0.00     0.163 HD
HETATM    5  O3  UNL     1      75.920   7.363   8.034  1.00  0.00    -0.271 OA
BRANCH   3   6
HETATM    6  C4  UNL     1      75.195   6.843   5.450  1.00  0.00     0.180 C 
HETATM    7  C5  UNL     1      74.373   5.598   5.721  1.00  0.00     0.043 C 
BRANCH   6   8
HETATM    8  C3  UNL     1      75.170   7.109   3.998  1.00  0.00     0.281 C 
HETATM    9  O2  UNL     1      74.805   8.247   3.609  1.00  0.00    -0.263 OA
BRANCH   8  10
HETATM   10  O1  UNL     1      75.529   6.169   3.073  1.00  0.00    -0.320 OA
BRANCH  10  11
HETATM   11  C2  UNL     1      76.813   5.579   2.993  1.00  0.00     0.174 C 
HETATM   12  C1  UNL     1      76.790   4.085   3.247  1.00  0.00     0.034 C 
ENDBRANCH  10  11
ENDBRANCH   8  10
ENDBRANCH   6   8
ENDBRANCH   3   6
ENDBRANCH   1   2
BRANCH   1  13
HETATM   13  C8  UNL     1      75.760  10.279   8.855  1.00  0.00     0.038 C 
BRANCH  13  14
HETATM   14  C9  UNL     1      75.557  11.708   8.561  1.00  0.00    -0.020 C 
HETATM   15  C10 UNL     1      74.690  11.953   7.333  1.00  0.00     0.009 C 
HETATM   16  C11 UNL     1      74.663  12.234   9.722  1.00  0.00     0.009 C 
ENDBRANCH  13  14
ENDBRANCH   1  13
BRANCH   1  17
HETATM   17  N2  UNL     1      73.972   8.825   9.587  1.00  0.00    -0.347 N 
HETATM   18  C12 UNL     1      72.579   8.940   9.713  1.00  0.00     0.223 C 
HETATM   19  O4  UNL     1      71.958   9.505   8.778  1.00  0.00    -0.273 OA
ATOM     20  H2  UNL     1      74.505   8.367  10.326  1.00  0.00     0.163 HD
BRANCH  18  21
HETATM   21  C13 UNL     1      71.888   8.398  10.936  1.00  0.00     0.087 C 
BRANCH  21  22
HETATM   22  C14 UNL     1      70.702   9.218  11.275  1.00  0.00     0.119 C 
BRANCH  22  23
HETATM   23  C15 UNL     1      70.763  10.074  12.444  1.00  0.00     0.241 C 
HETATM   24  O5  UNL     1      71.834  10.331  13.044  1.00  0.00    -0.271 OA
HETATM   25  N3  UNL     1      69.604  10.704  13.018  1.00  0.00    -0.237 N 
ATOM     26  H3  UNL     1      68.692  10.545  12.588  1.00  0.00     0.197 HD
BRANCH  25  27
HETATM   27  O6  UNL     1      69.681  11.491  14.099  1.00  0.00    -0.287 OA
ATOM     28  H6  UNL     1      69.374  12.389  14.094  1.00  0.00     0.244 HD
ENDBRANCH  25  27
ENDBRANCH  22  23
ENDBRANCH  21  22
BRANCH  21  29
HETATM   29  C16 UNL     1      71.625   6.968  10.623  1.00  0.00     0.018 C 
BRANCH  29  30
HETATM   30  C17 UNL     1      72.072   5.918  11.540  1.00  0.00    -0.022 C 
HETATM   31  C18 UNL     1      72.757   6.393  12.792  1.00  0.00     0.009 C 
HETATM   32  C19 UNL     1      71.049   4.846  11.757  1.00  0.00     0.009 C 
ENDBRANCH  29  30
ENDBRANCH  21  29
ENDBRANCH  18  21
ENDBRANCH   1  17
TORSDOF 14
ENDMDL
