MODEL 1
REMARK VINA RESULT: -7.341616892      0.000      0.000
REMARK  14 active torsions:
REMARK  status: ('A' for Active; 'I' for Inactive)
REMARK    1  A    between atoms: C2_2  and  O1_3 
REMARK    2  A    between atoms: O1_3  and  C3_4 
REMARK    3  A    between atoms: C3_4  and  C4_6 
REMARK    4  A    between atoms: C4_6  and  N1_8 
REMARK       I    between atoms: N1_8  and  C6_10 
REMARK    5  A    between atoms: C6_10  and  C7_12 
REMARK    6  A    between atoms: C7_12  and  C8_13 
REMARK    7  A    between atoms: C7_12  and  N2_17 
REMARK    8  A    between atoms: C8_13  and  C9_14 
REMARK       I    between atoms: N2_17  and  C12_19 
REMARK    9  A    between atoms: C12_19  and  C13_21 
REMARK   10  A    between atoms: C13_21  and  C14_22 
REMARK   11  A    between atoms: C13_21  and  C16_29 
REMARK   12  A    between atoms: C14_22  and  C15_23 
REMARK       I    between atoms: C15_23  and  N3_25 
REMARK   13  A    between atoms: N3_25  and  O6_27 
REMARK   14  A    between atoms: C16_29  and  C17_30 
ROOT
HETATM    1  C7  UNL     1      71.886   8.609  11.613  1.00  0.00     0.177 C 
ENDROOT
BRANCH   1   2
HETATM    2  C6  UNL     1      71.759   9.944  12.224  1.00  0.00     0.241 C 
HETATM    3  N1  UNL     1      70.900  10.989  11.836  1.00  0.00    -0.346 N 
ATOM      4  H1  UNL     1      70.284  10.835  11.037  1.00  0.00     0.163 HD
HETATM    5  O3  UNL     1      72.509  10.230  13.234  1.00  0.00    -0.271 OA
BRANCH   3   6
HETATM    6  C4  UNL     1      70.842  12.273  12.511  1.00  0.00     0.180 C 
HETATM    7  C5  UNL     1      70.584  13.402  11.533  1.00  0.00     0.043 C 
BRANCH   6   8
HETATM    8  C3  UNL     1      69.791  12.308  13.548  1.00  0.00     0.281 C 
HETATM    9  O2  UNL     1      69.384  11.216  14.019  1.00  0.00    -0.263 OA
BRANCH   8  10
HETATM   10  O1  UNL     1      69.254  13.476  14.009  1.00  0.00    -0.320 OA
BRANCH  10  11
HETATM   11  C2  UNL     1      68.489  13.588  15.196  1.00  0.00     0.174 C 
HETATM   12  C1  UNL     1      69.224  14.319  16.301  1.00  0.00     0.034 C 
ENDBRANCH  10  11
ENDBRANCH   8  10
ENDBRANCH   6   8
ENDBRANCH   3   6
ENDBRANCH   1   2
BRANCH   1  13
HETATM   13  C8  UNL     1      72.170   7.485  12.553  1.00  0.00     0.038 C 
BRANCH  13  14
HETATM   14  C9  UNL     1      72.301   6.147  11.948  1.00  0.00    -0.020 C 
HETATM   15  C10 UNL     1      72.637   5.059  12.958  1.00  0.00     0.009 C 
HETATM   16  C11 UNL     1      70.858   5.767  11.503  1.00  0.00     0.009 C 
ENDBRANCH  13  14
ENDBRANCH   1  13
BRANCH   1  17
HETATM   17  N2  UNL     1      72.924   8.645  10.571  1.00  0.00    -0.347 N 
HETATM   18  C12 UNL     1      72.614   8.991   9.246  1.00  0.00     0.223 C 
HETATM   19  O4  UNL     1      71.417   9.275   8.988  1.00  0.00    -0.273 OA
ATOM     20  H2  UNL     1      73.887   8.414  10.815  1.00  0.00     0.163 HD
BRANCH  18  21
HETATM   21  C13 UNL     1      73.697   9.010   8.201  1.00  0.00     0.087 C 
BRANCH  21  22
HETATM   22  C14 UNL     1      74.864   9.792   8.669  1.00  0.00     0.119 C 
BRANCH  22  23
HETATM   23  C15 UNL     1      75.123  11.081   8.058  1.00  0.00     0.241 C 
HETATM   24  O5  UNL     1      76.244  11.644   8.103  1.00  0.00    -0.271 OA
HETATM   25  N3  UNL     1      74.121  11.831   7.349  1.00  0.00    -0.237 N 
ATOM     26  H3  UNL     1      73.181  11.442   7.267  1.00  0.00     0.197 HD
BRANCH  25  27
HETATM   27  O6  UNL     1      74.379  13.021   6.793  1.00  0.00    -0.287 OA
ATOM     28  H6  UNL     1      73.703  13.673   6.655  1.00  0.00     0.244 HD
ENDBRANCH  25  27
ENDBRANCH  22  23
ENDBRANCH  21  22
BRANCH  21  29
HETATM   29  C16 UNL     1      73.953   7.577   7.891  1.00  0.00     0.018 C 
BRANCH  29  30
HETATM   30  C17 UNL     1      74.790   7.208   6.749  1.00  0.00    -0.022 C 
HETATM   31  C18 UNL     1      76.137   6.630   7.087  1.00  0.00     0.009 C 
HETATM   32  C19 UNL     1      74.044   6.467   5.682  1.00  0.00     0.009 C 
ENDBRANCH  29  30
ENDBRANCH  21  29
ENDBRANCH  18  21
ENDBRANCH   1  17
TORSDOF 14
ENDMDL
