MODEL 3
REMARK VINA RESULT: -7.255406822      1.853      7.856
REMARK  14 active torsions:
REMARK  status: ('A' for Active; 'I' for Inactive)
REMARK    1  A    between atoms: C2_2  and  O1_3 
REMARK    2  A    between atoms: O1_3  and  C3_4 
REMARK    3  A    between atoms: C3_4  and  C4_6 
REMARK    4  A    between atoms: C4_6  and  N1_8 
REMARK       I    between atoms: N1_8  and  C6_10 
REMARK    5  A    between atoms: C6_10  and  C7_12 
REMARK    6  A    between atoms: C7_12  and  C8_13 
REMARK    7  A    between atoms: C7_12  and  N2_17 
REMARK    8  A    between atoms: C8_13  and  C9_14 
REMARK       I    between atoms: N2_17  and  C12_19 
REMARK    9  A    between atoms: C12_19  and  C13_21 
REMARK   10  A    between atoms: C13_21  and  C14_22 
REMARK   11  A    between atoms: C13_21  and  C16_29 
REMARK   12  A    between atoms: C14_22  and  C15_23 
REMARK       I    between atoms: C15_23  and  N3_25 
REMARK   13  A    between atoms: N3_25  and  O6_27 
REMARK   14  A    between atoms: C16_29  and  C17_30 
ROOT
HETATM    1  C7  UNL     1      71.646   9.007  10.937  1.00  0.00     0.177 C 
ENDROOT
BRANCH   1   2
HETATM    2  C6  UNL     1      72.494   9.140   9.738  1.00  0.00     0.241 C 
HETATM    3  N1  UNL     1      73.894   9.019   9.660  1.00  0.00    -0.346 N 
ATOM      4  H1  UNL     1      74.411   8.822  10.517  1.00  0.00     0.163 HD
HETATM    5  O3  UNL     1      71.926   9.401   8.611  1.00  0.00    -0.271 OA
BRANCH   3   6
HETATM    6  C4  UNL     1      74.643   9.158   8.424  1.00  0.00     0.180 C 
HETATM    7  C5  UNL     1      75.893   9.992   8.625  1.00  0.00     0.043 C 
BRANCH   6   8
HETATM    8  C3  UNL     1      75.042   7.851   7.865  1.00  0.00     0.281 C 
HETATM    9  O2  UNL     1      76.246   7.504   7.966  1.00  0.00    -0.263 OA
BRANCH   8  10
HETATM   10  O1  UNL     1      74.155   7.015   7.248  1.00  0.00    -0.320 OA
BRANCH  10  11
HETATM   11  C2  UNL     1      74.458   6.235   6.106  1.00  0.00     0.174 C 
HETATM   12  C1  UNL     1      73.959   6.860   4.819  1.00  0.00     0.034 C 
ENDBRANCH  10  11
ENDBRANCH   8  10
ENDBRANCH   6   8
ENDBRANCH   3   6
ENDBRANCH   1   2
BRANCH   1  13
HETATM   13  C8  UNL     1      70.628   7.916  10.898  1.00  0.00     0.038 C 
BRANCH  13  14
HETATM   14  C9  UNL     1      70.889   6.751  11.762  1.00  0.00    -0.020 C 
HETATM   15  C10 UNL     1      71.153   5.470  10.983  1.00  0.00     0.009 C 
HETATM   16  C11 UNL     1      72.269   7.042  12.421  1.00  0.00     0.009 C 
ENDBRANCH  13  14
ENDBRANCH   1  13
BRANCH   1  17
HETATM   17  N2  UNL     1      70.975  10.289  11.204  1.00  0.00    -0.347 N 
HETATM   18  C12 UNL     1      71.242  11.020  12.372  1.00  0.00     0.223 C 
HETATM   19  O4  UNL     1      72.081  10.541  13.175  1.00  0.00    -0.273 OA
ATOM     20  H2  UNL     1      70.302  10.652  10.529  1.00  0.00     0.163 HD
BRANCH  18  21
HETATM   21  C13 UNL     1      70.531  12.324  12.621  1.00  0.00     0.087 C 
BRANCH  21  22
HETATM   22  C14 UNL     1      71.024  12.960  13.865  1.00  0.00     0.119 C 
BRANCH  22  23
HETATM   23  C15 UNL     1      70.054  13.400  14.849  1.00  0.00     0.241 C 
HETATM   24  O5  UNL     1      70.363  14.088  15.851  1.00  0.00    -0.271 OA
HETATM   25  N3  UNL     1      68.652  13.086  14.765  1.00  0.00    -0.237 N 
ATOM     26  H3  UNL     1      68.318  12.529  13.978  1.00  0.00     0.197 HD
BRANCH  25  27
HETATM   27  O6  UNL     1      67.772  13.501  15.685  1.00  0.00    -0.287 OA
ATOM     28  H6  UNL     1      67.047  12.959  15.973  1.00  0.00     0.244 HD
ENDBRANCH  25  27
ENDBRANCH  22  23
ENDBRANCH  21  22
BRANCH  21  29
HETATM   29  C16 UNL     1      70.718  13.106  11.370  1.00  0.00     0.018 C 
BRANCH  29  30
HETATM   30  C17 UNL     1      70.265  14.496  11.295  1.00  0.00    -0.022 C 
HETATM   31  C18 UNL     1      71.351  15.537  11.289  1.00  0.00     0.009 C 
HETATM   32  C19 UNL     1      69.188  14.713  10.277  1.00  0.00     0.009 C 
ENDBRANCH  29  30
ENDBRANCH  21  29
ENDBRANCH  18  21
ENDBRANCH   1  17
TORSDOF 14
ENDMDL
