MODEL 12
REMARK VINA RESULT: -6.842077143      2.480      8.305
REMARK  14 active torsions:
REMARK  status: ('A' for Active; 'I' for Inactive)
REMARK    1  A    between atoms: C2_2  and  O1_3 
REMARK    2  A    between atoms: O1_3  and  C3_4 
REMARK    3  A    between atoms: C3_4  and  C4_6 
REMARK    4  A    between atoms: C4_6  and  N1_8 
REMARK       I    between atoms: N1_8  and  C6_10 
REMARK    5  A    between atoms: C6_10  and  C7_12 
REMARK    6  A    between atoms: C7_12  and  C8_13 
REMARK    7  A    between atoms: C7_12  and  N2_17 
REMARK    8  A    between atoms: C8_13  and  C9_14 
REMARK       I    between atoms: N2_17  and  C12_19 
REMARK    9  A    between atoms: C12_19  and  C13_21 
REMARK   10  A    between atoms: C13_21  and  C14_22 
REMARK   11  A    between atoms: C13_21  and  C16_29 
REMARK   12  A    between atoms: C14_22  and  C15_23 
REMARK       I    between atoms: C15_23  and  N3_25 
REMARK   13  A    between atoms: N3_25  and  O6_27 
REMARK   14  A    between atoms: C16_29  and  C17_30 
ROOT
HETATM    1  C7  UNL     1      74.639   9.375   8.410  1.00  0.00     0.177 C 
ENDROOT
BRANCH   1   2
HETATM    2  C6  UNL     1      74.862   8.281   7.448  1.00  0.00     0.241 C 
HETATM    3  N1  UNL     1      74.810   8.350   6.043  1.00  0.00    -0.346 N 
ATOM      4  H1  UNL     1      74.588   9.247   5.611  1.00  0.00     0.163 HD
HETATM    5  O3  UNL     1      75.135   7.107   7.906  1.00  0.00    -0.271 OA
BRANCH   3   6
HETATM    6  C4  UNL     1      75.054   7.212   5.175  1.00  0.00     0.180 C 
HETATM    7  C5  UNL     1      73.894   6.980   4.226  1.00  0.00     0.043 C 
BRANCH   6   8
HETATM    8  C3  UNL     1      76.283   7.377   4.374  1.00  0.00     0.281 C 
HETATM    9  O2  UNL     1      76.376   6.744   3.292  1.00  0.00    -0.263 OA
BRANCH   8  10
HETATM   10  O1  UNL     1      77.312   8.185   4.766  1.00  0.00    -0.320 OA
BRANCH  10  11
HETATM   11  C2  UNL     1      78.335   7.795   5.663  1.00  0.00     0.174 C 
HETATM   12  C1  UNL     1      78.623   8.843   6.718  1.00  0.00     0.034 C 
ENDBRANCH  10  11
ENDBRANCH   8  10
ENDBRANCH   6   8
ENDBRANCH   3   6
ENDBRANCH   1   2
BRANCH   1  13
HETATM   13  C8  UNL     1      75.857  10.126   8.837  1.00  0.00     0.038 C 
BRANCH  13  14
HETATM   14  C9  UNL     1      75.866  11.571   8.548  1.00  0.00    -0.020 C 
HETATM   15  C10 UNL     1      74.804  11.990   7.541  1.00  0.00     0.009 C 
HETATM   16  C11 UNL     1      75.376  12.245   9.863  1.00  0.00     0.009 C 
ENDBRANCH  13  14
ENDBRANCH   1  13
BRANCH   1  17
HETATM   17  N2  UNL     1      73.953   8.847   9.600  1.00  0.00    -0.347 N 
HETATM   18  C12 UNL     1      72.555   8.904   9.718  1.00  0.00     0.223 C 
HETATM   19  O4  UNL     1      71.915   9.418   8.766  1.00  0.00    -0.273 OA
ATOM     20  H2  UNL     1      74.502   8.432  10.353  1.00  0.00     0.163 HD
BRANCH  18  21
HETATM   21  C13 UNL     1      71.883   8.364  10.952  1.00  0.00     0.087 C 
BRANCH  21  22
HETATM   22  C14 UNL     1      70.694   9.177  11.300  1.00  0.00     0.119 C 
BRANCH  22  23
HETATM   23  C15 UNL     1      70.771  10.059  12.448  1.00  0.00     0.241 C 
HETATM   24  O5  UNL     1      71.853  10.347  13.015  1.00  0.00    -0.271 OA
HETATM   25  N3  UNL     1      69.617  10.682  13.040  1.00  0.00    -0.237 N 
ATOM     26  H3  UNL     1      68.697  10.499  12.637  1.00  0.00     0.197 HD
BRANCH  25  27
HETATM   27  O6  UNL     1      69.709  11.493  14.101  1.00  0.00    -0.287 OA
ATOM     28  H6  UNL     1      69.102  12.209  14.246  1.00  0.00     0.244 HD
ENDBRANCH  25  27
ENDBRANCH  22  23
ENDBRANCH  21  22
BRANCH  21  29
HETATM   29  C16 UNL     1      71.627   6.930  10.651  1.00  0.00     0.018 C 
BRANCH  29  30
HETATM   30  C17 UNL     1      72.069   5.891  11.582  1.00  0.00    -0.022 C 
HETATM   31  C18 UNL     1      72.768   6.378  12.821  1.00  0.00     0.009 C 
HETATM   32  C19 UNL     1      71.034   4.835  11.824  1.00  0.00     0.009 C 
ENDBRANCH  29  30
ENDBRANCH  21  29
ENDBRANCH  18  21
ENDBRANCH   1  17
TORSDOF 14
ENDMDL
