MODEL 2
REMARK VINA RESULT: -7.333214400      1.134      1.318
REMARK  14 active torsions:
REMARK  status: ('A' for Active; 'I' for Inactive)
REMARK    1  A    between atoms: C2_2  and  O1_3 
REMARK    2  A    between atoms: O1_3  and  C3_4 
REMARK    3  A    between atoms: C3_4  and  C4_6 
REMARK    4  A    between atoms: C4_6  and  N1_8 
REMARK       I    between atoms: N1_8  and  C6_10 
REMARK    5  A    between atoms: C6_10  and  C7_12 
REMARK    6  A    between atoms: C7_12  and  C8_13 
REMARK    7  A    between atoms: C7_12  and  N2_17 
REMARK    8  A    between atoms: C8_13  and  C9_14 
REMARK       I    between atoms: N2_17  and  C12_19 
REMARK    9  A    between atoms: C12_19  and  C13_21 
REMARK   10  A    between atoms: C13_21  and  C14_22 
REMARK   11  A    between atoms: C13_21  and  C16_29 
REMARK   12  A    between atoms: C14_22  and  C15_23 
REMARK       I    between atoms: C15_23  and  N3_25 
REMARK   13  A    between atoms: N3_25  and  O6_27 
REMARK   14  A    between atoms: C16_29  and  C17_30 
ROOT
HETATM    1  C7  UNL     1      71.873   8.694  11.664  1.00  0.00     0.177 C 
ENDROOT
BRANCH   1   2
HETATM    2  C6  UNL     1      71.764  10.027  12.283  1.00  0.00     0.241 C 
HETATM    3  N1  UNL     1      70.890  11.071  11.926  1.00  0.00    -0.346 N 
ATOM      4  H1  UNL     1      70.249  10.919  11.147  1.00  0.00     0.163 HD
HETATM    5  O3  UNL     1      72.546  10.311  13.269  1.00  0.00    -0.271 OA
BRANCH   3   6
HETATM    6  C4  UNL     1      70.852  12.353  12.607  1.00  0.00     0.180 C 
HETATM    7  C5  UNL     1      70.582  13.487  11.637  1.00  0.00     0.043 C 
BRANCH   6   8
HETATM    8  C3  UNL     1      69.821  12.390  13.663  1.00  0.00     0.281 C 
HETATM    9  O2  UNL     1      69.321  11.301  14.044  1.00  0.00    -0.263 OA
BRANCH   8  10
HETATM   10  O1  UNL     1      69.397  13.556  14.235  1.00  0.00    -0.320 OA
BRANCH  10  11
HETATM   11  C2  UNL     1      68.411  13.635  15.247  1.00  0.00     0.174 C 
HETATM   12  C1  UNL     1      68.906  14.335  16.496  1.00  0.00     0.034 C 
ENDBRANCH  10  11
ENDBRANCH   8  10
ENDBRANCH   6   8
ENDBRANCH   3   6
ENDBRANCH   1   2
BRANCH   1  13
HETATM   13  C8  UNL     1      72.310   7.588  12.567  1.00  0.00     0.038 C 
BRANCH  13  14
HETATM   14  C9  UNL     1      72.314   6.234  11.984  1.00  0.00    -0.020 C 
HETATM   15  C10 UNL     1      72.652   5.145  12.993  1.00  0.00     0.009 C 
HETATM   16  C11 UNL     1      70.823   5.939  11.648  1.00  0.00     0.009 C 
ENDBRANCH  13  14
ENDBRANCH   1  13
BRANCH   1  17
HETATM   17  N2  UNL     1      72.781   8.765  10.509  1.00  0.00    -0.347 N 
HETATM   18  C12 UNL     1      72.324   9.181   9.249  1.00  0.00     0.223 C 
HETATM   19  O4  UNL     1      71.112   9.497   9.149  1.00  0.00    -0.273 OA
ATOM     20  H2  UNL     1      73.761   8.506  10.625  1.00  0.00     0.163 HD
BRANCH  18  21
HETATM   21  C13 UNL     1      73.276   9.234   8.083  1.00  0.00     0.087 C 
BRANCH  21  22
HETATM   22  C14 UNL     1      74.018  10.516   8.070  1.00  0.00     0.119 C 
BRANCH  22  23
HETATM   23  C15 UNL     1      74.862  10.839   9.204  1.00  0.00     0.241 C 
HETATM   24  O5  UNL     1      74.477  11.560  10.156  1.00  0.00    -0.271 OA
HETATM   25  N3  UNL     1      76.213  10.364   9.339  1.00  0.00    -0.237 N 
ATOM     26  H3  UNL     1      76.602   9.770   8.606  1.00  0.00     0.197 HD
BRANCH  25  27
HETATM   27  O6  UNL     1      76.977  10.675  10.394  1.00  0.00    -0.287 OA
ATOM     28  H6  UNL     1      77.191  10.041  11.068  1.00  0.00     0.244 HD
ENDBRANCH  25  27
ENDBRANCH  22  23
ENDBRANCH  21  22
BRANCH  21  29
HETATM   29  C16 UNL     1      74.102   8.003   8.209  1.00  0.00     0.018 C 
BRANCH  29  30
HETATM   30  C17 UNL     1      74.936   7.557   7.092  1.00  0.00    -0.022 C 
HETATM   31  C18 UNL     1      76.379   7.285   7.422  1.00  0.00     0.009 C 
HETATM   32  C19 UNL     1      74.282   6.509   6.246  1.00  0.00     0.009 C 
ENDBRANCH  29  30
ENDBRANCH  21  29
ENDBRANCH  18  21
ENDBRANCH   1  17
TORSDOF 14
ENDMDL
