MODEL 20
REMARK VINA RESULT: -5.224974106      6.967      8.269
REMARK  5 active torsions:
REMARK  status: ('A' for Active; 'I' for Inactive)
REMARK    1  A    between atoms: C2_2  and  C4_4 
REMARK    2  A    between atoms: C4_4  and  C5_5 
REMARK    3  A    between atoms: C5_5  and  N1_6 
REMARK    4  A    between atoms: C5_5  and  C6_12 
REMARK    5  A    between atoms: N1_6  and  P1_8 
ROOT
HETATM    1  C5  UNL     1      33.755  42.434  -9.853  1.00  0.00     0.178 C 
ENDROOT
BRANCH   1   2
HETATM    2  C4  UNL     1      32.625  41.673  -9.196  1.00  0.00     0.038 C 
BRANCH   2   3
HETATM    3  C2  UNL     1      32.460  40.288  -9.747  1.00  0.00    -0.020 C 
HETATM    4  C1  UNL     1      33.145  40.172 -11.105  1.00  0.00     0.009 C 
HETATM    5  C3  UNL     1      30.971  40.091 -10.016  1.00  0.00     0.009 C 
ENDBRANCH   2   3
ENDBRANCH   1   2
BRANCH   1   6
HETATM    6  N1  UNL     1      34.866  42.640  -8.999  1.00  0.00    -0.305 N 
ATOM      7  H1  UNL     1      35.726  43.008  -9.409  1.00  0.00     0.167 HD
BRANCH   6   8
HETATM    8  P1  UNL     1      34.853  42.323  -7.393  1.00  0.00     0.372 P 
HETATM    9  O1  UNL     1      35.033  43.559  -6.283  1.00  0.00    -0.623 OA
HETATM   10  O2  UNL     1      34.506  40.769  -6.799  1.00  0.00    -0.623 OA
HETATM   11  O3  UNL     1      36.350  41.985  -7.232  1.00  0.00    -0.623 OA
ENDBRANCH   6   8
ENDBRANCH   1   6
BRANCH   1  12
HETATM   12  C6  UNL     1      33.184  43.789 -10.166  1.00  0.00     0.254 C 
HETATM   13  N2  UNL     1      33.688  44.572 -11.230  1.00  0.00    -0.060 NA
HETATM   14  O4  UNL     1      32.242  44.270  -9.497  1.00  0.00    -0.275 OA
ENDBRANCH   1  12
TORSDOF 5
ENDMDL
