MODEL 2
REMARK VINA RESULT: -6.182047972      1.074      1.087
REMARK  5 active torsions:
REMARK  status: ('A' for Active; 'I' for Inactive)
REMARK    1  A    between atoms: C2_2  and  C4_4 
REMARK    2  A    between atoms: C4_4  and  C5_5 
REMARK    3  A    between atoms: C5_5  and  N1_6 
REMARK    4  A    between atoms: C5_5  and  C6_12 
REMARK    5  A    between atoms: N1_6  and  P1_8 
ROOT
HETATM    1  C5  UNL     1      37.043  42.459  -2.768  1.00  0.00     0.178 C 
ENDROOT
BRANCH   1   2
HETATM    2  C4  UNL     1      36.789  43.263  -1.512  1.00  0.00     0.038 C 
BRANCH   2   3
HETATM    3  C2  UNL     1      38.027  43.928  -0.987  1.00  0.00    -0.020 C 
HETATM    4  C1  UNL     1      38.297  43.490   0.449  1.00  0.00     0.009 C 
HETATM    5  C3  UNL     1      37.731  45.423  -0.916  1.00  0.00     0.009 C 
ENDBRANCH   2   3
ENDBRANCH   1   2
BRANCH   1   6
HETATM    6  N1  UNL     1      35.905  42.343  -3.603  1.00  0.00    -0.305 N 
ATOM      7  H1  UNL     1      34.984  42.345  -3.162  1.00  0.00     0.167 HD
BRANCH   6   8
HETATM    8  P1  UNL     1      35.980  42.207  -5.232  1.00  0.00     0.372 P 
HETATM    9  O1  UNL     1      36.567  40.811  -5.940  1.00  0.00    -0.623 OA
HETATM   10  O2  UNL     1      35.330  43.400  -6.253  1.00  0.00    -0.623 OA
HETATM   11  O3  UNL     1      37.359  42.868  -5.436  1.00  0.00    -0.623 OA
ENDBRANCH   6   8
ENDBRANCH   1   6
BRANCH   1  12
HETATM   12  C6  UNL     1      37.379  41.075  -2.287  1.00  0.00     0.254 C 
HETATM   13  N2  UNL     1      36.856  40.571  -1.074  1.00  0.00    -0.060 NA
HETATM   14  O4  UNL     1      38.132  40.321  -2.944  1.00  0.00    -0.275 OA
ENDBRANCH   1  12
TORSDOF 5
ENDMDL
