MODEL 19
REMARK VINA RESULT: -5.294516955      6.233      7.762
REMARK  5 active torsions:
REMARK  status: ('A' for Active; 'I' for Inactive)
REMARK    1  A    between atoms: C2_2  and  C4_4 
REMARK    2  A    between atoms: C4_4  and  C5_5 
REMARK    3  A    between atoms: C5_5  and  N1_6 
REMARK    4  A    between atoms: C5_5  and  C6_12 
REMARK    5  A    between atoms: N1_6  and  P1_8 
ROOT
HETATM    1  C5  UNL     1      33.868  41.608  -8.793  1.00  0.00     0.178 C 
ENDROOT
BRANCH   1   2
HETATM    2  C4  UNL     1      32.843  40.674  -9.398  1.00  0.00     0.038 C 
BRANCH   2   3
HETATM    3  C2  UNL     1      33.456  39.639 -10.293  1.00  0.00    -0.020 C 
HETATM    4  C1  UNL     1      34.921  39.421  -9.927  1.00  0.00     0.009 C 
HETATM    5  C3  UNL     1      33.464  40.220 -11.704  1.00  0.00     0.009 C 
ENDBRANCH   2   3
ENDBRANCH   1   2
BRANCH   1   6
HETATM    6  N1  UNL     1      33.932  41.536  -7.380  1.00  0.00    -0.305 N 
ATOM      7  H1  UNL     1      33.095  41.239  -6.876  1.00  0.00     0.167 HD
BRANCH   6   8
HETATM    8  P1  UNL     1      35.268  41.901  -6.508  1.00  0.00     0.372 P 
HETATM    9  O1  UNL     1      35.513  43.455  -5.942  1.00  0.00    -0.623 OA
HETATM   10  O2  UNL     1      36.365  40.699  -6.020  1.00  0.00    -0.623 OA
HETATM   11  O3  UNL     1      36.215  42.203  -7.689  1.00  0.00    -0.623 OA
ENDBRANCH   6   8
ENDBRANCH   1   6
BRANCH   1  12
HETATM   12  C6  UNL     1      33.393  42.990  -9.143  1.00  0.00     0.254 C 
HETATM   13  N2  UNL     1      33.980  43.726 -10.198  1.00  0.00    -0.060 NA
HETATM   14  O4  UNL     1      32.460  43.537  -8.512  1.00  0.00    -0.275 OA
ENDBRANCH   1  12
TORSDOF 5
ENDMDL
