MODEL 5
REMARK VINA RESULT: -6.021837499      1.288      1.960
REMARK  5 active torsions:
REMARK  status: ('A' for Active; 'I' for Inactive)
REMARK    1  A    between atoms: C2_2  and  C4_4 
REMARK    2  A    between atoms: C4_4  and  C5_5 
REMARK    3  A    between atoms: C5_5  and  N1_6 
REMARK    4  A    between atoms: C5_5  and  C6_12 
REMARK    5  A    between atoms: N1_6  and  P1_8 
ROOT
HETATM    1  C5  UNL     1      36.631  41.990  -2.731  1.00  0.00     0.178 C 
ENDROOT
BRANCH   1   2
HETATM    2  C4  UNL     1      36.157  41.506  -1.378  1.00  0.00     0.038 C 
BRANCH   2   3
HETATM    3  C2  UNL     1      36.239  42.567  -0.321  1.00  0.00    -0.020 C 
HETATM    4  C1  UNL     1      36.914  43.817  -0.875  1.00  0.00     0.009 C 
HETATM    5  C3  UNL     1      37.171  42.039   0.767  1.00  0.00     0.009 C 
ENDBRANCH   2   3
ENDBRANCH   1   2
BRANCH   1   6
HETATM    6  N1  UNL     1      35.765  41.631  -3.793  1.00  0.00    -0.305 N 
ATOM      7  H1  UNL     1      35.015  40.967  -3.597  1.00  0.00     0.167 HD
BRANCH   6   8
HETATM    8  P1  UNL     1      35.896  42.219  -5.314  1.00  0.00     0.372 P 
HETATM    9  O1  UNL     1      34.562  42.283  -6.317  1.00  0.00    -0.623 OA
HETATM   10  O2  UNL     1      37.341  42.920  -5.873  1.00  0.00    -0.623 OA
HETATM   11  O3  UNL     1      36.332  40.912  -6.009  1.00  0.00    -0.623 OA
ENDBRANCH   6   8
ENDBRANCH   1   6
BRANCH   1  12
HETATM   12  C6  UNL     1      37.934  41.278  -2.967  1.00  0.00     0.254 C 
HETATM   13  N2  UNL     1      38.040  39.874  -2.836  1.00  0.00    -0.060 NA
HETATM   14  O4  UNL     1      38.970  41.904  -3.288  1.00  0.00    -0.275 OA
ENDBRANCH   1  12
TORSDOF 5
ENDMDL
