MODEL 1
REMARK VINA RESULT: -6.362990667      0.000      0.000
REMARK  5 active torsions:
REMARK  status: ('A' for Active; 'I' for Inactive)
REMARK    1  A    between atoms: C2_2  and  C4_4 
REMARK    2  A    between atoms: C4_4  and  C5_5 
REMARK    3  A    between atoms: C5_5  and  N1_6 
REMARK    4  A    between atoms: C5_5  and  C6_12 
REMARK    5  A    between atoms: N1_6  and  P1_8 
ROOT
HETATM    1  C5  UNL     1      37.018  42.695  -3.166  1.00  0.00     0.178 C 
ENDROOT
BRANCH   1   2
HETATM    2  C4  UNL     1      36.682  43.192  -1.777  1.00  0.00     0.038 C 
BRANCH   2   3
HETATM    3  C2  UNL     1      37.877  43.731  -1.049  1.00  0.00    -0.020 C 
HETATM    4  C1  UNL     1      37.906  43.210   0.384  1.00  0.00     0.009 C 
HETATM    5  C3  UNL     1      37.684  45.241  -0.936  1.00  0.00     0.009 C 
ENDBRANCH   2   3
ENDBRANCH   1   2
BRANCH   1   6
HETATM    6  N1  UNL     1      35.885  42.263  -3.899  1.00  0.00    -0.305 N 
ATOM      7  H1  UNL     1      35.068  41.945  -3.377  1.00  0.00     0.167 HD
BRANCH   6   8
HETATM    8  P1  UNL     1      35.810  42.246  -5.534  1.00  0.00     0.372 P 
HETATM    9  O1  UNL     1      36.287  40.893  -6.391  1.00  0.00    -0.623 OA
HETATM   10  O2  UNL     1      35.110  43.528  -6.404  1.00  0.00    -0.623 OA
HETATM   11  O3  UNL     1      37.186  42.886  -5.815  1.00  0.00    -0.623 OA
ENDBRANCH   6   8
ENDBRANCH   1   6
BRANCH   1  12
HETATM   12  C6  UNL     1      37.889  41.489  -2.951  1.00  0.00     0.254 C 
HETATM   13  N2  UNL     1      39.162  41.383  -3.557  1.00  0.00    -0.060 NA
HETATM   14  O4  UNL     1      37.517  40.538  -2.227  1.00  0.00    -0.275 OA
ENDBRANCH   1  12
TORSDOF 5
ENDMDL
