MODEL 16
REMARK VINA RESULT: -5.493790834      4.706      6.448
REMARK  5 active torsions:
REMARK  status: ('A' for Active; 'I' for Inactive)
REMARK    1  A    between atoms: C2_2  and  C4_4 
REMARK    2  A    between atoms: C4_4  and  C5_5 
REMARK    3  A    between atoms: C5_5  and  N1_6 
REMARK    4  A    between atoms: C5_5  and  C6_12 
REMARK    5  A    between atoms: N1_6  and  P1_8 
ROOT
HETATM    1  C5  UNL     1      35.047  41.756  -7.012  1.00  0.00     0.178 C 
ENDROOT
BRANCH   1   2
HETATM    2  C4  UNL     1      34.233  40.483  -6.949  1.00  0.00     0.038 C 
BRANCH   2   3
HETATM    3  C2  UNL     1      34.106  39.807  -8.282  1.00  0.00    -0.020 C 
HETATM    4  C1  UNL     1      33.131  38.638  -8.194  1.00  0.00     0.009 C 
HETATM    5  C3  UNL     1      35.466  39.191  -8.598  1.00  0.00     0.009 C 
ENDBRANCH   2   3
ENDBRANCH   1   2
BRANCH   1   6
HETATM    6  N1  UNL     1      35.184  42.400  -5.758  1.00  0.00    -0.305 N 
ATOM      7  H1  UNL     1      34.436  43.025  -5.455  1.00  0.00     0.167 HD
BRANCH   6   8
HETATM    8  P1  UNL     1      36.472  42.201  -4.767  1.00  0.00     0.372 P 
HETATM    9  O1  UNL     1      36.756  43.275  -3.519  1.00  0.00    -0.623 OA
HETATM   10  O2  UNL     1      37.468  40.827  -4.872  1.00  0.00    -0.623 OA
HETATM   11  O3  UNL     1      37.515  42.950  -5.623  1.00  0.00    -0.623 OA
ENDBRANCH   6   8
ENDBRANCH   1   6
BRANCH   1  12
HETATM   12  C6  UNL     1      34.260  42.680  -7.898  1.00  0.00     0.254 C 
HETATM   13  N2  UNL     1      34.768  43.116  -9.143  1.00  0.00    -0.060 NA
HETATM   14  O4  UNL     1      33.127  43.095  -7.563  1.00  0.00    -0.275 OA
ENDBRANCH   1  12
TORSDOF 5
ENDMDL
