MODEL 2
REMARK VINA RESULT: -7.452206814      1.759      2.019
REMARK  4 active torsions:
REMARK  status: ('A' for Active; 'I' for Inactive)
REMARK    1  A    between atoms: C2_2  and  O1_3 
REMARK    2  A    between atoms: C2_2  and  C3_5 
REMARK    3  A    between atoms: C3_5  and  O2_6 
REMARK    4  A    between atoms: C3_5  and  C4_8 
ROOT
HETATM    1  C4  UNL     1      73.072  59.082  35.829  1.00  0.00     0.036 A 
HETATM    2  N1  UNL     1      73.582  57.978  36.252  1.00  0.00    -0.352 N 
ATOM      3  H1  UNL     1      74.396  58.038  36.865  1.00  0.00     0.166 HD
HETATM    4  C5  UNL     1      73.101  56.694  35.934  1.00  0.00     0.145 A 
HETATM    5  C6  UNL     1      71.991  56.567  35.105  1.00  0.00     0.136 A 
HETATM    6  N2  UNL     1      71.529  55.349  34.796  1.00  0.00    -0.315 N 
ATOM      7  H2  UNL     1      70.715  55.262  34.188  1.00  0.00     0.170 HD
HETATM    8  C7  UNL     1      72.124  54.231  35.276  1.00  0.00     0.196 A 
HETATM    9  N3  UNL     1      71.623  52.941  34.940  1.00  0.00    -0.063 NA
HETATM   10  N4  UNL     1      73.187  54.317  36.071  1.00  0.00    -0.295 N 
ATOM     11  H4  UNL     1      73.628  53.469  36.428  1.00  0.00     0.171 HD
HETATM   12  C8  UNL     1      73.681  55.527  36.404  1.00  0.00     0.278 A 
HETATM   13  O3  UNL     1      74.683  55.610  37.153  1.00  0.00    -0.265 OA
HETATM   14  N5  UNL     1      71.400  57.758  34.629  1.00  0.00    -0.369 N 
ATOM     15  H5  UNL     1      70.561  57.687  34.053  1.00  0.00     0.161 HD
HETATM   16  C9  UNL     1      71.920  59.062  34.915  1.00  0.00     0.176 A 
ENDROOT
BRANCH   1  17
HETATM   17  C3  UNL     1      73.699  60.385  36.266  1.00  0.00     0.193 C 
BRANCH  17  18
HETATM   18  C2  UNL     1      74.340  60.273  37.615  1.00  0.00     0.148 C 
HETATM   19  C1  UNL     1      75.750  59.816  37.615  1.00  0.00     0.042 C 
BRANCH  18  20
HETATM   20  O1  UNL     1      73.593  59.580  38.542  1.00  0.00    -0.393 OA
ATOM     21  H1  UNL     1      72.663  59.712  38.401  1.00  0.00     0.210 HD
ENDBRANCH  18  20
ENDBRANCH  17  18
BRANCH  17  22
HETATM   22  O2  UNL     1      72.623  61.314  36.319  1.00  0.00    -0.387 OA
ATOM     23  H2  UNL     1      72.861  62.108  35.855  1.00  0.00     0.210 HD
ENDBRANCH  17  22
ENDBRANCH   1  17
TORSDOF 4
ENDMDL
