MODEL 4
REMARK VINA RESULT: -7.409503939      1.964      2.570
REMARK  4 active torsions:
REMARK  status: ('A' for Active; 'I' for Inactive)
REMARK    1  A    between atoms: C2_2  and  O1_3 
REMARK    2  A    between atoms: C2_2  and  C3_5 
REMARK    3  A    between atoms: C3_5  and  O2_6 
REMARK    4  A    between atoms: C3_5  and  C4_8 
ROOT
HETATM    1  C4  UNL     1      75.207  58.019  36.545  1.00  0.00     0.036 A 
HETATM    2  N1  UNL     1      75.209  57.184  35.564  1.00  0.00    -0.352 N 
ATOM      3  H1  UNL     1      75.936  57.288  34.857  1.00  0.00     0.166 HD
HETATM    4  C5  UNL     1      74.282  56.139  35.394  1.00  0.00     0.145 A 
HETATM    5  C6  UNL     1      73.276  55.959  36.338  1.00  0.00     0.136 A 
HETATM    6  N2  UNL     1      72.389  54.968  36.182  1.00  0.00    -0.315 N 
ATOM      7  H2  UNL     1      71.653  54.840  36.877  1.00  0.00     0.170 HD
HETATM    8  C7  UNL     1      72.452  54.132  35.118  1.00  0.00     0.196 A 
HETATM    9  N3  UNL     1      71.503  53.081  34.964  1.00  0.00    -0.063 NA
HETATM   10  N4  UNL     1      73.401  54.276  34.198  1.00  0.00    -0.295 N 
ATOM     11  H4  UNL     1      73.441  53.641  33.400  1.00  0.00     0.171 HD
HETATM   12  C8  UNL     1      74.312  55.264  34.321  1.00  0.00     0.278 A 
HETATM   13  O3  UNL     1      75.207  55.401  33.455  1.00  0.00    -0.265 OA
HETATM   14  N5  UNL     1      73.248  56.851  37.432  1.00  0.00    -0.369 N 
ATOM     15  H5  UNL     1      72.543  56.710  38.155  1.00  0.00     0.161 HD
HETATM   16  C9  UNL     1      74.163  57.944  37.578  1.00  0.00     0.176 A 
ENDROOT
BRANCH   1  17
HETATM   17  C3  UNL     1      76.275  59.086  36.591  1.00  0.00     0.193 C 
BRANCH  17  18
HETATM   18  C2  UNL     1      77.595  58.536  37.037  1.00  0.00     0.148 C 
HETATM   19  C1  UNL     1      78.634  58.440  35.984  1.00  0.00     0.042 C 
BRANCH  18  20
HETATM   20  O1  UNL     1      77.509  57.366  37.757  1.00  0.00    -0.393 OA
ATOM     21  H1  UNL     1      78.255  57.263  38.336  1.00  0.00     0.210 HD
ENDBRANCH  18  20
ENDBRANCH  17  18
BRANCH  17  22
HETATM   22  O2  UNL     1      75.806  60.039  37.537  1.00  0.00    -0.387 OA
ATOM     23  H2  UNL     1      75.428  60.783  37.084  1.00  0.00     0.210 HD
ENDBRANCH  17  22
ENDBRANCH   1  17
TORSDOF 4
ENDMDL
