MODEL 3
REMARK VINA RESULT: -7.443324859      1.787      2.425
REMARK  4 active torsions:
REMARK  status: ('A' for Active; 'I' for Inactive)
REMARK    1  A    between atoms: C2_2  and  O1_3 
REMARK    2  A    between atoms: C2_2  and  C3_5 
REMARK    3  A    between atoms: C3_5  and  O2_6 
REMARK    4  A    between atoms: C3_5  and  C4_8 
ROOT
HETATM    1  C4  UNL     1      74.446  58.426  37.057  1.00  0.00     0.036 A 
HETATM    2  N1  UNL     1      73.387  58.173  36.370  1.00  0.00    -0.352 N 
ATOM      3  H1  UNL     1      72.818  58.965  36.069  1.00  0.00     0.166 HD
HETATM    4  C5  UNL     1      72.953  56.885  36.003  1.00  0.00     0.145 A 
HETATM    5  C6  UNL     1      73.701  55.778  36.389  1.00  0.00     0.136 A 
HETATM    6  N2  UNL     1      73.294  54.549  36.045  1.00  0.00    -0.315 N 
ATOM      7  H2  UNL     1      73.846  53.740  36.330  1.00  0.00     0.170 HD
HETATM    8  C7  UNL     1      72.163  54.362  35.324  1.00  0.00     0.196 A 
HETATM    9  N3  UNL     1      71.741  53.050  34.965  1.00  0.00    -0.063 NA
HETATM   10  N4  UNL     1      71.425  55.399  34.939  1.00  0.00    -0.295 N 
ATOM     11  H4  UNL     1      70.574  55.247  34.396  1.00  0.00     0.171 HD
HETATM   12  C8  UNL     1      71.803  56.651  35.267  1.00  0.00     0.278 A 
HETATM   13  O3  UNL     1      71.109  57.630  34.905  1.00  0.00    -0.265 OA
HETATM   14  N5  UNL     1      74.875  56.018  37.137  1.00  0.00    -0.369 N 
ATOM     15  H5  UNL     1      75.457  55.222  37.394  1.00  0.00     0.161 HD
HETATM   16  C9  UNL     1      75.288  57.326  37.551  1.00  0.00     0.176 A 
ENDROOT
BRANCH   1  17
HETATM   17  C3  UNL     1      74.783  59.865  37.367  1.00  0.00     0.193 C 
BRANCH  17  18
HETATM   18  C2  UNL     1      74.081  60.815  36.445  1.00  0.00     0.148 C 
HETATM   19  C1  UNL     1      74.707  62.152  36.309  1.00  0.00     0.042 C 
BRANCH  18  20
HETATM   20  O1  UNL     1      72.726  60.922  36.666  1.00  0.00    -0.393 OA
ATOM     21  H1  UNL     1      72.240  60.316  36.118  1.00  0.00     0.210 HD
ENDBRANCH  18  20
ENDBRANCH  17  18
BRANCH  17  22
HETATM   22  O2  UNL     1      76.190  59.965  37.181  1.00  0.00    -0.387 OA
ATOM     23  H2  UNL     1      76.640  59.646  37.954  1.00  0.00     0.210 HD
ENDBRANCH  17  22
ENDBRANCH   1  17
TORSDOF 4
ENDMDL
