MODEL 2
REMARK VINA RESULT: -7.054798886      0.091      1.390
REMARK  4 active torsions:
REMARK  status: ('A' for Active; 'I' for Inactive)
REMARK    1  A    between atoms: C1_2  and  C2_4 
REMARK    2  A    between atoms: C2_4  and  C3_5 
REMARK    3  A    between atoms: C3_5  and  C4_6 
REMARK    4  A    between atoms: C7_9  and  O3_10 
ROOT
HETATM    1  C4  UNL     1     -23.529  15.511  10.703  1.00  0.00    -0.058 A 
HETATM    2  C5  UNL     1     -24.418  16.132  11.553  1.00  0.00     0.010 A 
HETATM    3  C6  UNL     1     -24.322  17.469  11.891  1.00  0.00     0.037 A 
HETATM    4  C7  UNL     1     -23.269  18.169  11.325  1.00  0.00     0.065 A 
HETATM    5  C8  UNL     1     -22.363  17.558  10.464  1.00  0.00     0.037 A 
HETATM    6  C9  UNL     1     -22.488  16.224  10.149  1.00  0.00     0.010 A 
ENDROOT
BRANCH   1   7
HETATM    7  C3  UNL     1     -23.639  14.068  10.346  1.00  0.00     0.049 C 
BRANCH   7   8
HETATM    8  C2  UNL     1     -22.535  13.756   9.338  1.00  0.00     0.117 C 
BRANCH   8   9
HETATM    9  C1  UNL     1     -22.488  12.258   9.272  1.00  0.00     0.172 C 
HETATM   10  O1  UNL     1     -21.393  11.637   9.455  1.00  0.00    -0.648 OA
HETATM   11  O2  UNL     1     -23.629  11.502   9.016  1.00  0.00    -0.648 OA
ENDBRANCH   8   9
ENDBRANCH   7   8
ENDBRANCH   1   7
BRANCH   4  12
HETATM   12  O3  UNL     1     -23.163  19.515  11.660  1.00  0.00    -0.361 OA
ATOM     13  H3  UNL     1     -22.284  19.870  11.722  1.00  0.00     0.217 HD
ENDBRANCH   4  12
TORSDOF 4
ENDMDL
