MODEL 3
REMARK VINA RESULT: -6.613442569      1.114      1.911
REMARK  4 active torsions:
REMARK  status: ('A' for Active; 'I' for Inactive)
REMARK    1  A    between atoms: C1_2  and  C2_4 
REMARK    2  A    between atoms: C2_4  and  C3_5 
REMARK    3  A    between atoms: C3_5  and  C4_6 
REMARK    4  A    between atoms: C7_9  and  O3_10 
ROOT
HETATM    1  C4  UNL     1     -22.965  15.616  10.221  1.00  0.00    -0.058 A 
HETATM    2  C5  UNL     1     -23.978  15.864  11.121  1.00  0.00     0.010 A 
HETATM    3  C6  UNL     1     -24.183  17.105  11.695  1.00  0.00     0.037 A 
HETATM    4  C7  UNL     1     -23.303  18.106  11.317  1.00  0.00     0.065 A 
HETATM    5  C8  UNL     1     -22.275  17.873  10.410  1.00  0.00     0.037 A 
HETATM    6  C9  UNL     1     -22.100  16.625   9.857  1.00  0.00     0.010 A 
ENDROOT
BRANCH   1   7
HETATM    7  C3  UNL     1     -22.750  14.274   9.608  1.00  0.00     0.049 C 
BRANCH   7   8
HETATM    8  C2  UNL     1     -21.416  14.312   8.868  1.00  0.00     0.117 C 
BRANCH   8   9
HETATM    9  C1  UNL     1     -21.252  12.934   8.300  1.00  0.00     0.172 C 
HETATM   10  O1  UNL     1     -21.404  11.909   9.037  1.00  0.00    -0.648 OA
HETATM   11  O2  UNL     1     -20.936  12.729   6.959  1.00  0.00    -0.648 OA
ENDBRANCH   8   9
ENDBRANCH   7   8
ENDBRANCH   1   7
BRANCH   4  12
HETATM   12  O3  UNL     1     -23.500  19.358  11.891  1.00  0.00    -0.361 OA
ATOM     13  H3  UNL     1     -23.388  20.110  11.322  1.00  0.00     0.217 HD
ENDBRANCH   4  12
TORSDOF 4
ENDMDL
