MODEL 1
REMARK VINA RESULT: -7.062007576      0.000      0.000
REMARK  4 active torsions:
REMARK  status: ('A' for Active; 'I' for Inactive)
REMARK    1  A    between atoms: C1_2  and  C2_4 
REMARK    2  A    between atoms: C2_4  and  C3_5 
REMARK    3  A    between atoms: C3_5  and  C4_6 
REMARK    4  A    between atoms: C7_9  and  O3_10 
ROOT
HETATM    1  C4  UNL     1     -23.526  15.497  10.693  1.00  0.00    -0.058 A 
HETATM    2  C5  UNL     1     -22.532  16.307  10.189  1.00  0.00     0.010 A 
HETATM    3  C6  UNL     1     -22.426  17.648  10.509  1.00  0.00     0.037 A 
HETATM    4  C7  UNL     1     -23.385  18.149  11.374  1.00  0.00     0.065 A 
HETATM    5  C8  UNL     1     -24.395  17.345  11.891  1.00  0.00     0.037 A 
HETATM    6  C9  UNL     1     -24.471  16.013  11.552  1.00  0.00     0.010 A 
ENDROOT
BRANCH   1   7
HETATM    7  C3  UNL     1     -23.634  14.052  10.342  1.00  0.00     0.049 C 
BRANCH   7   8
HETATM    8  C2  UNL     1     -22.527  13.735   9.339  1.00  0.00     0.117 C 
BRANCH   8   9
HETATM    9  C1  UNL     1     -22.488  12.238   9.271  1.00  0.00     0.172 C 
HETATM   10  O1  UNL     1     -21.398  11.611   9.459  1.00  0.00    -0.648 OA
HETATM   11  O2  UNL     1     -23.632  11.489   9.005  1.00  0.00    -0.648 OA
ENDBRANCH   8   9
ENDBRANCH   7   8
ENDBRANCH   1   7
BRANCH   4  12
HETATM   12  O3  UNL     1     -23.287  19.498  11.699  1.00  0.00    -0.361 OA
ATOM     13  H3  UNL     1     -22.894  20.066  11.047  1.00  0.00     0.217 HD
ENDBRANCH   4  12
TORSDOF 4
ENDMDL
