MODEL 1
REMARK VINA RESULT: -8.138862951      0.000      0.000
REMARK  8 active torsions:
REMARK  status: ('A' for Active; 'I' for Inactive)
REMARK    1  A    between atoms: C1_2  and  C2_3 
REMARK       I    between atoms: C1_2  and  N2_23 
REMARK    2  A    between atoms: C2_3  and  C3_4 
REMARK    3  A    between atoms: C3_4  and  N1_5 
REMARK    4  A    between atoms: C3_4  and  C12_17 
REMARK       I    between atoms: N1_5  and  C4_7 
REMARK    5  A    between atoms: C4_7  and  O3_9 
REMARK    6  A    between atoms: O3_9  and  C5_10 
REMARK    7  A    between atoms: C5_10  and  C6_11 
REMARK    8  A    between atoms: N2_23  and  C18_25 
ROOT
HETATM    1  C3  UNL     1      27.614  46.783  48.326  1.00  0.00     0.128 C 
ENDROOT
BRANCH   1   2
HETATM    2  C2  UNL     1      28.984  46.363  48.810  1.00  0.00     0.133 C 
BRANCH   2   3
HETATM    3  C1  UNL     1      30.090  47.100  48.199  1.00  0.00     0.225 C 
HETATM    4  O1  UNL     1      30.806  46.559  47.319  1.00  0.00    -0.273 OA
HETATM    5  N2  UNL     1      30.334  48.431  48.622  1.00  0.00    -0.306 N 
ATOM      6  H2  UNL     1      29.762  48.881  49.336  1.00  0.00     0.171 HD
BRANCH   5   7
HETATM    7  C18 UNL     1      31.438  49.114  47.989  1.00  0.00     0.168 A 
HETATM    8  N3  UNL     1      32.128  48.750  46.916  1.00  0.00    -0.278 N 
HETATM    9  N4  UNL     1      33.071  49.479  46.499  1.00  0.00    -0.285 N 
ATOM     10  H3  UNL     1      31.899  47.883  46.429  1.00  0.00     0.189 HD
HETATM   11  C19 UNL     1      33.368  50.607  47.136  1.00  0.00     0.141 A 
ATOM     12  H4  UNL     1      33.604  49.203  45.674  1.00  0.00     0.188 HD
HETATM   13  S1  UNL     1      34.653  51.810  46.750  1.00  0.00    -0.024 SA
HETATM   14  S2  UNL     1      32.207  50.583  48.398  1.00  0.00    -0.025 SA
ENDBRANCH   5   7
ENDBRANCH   2   3
ENDBRANCH   1   2
BRANCH   1  15
HETATM   15  N1  UNL     1      27.778  46.975  46.872  1.00  0.00    -0.328 N 
HETATM   16  C4  UNL     1      27.171  48.044  46.179  1.00  0.00     0.361 C 
HETATM   17  O2  UNL     1      26.474  48.845  46.853  1.00  0.00    -0.238 OA
ATOM     18  H1  UNL     1      28.349  46.311  46.350  1.00  0.00     0.165 HD
BRANCH  16  19
HETATM   19  O3  UNL     1      27.287  48.274  44.832  1.00  0.00    -0.299 OA
BRANCH  19  20
HETATM   20  C5  UNL     1      26.515  47.665  43.844  1.00  0.00     0.219 C 
BRANCH  20  21
HETATM   21  C6  UNL     1      25.911  46.381  44.271  1.00  0.00    -0.034 A 
HETATM   22  C7  UNL     1      24.731  46.334  44.979  1.00  0.00     0.009 A 
HETATM   23  C8  UNL     1      24.166  45.126  45.384  1.00  0.00     0.001 A 
HETATM   24  C9  UNL     1      24.782  43.928  45.082  1.00  0.00     0.000 A 
HETATM   25  C10 UNL     1      25.955  43.969  44.377  1.00  0.00     0.001 A 
HETATM   26  C11 UNL     1      26.499  45.167  43.986  1.00  0.00     0.009 A 
ENDBRANCH  20  21
ENDBRANCH  19  20
ENDBRANCH  16  19
ENDBRANCH   1  15
BRANCH   1  27
HETATM   27  C12 UNL     1      26.648  45.671  48.581  1.00  0.00    -0.035 A 
HETATM   28  C13 UNL     1      26.971  44.394  48.185  1.00  0.00     0.009 A 
HETATM   29  C14 UNL     1      26.100  43.344  48.403  1.00  0.00     0.001 A 
HETATM   30  C15 UNL     1      24.883  43.542  49.024  1.00  0.00     0.000 A 
HETATM   31  C16 UNL     1      24.586  44.833  49.411  1.00  0.00     0.001 A 
HETATM   32  C17 UNL     1      25.441  45.893  49.202  1.00  0.00     0.009 A 
ENDBRANCH   1  27
TORSDOF 8
ENDMDL
