MODEL 8
REMARK VINA RESULT: -7.170334478      3.568      5.881
REMARK  8 active torsions:
REMARK  status: ('A' for Active; 'I' for Inactive)
REMARK    1  A    between atoms: C1_2  and  C2_3 
REMARK       I    between atoms: C1_2  and  N2_23 
REMARK    2  A    between atoms: C2_3  and  C3_4 
REMARK    3  A    between atoms: C3_4  and  N1_5 
REMARK    4  A    between atoms: C3_4  and  C12_17 
REMARK       I    between atoms: N1_5  and  C4_7 
REMARK    5  A    between atoms: C4_7  and  O3_9 
REMARK    6  A    between atoms: O3_9  and  C5_10 
REMARK    7  A    between atoms: C5_10  and  C6_11 
REMARK    8  A    between atoms: N2_23  and  C18_25 
ROOT
HETATM    1  C3  UNL     1      26.846  44.308  47.777  1.00  0.00     0.128 C 
ENDROOT
BRANCH   1   2
HETATM    2  C2  UNL     1      27.005  45.511  48.679  1.00  0.00     0.133 C 
BRANCH   2   3
HETATM    3  C1  UNL     1      28.336  46.116  48.649  1.00  0.00     0.225 C 
HETATM    4  O1  UNL     1      29.272  45.631  49.333  1.00  0.00    -0.273 OA
HETATM    5  N2  UNL     1      28.544  47.257  47.833  1.00  0.00    -0.306 N 
ATOM      6  H2  UNL     1      27.794  47.662  47.274  1.00  0.00     0.171 HD
BRANCH   5   7
HETATM    7  C18 UNL     1      29.876  47.817  47.839  1.00  0.00     0.168 A 
HETATM    8  N3  UNL     1      31.036  47.189  47.693  1.00  0.00    -0.278 N 
HETATM    9  N4  UNL     1      32.113  47.847  47.725  1.00  0.00    -0.285 N 
ATOM     10  H3  UNL     1      31.057  46.179  47.556  1.00  0.00     0.189 HD
HETATM   11  C19 UNL     1      32.081  49.163  47.905  1.00  0.00     0.141 A 
ATOM     12  H4  UNL     1      33.007  47.369  47.613  1.00  0.00     0.188 HD
HETATM   13  S1  UNL     1      33.461  50.319  47.991  1.00  0.00    -0.024 SA
HETATM   14  S2  UNL     1      30.392  49.433  48.032  1.00  0.00    -0.025 SA
ENDBRANCH   5   7
ENDBRANCH   2   3
ENDBRANCH   1   2
BRANCH   1  15
HETATM   15  N1  UNL     1      25.666  43.600  48.307  1.00  0.00    -0.328 N 
HETATM   16  C4  UNL     1      25.739  42.286  48.816  1.00  0.00     0.361 C 
HETATM   17  O2  UNL     1      26.866  41.726  48.804  1.00  0.00    -0.238 OA
ATOM     18  H1  UNL     1      24.765  44.078  48.307  1.00  0.00     0.165 HD
BRANCH  16  19
HETATM   19  O3  UNL     1      24.679  41.578  49.322  1.00  0.00    -0.299 OA
BRANCH  19  20
HETATM   20  C5  UNL     1      24.362  40.261  48.992  1.00  0.00     0.219 C 
BRANCH  20  21
HETATM   21  C6  UNL     1      23.622  39.545  50.057  1.00  0.00    -0.034 A 
HETATM   22  C7  UNL     1      23.217  38.237  49.905  1.00  0.00     0.009 A 
HETATM   23  C8  UNL     1      22.517  37.566  50.906  1.00  0.00     0.001 A 
HETATM   24  C9  UNL     1      22.205  38.201  52.092  1.00  0.00     0.000 A 
HETATM   25  C10 UNL     1      22.605  39.501  52.247  1.00  0.00     0.001 A 
HETATM   26  C11 UNL     1      23.294  40.150  51.253  1.00  0.00     0.009 A 
ENDBRANCH  20  21
ENDBRANCH  19  20
ENDBRANCH  16  19
ENDBRANCH   1  15
BRANCH   1  27
HETATM   27  C12 UNL     1      26.568  44.779  46.386  1.00  0.00    -0.035 A 
HETATM   28  C13 UNL     1      27.136  44.117  45.323  1.00  0.00     0.009 A 
HETATM   29  C14 UNL     1      26.901  44.528  44.025  1.00  0.00     0.001 A 
HETATM   30  C15 UNL     1      26.091  45.612  43.754  1.00  0.00     0.000 A 
HETATM   31  C16 UNL     1      25.534  46.258  44.840  1.00  0.00     0.001 A 
HETATM   32  C17 UNL     1      25.756  45.863  46.141  1.00  0.00     0.009 A 
ENDBRANCH   1  27
TORSDOF 8
ENDMDL
