MODEL 3
REMARK VINA RESULT: -7.863969941      1.051      1.464
REMARK  8 active torsions:
REMARK  status: ('A' for Active; 'I' for Inactive)
REMARK    1  A    between atoms: C1_2  and  C2_3 
REMARK       I    between atoms: C1_2  and  N2_23 
REMARK    2  A    between atoms: C2_3  and  C3_4 
REMARK    3  A    between atoms: C3_4  and  N1_5 
REMARK    4  A    between atoms: C3_4  and  C12_17 
REMARK       I    between atoms: N1_5  and  C4_7 
REMARK    5  A    between atoms: C4_7  and  O3_9 
REMARK    6  A    between atoms: O3_9  and  C5_10 
REMARK    7  A    between atoms: C5_10  and  C6_11 
REMARK    8  A    between atoms: N2_23  and  C18_25 
ROOT
HETATM    1  C3  UNL     1      27.232  45.821  48.738  1.00  0.00     0.128 C 
ENDROOT
BRANCH   1   2
HETATM    2  C2  UNL     1      28.687  45.465  48.945  1.00  0.00     0.133 C 
BRANCH   2   3
HETATM    3  C1  UNL     1      29.628  46.353  48.262  1.00  0.00     0.225 C 
HETATM    4  O1  UNL     1      30.203  45.983  47.208  1.00  0.00    -0.273 OA
HETATM    5  N2  UNL     1      29.874  47.634  48.817  1.00  0.00    -0.306 N 
ATOM      6  H2  UNL     1      29.415  47.947  49.672  1.00  0.00     0.171 HD
BRANCH   5   7
HETATM    7  C18 UNL     1      30.811  48.472  48.105  1.00  0.00     0.168 A 
HETATM    8  N3  UNL     1      31.990  48.144  47.594  1.00  0.00    -0.278 N 
HETATM    9  N4  UNL     1      32.681  49.017  46.998  1.00  0.00    -0.285 N 
ATOM     10  H3  UNL     1      32.338  47.189  47.683  1.00  0.00     0.189 HD
HETATM   11  C19 UNL     1      32.225  50.260  46.886  1.00  0.00     0.141 A 
ATOM     12  H4  UNL     1      33.588  48.769  46.604  1.00  0.00     0.188 HD
HETATM   13  S1  UNL     1      33.008  51.677  46.093  1.00  0.00    -0.024 SA
HETATM   14  S2  UNL     1      30.718  50.127  47.694  1.00  0.00    -0.025 SA
ENDBRANCH   5   7
ENDBRANCH   2   3
ENDBRANCH   1   2
BRANCH   1  15
HETATM   15  N1  UNL     1      27.183  46.402  47.383  1.00  0.00    -0.328 N 
HETATM   16  C4  UNL     1      26.324  47.471  47.051  1.00  0.00     0.361 C 
HETATM   17  O2  UNL     1      25.588  47.923  47.965  1.00  0.00    -0.238 OA
ATOM     18  H1  UNL     1      27.791  46.017  46.660  1.00  0.00     0.165 HD
BRANCH  16  19
HETATM   19  O3  UNL     1      26.234  48.052  45.812  1.00  0.00    -0.299 OA
BRANCH  19  20
HETATM   20  C5  UNL     1      25.625  47.476  44.697  1.00  0.00     0.219 C 
BRANCH  20  21
HETATM   21  C6  UNL     1      25.117  46.106  44.941  1.00  0.00    -0.034 A 
HETATM   22  C7  UNL     1      23.935  45.880  45.612  1.00  0.00     0.009 A 
HETATM   23  C8  UNL     1      23.460  44.591  45.844  1.00  0.00     0.001 A 
HETATM   24  C9  UNL     1      24.168  43.491  45.403  1.00  0.00     0.000 A 
HETATM   25  C10 UNL     1      25.343  43.710  44.735  1.00  0.00     0.001 A 
HETATM   26  C11 UNL     1      25.799  44.986  44.514  1.00  0.00     0.009 A 
ENDBRANCH  20  21
ENDBRANCH  19  20
ENDBRANCH  16  19
ENDBRANCH   1  15
BRANCH   1  27
HETATM   27  C12 UNL     1      26.417  44.569  48.779  1.00  0.00    -0.035 A 
HETATM   28  C13 UNL     1      25.117  44.624  49.225  1.00  0.00     0.009 A 
HETATM   29  C14 UNL     1      24.337  43.485  49.277  1.00  0.00     0.001 A 
HETATM   30  C15 UNL     1      24.836  42.259  48.885  1.00  0.00     0.000 A 
HETATM   31  C16 UNL     1      26.143  42.233  48.442  1.00  0.00     0.001 A 
HETATM   32  C17 UNL     1      26.935  43.358  48.382  1.00  0.00     0.009 A 
ENDBRANCH   1  27
TORSDOF 8
ENDMDL
