MODEL 2
REMARK VINA RESULT: -8.130332822      0.058      1.260
REMARK  8 active torsions:
REMARK  status: ('A' for Active; 'I' for Inactive)
REMARK    1  A    between atoms: C1_2  and  C2_3 
REMARK       I    between atoms: C1_2  and  N2_23 
REMARK    2  A    between atoms: C2_3  and  C3_4 
REMARK    3  A    between atoms: C3_4  and  N1_5 
REMARK    4  A    between atoms: C3_4  and  C12_17 
REMARK       I    between atoms: N1_5  and  C4_7 
REMARK    5  A    between atoms: C4_7  and  O3_9 
REMARK    6  A    between atoms: O3_9  and  C5_10 
REMARK    7  A    between atoms: C5_10  and  C6_11 
REMARK    8  A    between atoms: N2_23  and  C18_25 
ROOT
HETATM    1  C3  UNL     1      27.630  46.800  48.319  1.00  0.00     0.128 C 
ENDROOT
BRANCH   1   2
HETATM    2  C2  UNL     1      28.999  46.376  48.801  1.00  0.00     0.133 C 
BRANCH   2   3
HETATM    3  C1  UNL     1      30.108  47.110  48.189  1.00  0.00     0.225 C 
HETATM    4  O1  UNL     1      30.811  46.574  47.297  1.00  0.00    -0.273 OA
HETATM    5  N2  UNL     1      30.367  48.434  48.627  1.00  0.00    -0.306 N 
ATOM      6  H2  UNL     1      29.804  48.880  49.351  1.00  0.00     0.171 HD
BRANCH   5   7
HETATM    7  C18 UNL     1      31.471  49.115  47.992  1.00  0.00     0.168 A 
HETATM    8  N3  UNL     1      32.151  48.756  46.911  1.00  0.00    -0.278 N 
HETATM    9  N4  UNL     1      33.097  49.483  46.495  1.00  0.00    -0.285 N 
ATOM     10  H3  UNL     1      31.912  47.896  46.419  1.00  0.00     0.189 HD
HETATM   11  C19 UNL     1      33.406  50.602  47.141  1.00  0.00     0.141 A 
ATOM     12  H4  UNL     1      33.622  49.211  45.665  1.00  0.00     0.188 HD
HETATM   13  S1  UNL     1      34.696  51.800  46.759  1.00  0.00    -0.024 SA
HETATM   14  S2  UNL     1      32.253  50.574  48.411  1.00  0.00    -0.025 SA
ENDBRANCH   5   7
ENDBRANCH   2   3
ENDBRANCH   1   2
BRANCH   1  15
HETATM   15  N1  UNL     1      27.792  46.991  46.865  1.00  0.00    -0.328 N 
HETATM   16  C4  UNL     1      27.170  48.049  46.169  1.00  0.00     0.361 C 
HETATM   17  O2  UNL     1      26.460  48.841  46.841  1.00  0.00    -0.238 OA
ATOM     18  H1  UNL     1      28.374  46.335  46.345  1.00  0.00     0.165 HD
BRANCH  16  19
HETATM   19  O3  UNL     1      27.283  48.278  44.822  1.00  0.00    -0.299 OA
BRANCH  19  20
HETATM   20  C5  UNL     1      26.517  47.658  43.835  1.00  0.00     0.219 C 
BRANCH  20  21
HETATM   21  C6  UNL     1      25.909  46.380  44.272  1.00  0.00    -0.034 A 
HETATM   22  C7  UNL     1      26.489  45.164  43.982  1.00  0.00     0.009 A 
HETATM   23  C8  UNL     1      25.914  43.962  44.390  1.00  0.00     0.001 A 
HETATM   24  C9  UNL     1      24.733  43.956  45.105  1.00  0.00     0.000 A 
HETATM   25  C10 UNL     1      24.153  45.161  45.396  1.00  0.00     0.001 A 
HETATM   26  C11 UNL     1      24.731  46.338  44.988  1.00  0.00     0.009 A 
ENDBRANCH  20  21
ENDBRANCH  19  20
ENDBRANCH  16  19
ENDBRANCH   1  15
BRANCH   1  27
HETATM   27  C12 UNL     1      26.662  45.691  48.577  1.00  0.00    -0.035 A 
HETATM   28  C13 UNL     1      25.475  45.967  49.214  1.00  0.00     0.009 A 
HETATM   29  C14 UNL     1      24.559  44.965  49.469  1.00  0.00     0.001 A 
HETATM   30  C15 UNL     1      24.804  43.659  49.094  1.00  0.00     0.000 A 
HETATM   31  C16 UNL     1      26.003  43.412  48.456  1.00  0.00     0.001 A 
HETATM   32  C17 UNL     1      26.928  44.397  48.192  1.00  0.00     0.009 A 
ENDBRANCH   1  27
TORSDOF 8
ENDMDL
