MODEL 4
REMARK VINA RESULT: -7.820778945      3.618      7.229
REMARK  6 active torsions:
REMARK  status: ('A' for Active; 'I' for Inactive)
REMARK    1  A    between atoms: C2_2  and  N1_3 
REMARK       I    between atoms: N1_3  and  C3_5 
REMARK    2  A    between atoms: C3_5  and  C4_7 
REMARK    3  A    between atoms: C9_16  and  O3_17 
REMARK    4  A    between atoms: C11_20  and  O4_21 
REMARK    5  A    between atoms: C12_23  and  C13_24 
REMARK    6  A    between atoms: C16_27  and  O5_28 
ROOT
HETATM    1  C4  UNL     1      30.720   9.818  25.610  1.00  0.00     0.136 A 
HETATM    2  N2  UNL     1      30.125   9.893  26.844  1.00  0.00    -0.254 N 
ATOM      3  H2  UNL     1      29.400  10.563  27.101  1.00  0.00     0.195 HD
HETATM    4  O2  UNL     1      30.607   8.999  27.632  1.00  0.00    -0.235 OA
HETATM    5  C5  UNL     1      31.528   8.280  27.015  1.00  0.00     0.125 A 
HETATM    6  C6  UNL     1      32.307   7.189  27.544  1.00  0.00     0.036 A 
HETATM    7  C7  UNL     1      33.286   7.396  28.533  1.00  0.00     0.044 A 
HETATM    8  C8  UNL     1      34.042   6.371  29.017  1.00  0.00     0.068 A 
HETATM    9 CL1  UNL     1      35.264   6.637  30.255  1.00  0.00    -0.081 Cl
HETATM   10  C9  UNL     1      33.888   5.086  28.560  1.00  0.00     0.090 A 
HETATM   11  C10 UNL     1      32.939   4.848  27.592  1.00  0.00     0.075 A 
HETATM   12  C11 UNL     1      32.168   5.905  27.105  1.00  0.00     0.081 A 
HETATM   13  C12 UNL     1      31.616   8.787  25.715  1.00  0.00     0.045 A 
ENDROOT
BRANCH  13  14
HETATM   14  C13 UNL     1      32.529   8.209  24.721  1.00  0.00    -0.020 A 
HETATM   15  C14 UNL     1      33.823   8.662  24.584  1.00  0.00     0.015 A 
HETATM   16  C15 UNL     1      34.716   8.106  23.673  1.00  0.00     0.037 A 
HETATM   17  C16 UNL     1      34.269   7.062  22.888  1.00  0.00     0.068 A 
HETATM   18  C18 UNL     1      32.980   6.594  23.008  1.00  0.00     0.037 A 
HETATM   19  C19 UNL     1      32.138   7.171  23.915  1.00  0.00     0.015 A 
BRANCH  17  20
HETATM   20  O5  UNL     1      35.112   6.449  21.949  1.00  0.00    -0.356 OA
HETATM   21  C17 UNL     1      36.124   5.540  22.383  1.00  0.00     0.210 C 
ENDBRANCH  17  20
ENDBRANCH  13  14
BRANCH  12  22
HETATM   22  O4  UNL     1      31.244   5.597  26.153  1.00  0.00    -0.360 OA
ATOM     23  H4  UNL     1      30.667   6.266  25.807  1.00  0.00     0.217 HD
ENDBRANCH  12  22
BRANCH   1  24
HETATM   24  C3  UNL     1      30.434  10.662  24.470  1.00  0.00     0.271 C 
HETATM   25  N1  UNL     1      31.321  11.622  23.920  1.00  0.00    -0.356 N 
ATOM     26  H1  UNL     1      32.241  11.753  24.342  1.00  0.00     0.162 HD
HETATM   27  O1  UNL     1      29.314  10.577  23.886  1.00  0.00    -0.266 OA
BRANCH  25  28
HETATM   28  C2  UNL     1      30.946  12.419  22.771  1.00  0.00     0.118 C 
HETATM   29  C1  UNL     1      32.118  12.824  21.935  1.00  0.00     0.026 C 
ENDBRANCH  25  28
ENDBRANCH   1  24
BRANCH  10  30
HETATM   30  O3  UNL     1      34.662   4.021  29.051  1.00  0.00    -0.359 OA
ATOM     31  H3  UNL     1      34.493   3.120  28.807  1.00  0.00     0.217 HD
ENDBRANCH  10  30
TORSDOF 6
ENDMDL
