MODEL 1
REMARK VINA RESULT: -8.606585931      0.000      0.000
REMARK  6 active torsions:
REMARK  status: ('A' for Active; 'I' for Inactive)
REMARK    1  A    between atoms: C2_2  and  N1_3 
REMARK       I    between atoms: N1_3  and  C3_5 
REMARK    2  A    between atoms: C3_5  and  C4_7 
REMARK    3  A    between atoms: C9_16  and  O3_17 
REMARK    4  A    between atoms: C11_20  and  O4_21 
REMARK    5  A    between atoms: C12_23  and  C13_24 
REMARK    6  A    between atoms: C16_27  and  O5_28 
ROOT
HETATM    1  C4  UNL     1      34.807   5.114  24.382  1.00  0.00     0.136 A 
HETATM    2  N2  UNL     1      34.963   5.425  23.054  1.00  0.00    -0.254 N 
ATOM      3  H2  UNL     1      35.449   4.841  22.374  1.00  0.00     0.195 HD
HETATM    4  O2  UNL     1      34.410   6.554  22.789  1.00  0.00    -0.235 OA
HETATM    5  C5  UNL     1      33.859   7.071  23.871  1.00  0.00     0.125 A 
HETATM    6  C6  UNL     1      33.148   8.319  24.000  1.00  0.00     0.036 A 
HETATM    7  C7  UNL     1      33.806   9.556  23.874  1.00  0.00     0.044 A 
HETATM    8  C8  UNL     1      33.143  10.737  24.020  1.00  0.00     0.068 A 
HETATM    9 CL1  UNL     1      33.972  12.282  23.861  1.00  0.00    -0.081 Cl
HETATM   10  C9  UNL     1      31.799  10.777  24.300  1.00  0.00     0.090 A 
HETATM   11  C10 UNL     1      31.125   9.584  24.430  1.00  0.00     0.075 A 
HETATM   12  C11 UNL     1      31.814   8.381  24.276  1.00  0.00     0.081 A 
HETATM   13  C12 UNL     1      34.100   6.164  24.907  1.00  0.00     0.045 A 
ENDROOT
BRANCH  13  14
HETATM   14  C13 UNL     1      33.605   6.395  26.269  1.00  0.00    -0.020 A 
HETATM   15  C14 UNL     1      32.569   5.654  26.794  1.00  0.00     0.015 A 
HETATM   16  C15 UNL     1      32.107   5.832  28.095  1.00  0.00     0.037 A 
HETATM   17  C16 UNL     1      32.724   6.792  28.872  1.00  0.00     0.068 A 
HETATM   18  C18 UNL     1      33.761   7.545  28.367  1.00  0.00     0.037 A 
HETATM   19  C19 UNL     1      34.181   7.336  27.085  1.00  0.00     0.015 A 
BRANCH  17  20
HETATM   20  O5  UNL     1      32.315   7.027  30.193  1.00  0.00    -0.356 OA
HETATM   21  C17 UNL     1      32.511   6.025  31.190  1.00  0.00     0.210 C 
ENDBRANCH  17  20
ENDBRANCH  13  14
BRANCH  12  22
HETATM   22  O4  UNL     1      31.083   7.240  24.411  1.00  0.00    -0.360 OA
ATOM     23  H4  UNL     1      30.960   6.656  23.672  1.00  0.00     0.217 HD
ENDBRANCH  12  22
BRANCH   1  24
HETATM   24  C3  UNL     1      35.297   3.924  25.044  1.00  0.00     0.271 C 
HETATM   25  N1  UNL     1      36.649   3.681  25.394  1.00  0.00    -0.356 N 
ATOM     26  H1  UNL     1      37.358   4.381  25.171  1.00  0.00     0.162 HD
HETATM   27  O1  UNL     1      34.493   2.997  25.354  1.00  0.00    -0.266 OA
BRANCH  25  28
HETATM   28  C2  UNL     1      37.044   2.458  26.062  1.00  0.00     0.118 C 
HETATM   29  C1  UNL     1      38.527   2.272  26.107  1.00  0.00     0.026 C 
ENDBRANCH  25  28
ENDBRANCH   1  24
BRANCH  10  30
HETATM   30  O3  UNL     1      31.105  11.989  24.453  1.00  0.00    -0.359 OA
ATOM     31  H3  UNL     1      30.321  12.057  24.984  1.00  0.00     0.217 HD
ENDBRANCH  10  30
TORSDOF 6
ENDMDL
