MODEL 2
REMARK VINA RESULT: -8.358576730      0.501      1.094
REMARK  6 active torsions:
REMARK  status: ('A' for Active; 'I' for Inactive)
REMARK    1  A    between atoms: C2_2  and  N1_3 
REMARK       I    between atoms: N1_3  and  C3_5 
REMARK    2  A    between atoms: C3_5  and  C4_7 
REMARK    3  A    between atoms: C9_16  and  O3_17 
REMARK    4  A    between atoms: C11_20  and  O4_21 
REMARK    5  A    between atoms: C12_23  and  C13_24 
REMARK    6  A    between atoms: C16_27  and  O5_28 
ROOT
HETATM    1  C4  UNL     1      34.756   4.862  24.534  1.00  0.00     0.136 A 
HETATM    2  N2  UNL     1      34.900   5.124  23.194  1.00  0.00    -0.254 N 
ATOM      3  H2  UNL     1      35.353   4.501  22.525  1.00  0.00     0.195 HD
HETATM    4  O2  UNL     1      34.384   6.264  22.899  1.00  0.00    -0.235 OA
HETATM    5  C5  UNL     1      33.871   6.836  23.973  1.00  0.00     0.125 A 
HETATM    6  C6  UNL     1      33.209   8.113  24.071  1.00  0.00     0.036 A 
HETATM    7  C7  UNL     1      33.910   9.320  23.894  1.00  0.00     0.044 A 
HETATM    8  C8  UNL     1      33.293  10.529  24.011  1.00  0.00     0.068 A 
HETATM    9 CL1  UNL     1      34.175  12.036  23.787  1.00  0.00    -0.081 Cl
HETATM   10  C9  UNL     1      31.957  10.629  24.310  1.00  0.00     0.090 A 
HETATM   11  C10 UNL     1      31.241   9.466  24.491  1.00  0.00     0.075 A 
HETATM   12  C11 UNL     1      31.883   8.233  24.366  1.00  0.00     0.081 A 
HETATM   13  C12 UNL     1      34.097   5.955  25.034  1.00  0.00     0.045 A 
ENDROOT
BRANCH  13  14
HETATM   14  C13 UNL     1      33.634   6.249  26.395  1.00  0.00    -0.020 A 
HETATM   15  C14 UNL     1      34.162   7.292  27.125  1.00  0.00     0.015 A 
HETATM   16  C15 UNL     1      33.714   7.612  28.404  1.00  0.00     0.037 A 
HETATM   17  C16 UNL     1      32.701   6.843  28.942  1.00  0.00     0.068 A 
HETATM   18  C18 UNL     1      32.159   5.796  28.231  1.00  0.00     0.037 A 
HETATM   19  C19 UNL     1      32.631   5.518  26.980  1.00  0.00     0.015 A 
BRANCH  17  20
HETATM   20  O5  UNL     1      32.196   7.106  30.224  1.00  0.00    -0.356 OA
HETATM   21  C17 UNL     1      32.435   6.185  31.288  1.00  0.00     0.210 C 
ENDBRANCH  17  20
ENDBRANCH  13  14
BRANCH  12  22
HETATM   22  O4  UNL     1      31.113   7.126  24.551  1.00  0.00    -0.360 OA
ATOM     23  H4  UNL     1      31.506   6.261  24.557  1.00  0.00     0.217 HD
ENDBRANCH  12  22
BRANCH   1  24
HETATM   24  C3  UNL     1      35.213   3.678  25.227  1.00  0.00     0.271 C 
HETATM   25  N1  UNL     1      36.399   3.588  25.998  1.00  0.00    -0.356 N 
ATOM     26  H1  UNL     1      37.001   4.407  26.087  1.00  0.00     0.162 HD
HETATM   27  O1  UNL     1      34.535   2.610  25.168  1.00  0.00    -0.266 OA
BRANCH  25  28
HETATM   28  C2  UNL     1      36.772   2.357  26.662  1.00  0.00     0.118 C 
HETATM   29  C1  UNL     1      36.684   2.449  28.152  1.00  0.00     0.026 C 
ENDBRANCH  25  28
ENDBRANCH   1  24
BRANCH  10  30
HETATM   30  O3  UNL     1      31.310  11.870  24.434  1.00  0.00    -0.359 OA
ATOM     31  H3  UNL     1      30.500  11.970  24.919  1.00  0.00     0.217 HD
ENDBRANCH  10  30
TORSDOF 6
ENDMDL
