MODEL 3
REMARK VINA RESULT: -8.010572738      3.355      5.497
REMARK  6 active torsions:
REMARK  status: ('A' for Active; 'I' for Inactive)
REMARK    1  A    between atoms: C2_2  and  N1_3 
REMARK       I    between atoms: N1_3  and  C3_5 
REMARK    2  A    between atoms: C3_5  and  C4_7 
REMARK    3  A    between atoms: C9_16  and  O3_17 
REMARK    4  A    between atoms: C11_20  and  O4_21 
REMARK    5  A    between atoms: C12_23  and  C13_24 
REMARK    6  A    between atoms: C16_27  and  O5_28 
ROOT
HETATM    1  C4  UNL     1      31.119   8.245  27.223  1.00  0.00     0.136 A 
HETATM    2  N2  UNL     1      30.426   9.313  27.736  1.00  0.00    -0.254 N 
ATOM      3  H2  UNL     1      29.969   9.325  28.648  1.00  0.00     0.195 HD
HETATM    4  O2  UNL     1      30.433  10.295  26.908  1.00  0.00    -0.235 OA
HETATM    5  C5  UNL     1      31.106   9.981  25.816  1.00  0.00     0.125 A 
HETATM    6  C6  UNL     1      31.344  10.796  24.651  1.00  0.00     0.036 A 
HETATM    7  C7  UNL     1      30.301  11.152  23.776  1.00  0.00     0.044 A 
HETATM    8  C8  UNL     1      30.526  11.900  22.661  1.00  0.00     0.068 A 
HETATM    9 CL1  UNL     1      29.216  12.342  21.571  1.00  0.00    -0.081 Cl
HETATM   10  C9  UNL     1      31.784  12.343  22.334  1.00  0.00     0.090 A 
HETATM   11  C10 UNL     1      32.828  12.012  23.169  1.00  0.00     0.075 A 
HETATM   12  C11 UNL     1      32.585  11.247  24.310  1.00  0.00     0.081 A 
HETATM   13  C12 UNL     1      31.557   8.670  25.996  1.00  0.00     0.045 A 
ENDROOT
BRANCH  13  14
HETATM   14  C13 UNL     1      32.373   7.988  24.985  1.00  0.00    -0.020 A 
HETATM   15  C14 UNL     1      33.750   8.044  25.014  1.00  0.00     0.015 A 
HETATM   16  C15 UNL     1      34.544   7.375  24.087  1.00  0.00     0.037 A 
HETATM   17  C16 UNL     1      33.910   6.634  23.111  1.00  0.00     0.068 A 
HETATM   18  C18 UNL     1      32.536   6.565  23.062  1.00  0.00     0.037 A 
HETATM   19  C19 UNL     1      31.796   7.237  23.992  1.00  0.00     0.015 A 
BRANCH  17  20
HETATM   20  O5  UNL     1      34.644   5.932  22.143  1.00  0.00    -0.356 OA
HETATM   21  C17 UNL     1      35.869   6.470  21.646  1.00  0.00     0.210 C 
ENDBRANCH  17  20
ENDBRANCH  13  14
BRANCH  12  22
HETATM   22  O4  UNL     1      33.662  10.963  25.093  1.00  0.00    -0.360 OA
ATOM     23  H4  UNL     1      34.345  10.382  24.781  1.00  0.00     0.217 HD
ENDBRANCH  12  22
BRANCH   1  24
HETATM   24  C3  UNL     1      31.323   6.967  27.870  1.00  0.00     0.271 C 
HETATM   25  N1  UNL     1      31.986   6.774  29.108  1.00  0.00    -0.356 N 
ATOM     26  H1  UNL     1      32.364   7.581  29.605  1.00  0.00     0.162 HD
HETATM   27  O1  UNL     1      30.896   5.908  27.325  1.00  0.00    -0.266 OA
BRANCH  25  28
HETATM   28  C2  UNL     1      32.137   5.453  29.681  1.00  0.00     0.118 C 
HETATM   29  C1  UNL     1      31.836   5.416  31.146  1.00  0.00     0.026 C 
ENDBRANCH  25  28
ENDBRANCH   1  24
BRANCH  10  30
HETATM   30  O3  UNL     1      32.028  13.115  21.187  1.00  0.00    -0.359 OA
ATOM     31  H3  UNL     1      31.380  13.712  20.833  1.00  0.00     0.217 HD
ENDBRANCH  10  30
TORSDOF 6
ENDMDL
