MODEL 7
REMARK VINA RESULT: -7.393182496      1.430      1.778
REMARK  6 active torsions:
REMARK  status: ('A' for Active; 'I' for Inactive)
REMARK    1  A    between atoms: C2_2  and  C3_3 
REMARK    2  A    between atoms: C2_2  and  N2_11 
REMARK       I    between atoms: C3_3  and  N1_5 
REMARK    3  A    between atoms: C10_14  and  N3_15 
REMARK    4  A    between atoms: N3_15  and  S1_17 
REMARK    5  A    between atoms: S1_17  and  C11_20 
REMARK    6  A    between atoms: C12_21  and  C13_22 
ROOT
HETATM    1  N2  UNL     1       6.363   6.448  19.318  1.00  0.00    -0.337 N 
HETATM    2  C8  UNL     1       6.291   7.347  18.195  1.00  0.00     0.129 C 
HETATM    3  C9  UNL     1       5.770   8.630  18.765  1.00  0.00     0.055 C 
HETATM    4  C10 UNL     1       6.284   8.689  20.151  1.00  0.00     0.186 C 
HETATM    5  C17 UNL     1       6.509   7.282  20.488  1.00  0.00     0.244 C 
HETATM    6  O5  UNL     1       6.797   6.822  21.643  1.00  0.00    -0.271 OA
ENDROOT
BRANCH   4   7
HETATM    7  N3  UNL     1       7.484   9.475  20.321  1.00  0.00    -0.302 N 
ATOM      8  H3  UNL     1       8.219   9.551  19.617  1.00  0.00     0.173 HD
BRANCH   7   9
HETATM    9  S1  UNL     1       7.530  10.268  21.851  1.00  0.00     0.249 S 
HETATM   10  O3  UNL     1       6.214  10.211  22.550  1.00  0.00    -0.201 OA
HETATM   11  O4  UNL     1       7.964  11.697  21.596  1.00  0.00    -0.201 OA
BRANCH   9  12
HETATM   12  C11 UNL     1       8.758   9.566  22.906  1.00  0.00     0.132 C 
HETATM   13  C12 UNL     1       8.577   9.418  24.192  1.00  0.00     0.032 C 
BRANCH  13  14
HETATM   14  C13 UNL     1       9.632   8.827  25.029  1.00  0.00     0.007 A 
HETATM   15  C14 UNL     1       9.532   8.096  26.182  1.00  0.00     0.021 A 
HETATM   16  C15 UNL     1      10.668   7.676  26.746  1.00  0.00     0.033 A 
HETATM   17  C16 UNL     1      11.843   8.010  26.127  1.00  0.00     0.075 A 
HETATM   18 CL1  UNL     1      13.490   7.600  26.633  1.00  0.00    -0.076 Cl
HETATM   19  S2  UNL     1      11.314   8.904  24.770  1.00  0.00    -0.078 SA
ENDBRANCH  13  14
ENDBRANCH   9  12
ENDBRANCH   7   9
ENDBRANCH   4   7
BRANCH   1  20
HETATM   20  C2  UNL     1       6.287   4.998  19.377  1.00  0.00     0.175 C 
HETATM   21  C1  UNL     1       5.254   4.423  18.436  1.00  0.00     0.042 C 
BRANCH  20  22
HETATM   22  C3  UNL     1       7.555   4.304  19.260  1.00  0.00     0.242 C 
HETATM   23  O1  UNL     1       8.143   3.896  20.345  1.00  0.00    -0.271 OA
HETATM   24  N1  UNL     1       8.242   4.009  18.088  1.00  0.00    -0.346 N 
HETATM   25  C4  UNL     1       7.834   4.297  16.739  1.00  0.00     0.152 C 
HETATM   26  C7  UNL     1       9.567   3.311  18.143  1.00  0.00     0.152 C 
HETATM   27  C5  UNL     1       8.490   3.239  15.824  1.00  0.00     0.187 C 
HETATM   28  O2  UNL     1       8.468   2.000  16.440  1.00  0.00    -0.388 OA
HETATM   29  C6  UNL     1       9.282   1.935  17.557  1.00  0.00     0.187 C 
ENDBRANCH  20  22
ENDBRANCH   1  20
TORSDOF 6
ENDMDL
