MODEL 4
REMARK VINA RESULT: -7.517304630      1.876      2.389
REMARK  6 active torsions:
REMARK  status: ('A' for Active; 'I' for Inactive)
REMARK    1  A    between atoms: C2_2  and  C3_3 
REMARK    2  A    between atoms: C2_2  and  N2_11 
REMARK       I    between atoms: C3_3  and  N1_5 
REMARK    3  A    between atoms: C10_14  and  N3_15 
REMARK    4  A    between atoms: N3_15  and  S1_17 
REMARK    5  A    between atoms: S1_17  and  C11_20 
REMARK    6  A    between atoms: C12_21  and  C13_22 
ROOT
HETATM    1  N2  UNL     1       6.493   5.843  19.737  1.00  0.00    -0.337 N 
HETATM    2  C8  UNL     1       7.615   5.884  20.640  1.00  0.00     0.129 C 
HETATM    3  C9  UNL     1       7.560   7.248  21.256  1.00  0.00     0.055 C 
HETATM    4  C10 UNL     1       6.123   7.601  21.316  1.00  0.00     0.186 C 
HETATM    5  C17 UNL     1       5.531   6.789  20.252  1.00  0.00     0.244 C 
HETATM    6  O5  UNL     1       4.335   6.878  19.816  1.00  0.00    -0.271 OA
ENDROOT
BRANCH   4   7
HETATM    7  N3  UNL     1       5.490   7.351  22.590  1.00  0.00    -0.302 N 
ATOM      8  H3  UNL     1       4.808   6.610  22.752  1.00  0.00     0.173 HD
BRANCH   7   9
HETATM    9  S1  UNL     1       6.022   8.452  23.806  1.00  0.00     0.249 S 
HETATM   10  O3  UNL     1       5.045   8.561  24.928  1.00  0.00    -0.201 OA
HETATM   11  O4  UNL     1       6.242   9.789  23.128  1.00  0.00    -0.201 OA
BRANCH   9  12
HETATM   12  C11 UNL     1       7.588   7.978  24.467  1.00  0.00     0.132 C 
HETATM   13  C12 UNL     1       8.337   8.799  25.156  1.00  0.00     0.032 C 
BRANCH  13  14
HETATM   14  C13 UNL     1       9.635   8.355  25.686  1.00  0.00     0.007 A 
HETATM   15  C14 UNL     1       9.918   7.565  26.767  1.00  0.00     0.021 A 
HETATM   16  C15 UNL     1      11.205   7.316  27.028  1.00  0.00     0.033 A 
HETATM   17  C16 UNL     1      12.138   7.872  26.194  1.00  0.00     0.075 A 
HETATM   18 CL1  UNL     1      13.901   7.722  26.287  1.00  0.00    -0.076 Cl
HETATM   19  S2  UNL     1      11.179   8.726  25.069  1.00  0.00    -0.078 SA
ENDBRANCH  13  14
ENDBRANCH   9  12
ENDBRANCH   7   9
ENDBRANCH   4   7
BRANCH   1  20
HETATM   20  C2  UNL     1       6.282   5.072  18.523  1.00  0.00     0.175 C 
HETATM   21  C1  UNL     1       6.798   5.769  17.285  1.00  0.00     0.042 C 
BRANCH  20  22
HETATM   22  C3  UNL     1       6.725   3.692  18.579  1.00  0.00     0.242 C 
HETATM   23  O1  UNL     1       5.839   2.763  18.783  1.00  0.00    -0.271 OA
HETATM   24  N1  UNL     1       8.026   3.224  18.432  1.00  0.00    -0.346 N 
HETATM   25  C4  UNL     1       9.208   3.999  18.164  1.00  0.00     0.152 C 
HETATM   26  C7  UNL     1       8.321   1.760  18.551  1.00  0.00     0.152 C 
HETATM   27  C5  UNL     1      10.204   3.077  17.426  1.00  0.00     0.187 C 
HETATM   28  O2  UNL     1       9.528   2.273  16.525  1.00  0.00    -0.388 OA
HETATM   29  C6  UNL     1       8.703   1.346  17.137  1.00  0.00     0.187 C 
ENDBRANCH  20  22
ENDBRANCH   1  20
TORSDOF 6
ENDMDL
