MODEL 8
REMARK VINA RESULT: -7.325424847      4.247      7.960
REMARK  6 active torsions:
REMARK  status: ('A' for Active; 'I' for Inactive)
REMARK    1  A    between atoms: C2_2  and  C3_3 
REMARK    2  A    between atoms: C2_2  and  N2_11 
REMARK       I    between atoms: C3_3  and  N1_5 
REMARK    3  A    between atoms: C10_14  and  N3_15 
REMARK    4  A    between atoms: N3_15  and  S1_17 
REMARK    5  A    between atoms: S1_17  and  C11_20 
REMARK    6  A    between atoms: C12_21  and  C13_22 
ROOT
HETATM    1  N2  UNL     1       6.726  10.576  19.852  1.00  0.00    -0.337 N 
HETATM    2  C8  UNL     1       5.745  11.340  19.125  1.00  0.00     0.129 C 
HETATM    3  C9  UNL     1       5.859  10.862  17.710  1.00  0.00     0.055 C 
HETATM    4  C10 UNL     1       6.257   9.439  17.801  1.00  0.00     0.186 C 
HETATM    5  C17 UNL     1       6.914   9.354  19.106  1.00  0.00     0.244 C 
HETATM    6  O5  UNL     1       7.569   8.355  19.554  1.00  0.00    -0.271 OA
ENDROOT
BRANCH   4   7
HETATM    7  N3  UNL     1       5.168   8.497  17.692  1.00  0.00    -0.302 N 
ATOM      8  H3  UNL     1       4.315   8.545  18.249  1.00  0.00     0.173 HD
BRANCH   7   9
HETATM    9  S1  UNL     1       5.478   7.281  16.509  1.00  0.00     0.249 S 
HETATM   10  O3  UNL     1       6.004   7.857  15.239  1.00  0.00    -0.201 OA
HETATM   11  O4  UNL     1       4.176   6.538  16.287  1.00  0.00    -0.201 OA
BRANCH   9  12
HETATM   12  C11 UNL     1       6.628   6.081  17.102  1.00  0.00     0.132 C 
HETATM   13  C12 UNL     1       7.045   5.085  16.366  1.00  0.00     0.032 C 
BRANCH  13  14
HETATM   14  C13 UNL     1       8.006   4.111  16.906  1.00  0.00     0.007 A 
HETATM   15  C14 UNL     1       8.878   4.226  17.954  1.00  0.00     0.021 A 
HETATM   16  C15 UNL     1       9.648   3.171  18.233  1.00  0.00     0.033 A 
HETATM   17  C16 UNL     1       9.505   2.057  17.450  1.00  0.00     0.075 A 
HETATM   18 CL1  UNL     1      10.378   0.522  17.577  1.00  0.00    -0.076 Cl
HETATM   19  S2  UNL     1       8.291   2.528  16.344  1.00  0.00    -0.078 SA
ENDBRANCH  13  14
ENDBRANCH   9  12
ENDBRANCH   7   9
ENDBRANCH   4   7
BRANCH   1  20
HETATM   20  C2  UNL     1       7.456  10.887  21.070  1.00  0.00     0.175 C 
HETATM   21  C1  UNL     1       7.753  12.362  21.219  1.00  0.00     0.042 C 
BRANCH  20  22
HETATM   22  C3  UNL     1       6.897  10.333  22.288  1.00  0.00     0.242 C 
HETATM   23  O1  UNL     1       5.605  10.226  22.386  1.00  0.00    -0.271 OA
HETATM   24  N1  UNL     1       7.598   9.883  23.401  1.00  0.00    -0.346 N 
HETATM   25  C4  UNL     1       9.025   9.841  23.577  1.00  0.00     0.152 C 
HETATM   26  C7  UNL     1       6.862   9.367  24.600  1.00  0.00     0.152 C 
HETATM   27  C5  UNL     1       9.331   8.699  24.571  1.00  0.00     0.187 C 
HETATM   28  O2  UNL     1       8.503   7.618  24.322  1.00  0.00    -0.388 OA
HETATM   29  C6  UNL     1       7.174   7.876  24.608  1.00  0.00     0.187 C 
ENDBRANCH  20  22
ENDBRANCH   1  20
TORSDOF 6
ENDMDL
