MODEL 1
REMARK VINA RESULT: -7.726687727      0.000      0.000
REMARK  6 active torsions:
REMARK  status: ('A' for Active; 'I' for Inactive)
REMARK    1  A    between atoms: C2_2  and  C3_3 
REMARK    2  A    between atoms: C2_2  and  N2_11 
REMARK       I    between atoms: C3_3  and  N1_5 
REMARK    3  A    between atoms: C10_14  and  N3_15 
REMARK    4  A    between atoms: N3_15  and  S1_17 
REMARK    5  A    between atoms: S1_17  and  C11_20 
REMARK    6  A    between atoms: C12_21  and  C13_22 
ROOT
HETATM    1  N2  UNL     1       5.997   5.532  20.175  1.00  0.00    -0.337 N 
HETATM    2  C8  UNL     1       4.782   6.301  20.093  1.00  0.00     0.129 C 
HETATM    3  C9  UNL     1       4.979   7.432  21.055  1.00  0.00     0.055 C 
HETATM    4  C10 UNL     1       6.431   7.719  21.040  1.00  0.00     0.186 C 
HETATM    5  C17 UNL     1       7.022   6.450  20.611  1.00  0.00     0.244 C 
HETATM    6  O5  UNL     1       8.265   6.163  20.609  1.00  0.00    -0.271 OA
ENDROOT
BRANCH   4   7
HETATM    7  N3  UNL     1       6.825   8.808  20.178  1.00  0.00    -0.302 N 
ATOM      8  H3  UNL     1       6.588   8.865  19.187  1.00  0.00     0.173 HD
BRANCH   7   9
HETATM    9  S1  UNL     1       7.743  10.002  21.018  1.00  0.00     0.249 S 
HETATM   10  O3  UNL     1       6.874  11.058  21.612  1.00  0.00    -0.201 OA
HETATM   11  O4  UNL     1       8.727  10.583  20.024  1.00  0.00    -0.201 OA
BRANCH   9  12
HETATM   12  C11 UNL     1       8.715   9.283  22.303  1.00  0.00     0.132 C 
HETATM   13  C12 UNL     1       8.631   9.672  23.549  1.00  0.00     0.032 C 
BRANCH  13  14
HETATM   14  C13 UNL     1       9.463   9.042  24.584  1.00  0.00     0.007 A 
HETATM   15  C14 UNL     1       9.094   8.373  25.720  1.00  0.00     0.021 A 
HETATM   16  C15 UNL     1      10.070   7.894  26.497  1.00  0.00     0.033 A 
HETATM   17  C16 UNL     1      11.361   8.109  26.096  1.00  0.00     0.075 A 
HETATM   18 CL1  UNL     1      12.849   7.599  26.910  1.00  0.00    -0.076 Cl
HETATM   19  S2  UNL     1      11.164   8.979  24.639  1.00  0.00    -0.078 SA
ENDBRANCH  13  14
ENDBRANCH   9  12
ENDBRANCH   7   9
ENDBRANCH   4   7
BRANCH   1  20
HETATM   20  C2  UNL     1       6.244   4.122  19.922  1.00  0.00     0.175 C 
HETATM   21  C1  UNL     1       5.105   3.234  20.370  1.00  0.00     0.042 C 
BRANCH  20  22
HETATM   22  C3  UNL     1       6.672   3.797  18.576  1.00  0.00     0.242 C 
HETATM   23  O1  UNL     1       6.171   4.472  17.585  1.00  0.00    -0.271 OA
HETATM   24  N1  UNL     1       7.588   2.820  18.202  1.00  0.00    -0.346 N 
HETATM   25  C4  UNL     1       8.331   1.942  19.065  1.00  0.00     0.152 C 
HETATM   26  C7  UNL     1       7.897   2.588  16.754  1.00  0.00     0.152 C 
HETATM   27  C5  UNL     1       9.637   1.569  18.329  1.00  0.00     0.187 C 
HETATM   28  O2  UNL     1      10.134   2.673  17.658  1.00  0.00    -0.388 OA
HETATM   29  C6  UNL     1       9.333   3.072  16.603  1.00  0.00     0.187 C 
ENDBRANCH  20  22
ENDBRANCH   1  20
TORSDOF 6
ENDMDL
