MODEL 17
REMARK VINA RESULT: -7.095226533      1.861      2.308
REMARK  6 active torsions:
REMARK  status: ('A' for Active; 'I' for Inactive)
REMARK    1  A    between atoms: C2_2  and  C3_3 
REMARK    2  A    between atoms: C2_2  and  N2_11 
REMARK       I    between atoms: C3_3  and  N1_5 
REMARK    3  A    between atoms: C10_14  and  N3_15 
REMARK    4  A    between atoms: N3_15  and  S1_17 
REMARK    5  A    between atoms: S1_17  and  C11_20 
REMARK    6  A    between atoms: C12_21  and  C13_22 
ROOT
HETATM    1  N2  UNL     1       7.057   6.120  19.300  1.00  0.00    -0.337 N 
HETATM    2  C8  UNL     1       5.839   5.676  19.926  1.00  0.00     0.129 C 
HETATM    3  C9  UNL     1       5.970   6.094  21.358  1.00  0.00     0.055 C 
HETATM    4  C10 UNL     1       6.772   7.338  21.338  1.00  0.00     0.186 C 
HETATM    5  C17 UNL     1       7.531   7.231  20.091  1.00  0.00     0.244 C 
HETATM    6  O5  UNL     1       8.485   7.995  19.724  1.00  0.00    -0.271 OA
ENDROOT
BRANCH   4   7
HETATM    7  N3  UNL     1       6.001   8.558  21.388  1.00  0.00    -0.302 N 
ATOM      8  H3  UNL     1       5.233   8.773  20.751  1.00  0.00     0.173 HD
BRANCH   7   9
HETATM    9  S1  UNL     1       6.529   9.609  22.649  1.00  0.00     0.249 S 
HETATM   10  O3  UNL     1       5.479   9.806  23.689  1.00  0.00    -0.201 OA
HETATM   11  O4  UNL     1       6.920  10.920  21.997  1.00  0.00    -0.201 OA
BRANCH   9  12
HETATM   12  C11 UNL     1       7.989   8.999  23.430  1.00  0.00     0.132 C 
HETATM   13  C12 UNL     1       8.240   9.192  24.698  1.00  0.00     0.032 C 
BRANCH  13  14
HETATM   14  C13 UNL     1       9.471   8.663  25.303  1.00  0.00     0.007 A 
HETATM   15  C14 UNL     1       9.638   7.879  26.412  1.00  0.00     0.021 A 
HETATM   16  C15 UNL     1      10.886   7.538  26.744  1.00  0.00     0.033 A 
HETATM   17  C16 UNL     1      11.901   8.000  25.949  1.00  0.00     0.075 A 
HETATM   18 CL1  UNL     1      13.639   7.717  26.135  1.00  0.00    -0.076 Cl
HETATM   19  S2  UNL     1      11.068   8.899  24.759  1.00  0.00    -0.078 SA
ENDBRANCH  13  14
ENDBRANCH   9  12
ENDBRANCH   7   9
ENDBRANCH   4   7
BRANCH   1  20
HETATM   20  C2  UNL     1       7.763   5.613  18.134  1.00  0.00     0.175 C 
HETATM   21  C1  UNL     1       8.668   4.446  18.455  1.00  0.00     0.042 C 
BRANCH  20  22
HETATM   22  C3  UNL     1       6.933   5.338  16.977  1.00  0.00     0.242 C 
HETATM   23  O1  UNL     1       6.747   6.286  16.107  1.00  0.00    -0.271 OA
HETATM   24  N1  UNL     1       6.293   4.143  16.671  1.00  0.00    -0.346 N 
HETATM   25  C4  UNL     1       6.336   2.913  17.415  1.00  0.00     0.152 C 
HETATM   26  C7  UNL     1       5.440   4.034  15.445  1.00  0.00     0.152 C 
HETATM   27  C5  UNL     1       6.099   1.761  16.414  1.00  0.00     0.187 C 
HETATM   28  O2  UNL     1       6.757   2.023  15.224  1.00  0.00    -0.388 OA
HETATM   29  C6  UNL     1       6.221   3.097  14.535  1.00  0.00     0.187 C 
ENDBRANCH  20  22
ENDBRANCH   1  20
TORSDOF 6
ENDMDL
