MODEL 5
REMARK VINA RESULT: -7.482506286      4.096      7.978
REMARK  6 active torsions:
REMARK  status: ('A' for Active; 'I' for Inactive)
REMARK    1  A    between atoms: C2_2  and  C3_3 
REMARK    2  A    between atoms: C2_2  and  N2_11 
REMARK       I    between atoms: C3_3  and  N1_5 
REMARK    3  A    between atoms: C10_14  and  N3_15 
REMARK    4  A    between atoms: N3_15  and  S1_17 
REMARK    5  A    between atoms: S1_17  and  C11_20 
REMARK    6  A    between atoms: C12_21  and  C13_22 
ROOT
HETATM    1  N2  UNL     1       7.836   8.340  22.048  1.00  0.00    -0.337 N 
HETATM    2  C8  UNL     1       8.436   9.477  21.397  1.00  0.00     0.129 C 
HETATM    3  C9  UNL     1       8.912   8.954  20.077  1.00  0.00     0.055 C 
HETATM    4  C10 UNL     1       7.958   7.885  19.703  1.00  0.00     0.186 C 
HETATM    5  C17 UNL     1       7.417   7.450  20.992  1.00  0.00     0.244 C 
HETATM    6  O5  UNL     1       6.675   6.430  21.189  1.00  0.00    -0.271 OA
ENDROOT
BRANCH   4   7
HETATM    7  N3  UNL     1       6.910   8.297  18.799  1.00  0.00    -0.302 N 
ATOM      8  H3  UNL     1       6.536   9.245  18.754  1.00  0.00     0.173 HD
BRANCH   7   9
HETATM    9  S1  UNL     1       6.365   6.999  17.803  1.00  0.00     0.249 S 
HETATM   10  O3  UNL     1       6.276   7.395  16.368  1.00  0.00    -0.201 OA
HETATM   11  O4  UNL     1       5.020   6.560  18.345  1.00  0.00    -0.201 OA
BRANCH   9  12
HETATM   12  C11 UNL     1       7.425   5.595  17.934  1.00  0.00     0.132 C 
HETATM   13  C12 UNL     1       7.569   4.730  16.964  1.00  0.00     0.032 C 
BRANCH  13  14
HETATM   14  C13 UNL     1       8.465   3.575  17.123  1.00  0.00     0.007 A 
HETATM   15  C14 UNL     1       9.625   3.455  17.839  1.00  0.00     0.021 A 
HETATM   16  C15 UNL     1      10.249   2.275  17.808  1.00  0.00     0.033 A 
HETATM   17  C16 UNL     1       9.680   1.277  17.062  1.00  0.00     0.075 A 
HETATM   18 CL1  UNL     1      10.270  -0.377  16.833  1.00  0.00    -0.076 Cl
HETATM   19  S2  UNL     1       8.284   2.030  16.427  1.00  0.00    -0.078 SA
ENDBRANCH  13  14
ENDBRANCH   9  12
ENDBRANCH   7   9
ENDBRANCH   4   7
BRANCH   1  20
HETATM   20  C2  UNL     1       7.664   8.040  23.460  1.00  0.00     0.175 C 
HETATM   21  C1  UNL     1       8.930   8.234  24.262  1.00  0.00     0.042 C 
BRANCH  20  22
HETATM   22  C3  UNL     1       6.529   8.678  24.097  1.00  0.00     0.242 C 
HETATM   23  O1  UNL     1       6.720   9.792  24.737  1.00  0.00    -0.271 OA
HETATM   24  N1  UNL     1       5.213   8.229  24.105  1.00  0.00    -0.346 N 
HETATM   25  C4  UNL     1       4.685   7.056  23.460  1.00  0.00     0.152 C 
HETATM   26  C7  UNL     1       4.157   8.993  24.844  1.00  0.00     0.152 C 
HETATM   27  C5  UNL     1       3.196   7.329  23.156  1.00  0.00     0.187 C 
HETATM   28  O2  UNL     1       3.029   8.638  22.739  1.00  0.00    -0.388 OA
HETATM   29  C6  UNL     1       3.274   9.561  23.741  1.00  0.00     0.187 C 
ENDBRANCH  20  22
ENDBRANCH   1  20
TORSDOF 6
ENDMDL
