MODEL 9
REMARK VINA RESULT: -7.292473783      3.782      7.593
REMARK  6 active torsions:
REMARK  status: ('A' for Active; 'I' for Inactive)
REMARK    1  A    between atoms: C2_2  and  C3_3 
REMARK    2  A    between atoms: C2_2  and  N2_11 
REMARK       I    between atoms: C3_3  and  N1_5 
REMARK    3  A    between atoms: C10_14  and  N3_15 
REMARK    4  A    between atoms: N3_15  and  S1_17 
REMARK    5  A    between atoms: S1_17  and  C11_20 
REMARK    6  A    between atoms: C12_21  and  C13_22 
ROOT
HETATM    1  N2  UNL     1       6.191   9.662  22.187  1.00  0.00    -0.337 N 
HETATM    2  C8  UNL     1       5.145  10.431  21.563  1.00  0.00     0.129 C 
HETATM    3  C9  UNL     1       5.383  10.278  20.093  1.00  0.00     0.055 C 
HETATM    4  C10 UNL     1       5.968   8.929  19.922  1.00  0.00     0.186 C 
HETATM    5  C17 UNL     1       6.575   8.656  21.226  1.00  0.00     0.244 C 
HETATM    6  O5  UNL     1       7.341   7.675  21.507  1.00  0.00    -0.271 OA
ENDROOT
BRANCH   4   7
HETATM    7  N3  UNL     1       5.023   7.901  19.550  1.00  0.00    -0.302 N 
ATOM      8  H3  UNL     1       4.238   7.611  20.133  1.00  0.00     0.173 HD
BRANCH   7   9
HETATM    9  S1  UNL     1       5.378   7.222  18.005  1.00  0.00     0.249 S 
HETATM   10  O3  UNL     1       6.274   8.101  17.200  1.00  0.00    -0.201 OA
HETATM   11  O4  UNL     1       4.053   6.990  17.309  1.00  0.00    -0.201 OA
BRANCH   9  12
HETATM   12  C11 UNL     1       6.133   5.635  18.155  1.00  0.00     0.132 C 
HETATM   13  C12 UNL     1       7.418   5.483  18.342  1.00  0.00     0.032 C 
BRANCH  13  14
HETATM   14  C13 UNL     1       8.000   4.138  18.461  1.00  0.00     0.007 A 
HETATM   15  C14 UNL     1       7.620   3.083  19.245  1.00  0.00     0.021 A 
HETATM   16  C15 UNL     1       8.336   1.959  19.156  1.00  0.00     0.033 A 
HETATM   17  C16 UNL     1       9.395   1.951  18.288  1.00  0.00     0.075 A 
HETATM   18 CL1  UNL     1      10.517   0.621  17.958  1.00  0.00    -0.076 Cl
HETATM   19  S2  UNL     1       9.351   3.524  17.624  1.00  0.00    -0.078 SA
ENDBRANCH  13  14
ENDBRANCH   9  12
ENDBRANCH   7   9
ENDBRANCH   4   7
BRANCH   1  20
HETATM   20  C2  UNL     1       6.819   9.801  23.491  1.00  0.00     0.175 C 
HETATM   21  C1  UNL     1       6.311   8.797  24.500  1.00  0.00     0.042 C 
BRANCH  20  22
HETATM   22  C3  UNL     1       8.268   9.854  23.480  1.00  0.00     0.242 C 
HETATM   23  O1  UNL     1       8.851  10.769  22.764  1.00  0.00    -0.271 OA
HETATM   24  N1  UNL     1       9.142   9.019  24.167  1.00  0.00    -0.346 N 
HETATM   25  C4  UNL     1       8.802   7.944  25.060  1.00  0.00     0.152 C 
HETATM   26  C7  UNL     1      10.623   9.189  24.020  1.00  0.00     0.152 C 
HETATM   27  C5  UNL     1       9.969   7.791  26.060  1.00  0.00     0.187 C 
HETATM   28  O2  UNL     1      10.450   9.037  26.423  1.00  0.00    -0.388 OA
HETATM   29  C6  UNL     1      11.072   9.703  25.382  1.00  0.00     0.187 C 
ENDBRANCH  20  22
ENDBRANCH   1  20
TORSDOF 6
ENDMDL
