MODEL 7
REMARK VINA RESULT: -7.297561396      3.715      7.807
REMARK  6 active torsions:
REMARK  status: ('A' for Active; 'I' for Inactive)
REMARK    1  A    between atoms: C2_2  and  C15_25 
REMARK    2  A    between atoms: C3_3  and  S1_4 
REMARK    3  A    between atoms: S1_4  and  N1_7 
REMARK    4  A    between atoms: N1_7  and  C4_9 
REMARK    5  A    between atoms: N2_12  and  C7_13 
REMARK    6  A    between atoms: C7_13  and  C9_15 
REMARK       I    between atoms: C9_15  and  N3_17 
ROOT
HETATM    1  C4  UNL     1       5.797   7.332  22.458  1.00  0.00     0.186 C 
HETATM    2  C5  UNL     1       5.429   8.079  23.726  1.00  0.00     0.055 C 
HETATM    3  C6  UNL     1       6.499   9.171  23.753  1.00  0.00     0.129 C 
HETATM    4  N2  UNL     1       7.675   8.394  23.382  1.00  0.00    -0.337 N 
HETATM    5  C14 UNL     1       7.285   7.343  22.509  1.00  0.00     0.244 C 
HETATM    6  O5  UNL     1       8.101   6.591  21.917  1.00  0.00    -0.271 OA
ENDROOT
BRANCH   1   7
HETATM    7  N1  UNL     1       5.354   5.976  22.562  1.00  0.00    -0.302 N 
ATOM      8  H1  UNL     1       5.378   5.445  23.432  1.00  0.00     0.173 HD
BRANCH   7   9
HETATM    9  S1  UNL     1       4.779   5.333  21.089  1.00  0.00     0.250 S 
HETATM   10  O1  UNL     1       3.478   4.639  21.299  1.00  0.00    -0.201 OA
HETATM   11  O2  UNL     1       4.562   6.499  20.136  1.00  0.00    -0.201 OA
BRANCH   9  12
HETATM   12  C3  UNL     1       5.994   4.262  20.430  1.00  0.00     0.139 C 
HETATM   13  C2  UNL     1       6.805   4.615  19.459  1.00  0.00    -0.032 C 
HETATM   14  C1  UNL     1       6.698   5.966  18.895  1.00  0.00     0.050 C 
BRANCH  13  15
HETATM   15  C15 UNL     1       7.828   3.690  18.915  1.00  0.00     0.013 A 
HETATM   16  C16 UNL     1       8.804   3.970  17.997  1.00  0.00     0.021 A 
HETATM   17  C17 UNL     1       9.625   2.974  17.647  1.00  0.00     0.033 A 
HETATM   18  C18 UNL     1       9.421   1.755  18.235  1.00  0.00     0.075 A 
HETATM   19 CL1  UNL     1      10.340   0.260  17.971  1.00  0.00    -0.076 Cl
HETATM   20  S2  UNL     1       8.087   2.041  19.259  1.00  0.00    -0.078 SA
ENDBRANCH  13  15
ENDBRANCH   9  12
ENDBRANCH   7   9
ENDBRANCH   1   7
BRANCH   4  21
HETATM   21  C7  UNL     1       9.045   8.639  23.826  1.00  0.00     0.175 C 
HETATM   22  C8  UNL     1       9.210  10.128  24.088  1.00  0.00     0.042 C 
BRANCH  21  23
HETATM   23  C9  UNL     1       9.254   7.939  25.138  1.00  0.00     0.242 C 
HETATM   24  O3  UNL     1       8.296   7.266  25.648  1.00  0.00    -0.271 OA
HETATM   25  N3  UNL     1      10.492   8.022  25.798  1.00  0.00    -0.346 N 
HETATM   26  C10 UNL     1      10.686   7.355  27.046  1.00  0.00     0.152 C 
HETATM   27  C13 UNL     1      11.570   8.785  25.205  1.00  0.00     0.152 C 
HETATM   28  C11 UNL     1      12.105   7.003  27.353  1.00  0.00     0.187 C 
HETATM   29  O4  UNL     1      13.043   7.755  26.695  1.00  0.00    -0.388 OA
HETATM   30  C12 UNL     1      12.824   7.912  25.349  1.00  0.00     0.187 C 
ENDBRANCH  21  23
ENDBRANCH   4  21
TORSDOF 6
ENDMDL
