MODEL 3
REMARK VINA RESULT: -7.659150988      3.900      8.126
REMARK  6 active torsions:
REMARK  status: ('A' for Active; 'I' for Inactive)
REMARK    1  A    between atoms: C2_2  and  C15_25 
REMARK    2  A    between atoms: C3_3  and  S1_4 
REMARK    3  A    between atoms: S1_4  and  N1_7 
REMARK    4  A    between atoms: N1_7  and  C4_9 
REMARK    5  A    between atoms: N2_12  and  C7_13 
REMARK    6  A    between atoms: C7_13  and  C9_15 
REMARK       I    between atoms: C9_15  and  N3_17 
ROOT
HETATM    1  C4  UNL     1       6.733   7.278  20.895  1.00  0.00     0.186 C 
HETATM    2  C5  UNL     1       7.784   8.314  20.543  1.00  0.00     0.055 C 
HETATM    3  C6  UNL     1       8.579   8.391  21.847  1.00  0.00     0.129 C 
HETATM    4  N2  UNL     1       7.490   8.393  22.816  1.00  0.00    -0.337 N 
HETATM    5  C14 UNL     1       6.406   7.630  22.304  1.00  0.00     0.244 C 
HETATM    6  O5  UNL     1       5.381   7.340  22.972  1.00  0.00    -0.271 OA
ENDROOT
BRANCH   1   7
HETATM    7  N1  UNL     1       5.567   7.496  20.094  1.00  0.00    -0.302 N 
ATOM      8  H1  UNL     1       4.739   7.983  20.435  1.00  0.00     0.173 HD
BRANCH   7   9
HETATM    9  S1  UNL     1       5.698   6.864  18.514  1.00  0.00     0.250 S 
HETATM   10  O1  UNL     1       4.353   6.496  17.991  1.00  0.00    -0.201 OA
HETATM   11  O2  UNL     1       6.282   7.958  17.632  1.00  0.00    -0.201 OA
BRANCH   9  12
HETATM   12  C3  UNL     1       6.788   5.497  18.543  1.00  0.00     0.139 C 
HETATM   13  C2  UNL     1       7.087   4.801  17.471  1.00  0.00    -0.032 C 
HETATM   14  C1  UNL     1       6.487   5.177  16.184  1.00  0.00     0.050 C 
BRANCH  13  15
HETATM   15  C15 UNL     1       8.014   3.644  17.518  1.00  0.00     0.013 A 
HETATM   16  C16 UNL     1       9.215   3.562  18.167  1.00  0.00     0.021 A 
HETATM   17  C17 UNL     1       9.889   2.411  18.073  1.00  0.00     0.033 A 
HETATM   18  C18 UNL     1       9.322   1.409  17.333  1.00  0.00     0.075 A 
HETATM   19 CL1  UNL     1       9.974  -0.214  17.029  1.00  0.00    -0.076 Cl
HETATM   20  S2  UNL     1       7.863   2.109  16.793  1.00  0.00    -0.078 SA
ENDBRANCH  13  15
ENDBRANCH   9  12
ENDBRANCH   7   9
ENDBRANCH   1   7
BRANCH   4  21
HETATM   21  C7  UNL     1       7.493   9.064  24.113  1.00  0.00     0.175 C 
HETATM   22  C8  UNL     1       6.054   9.354  24.512  1.00  0.00     0.042 C 
BRANCH  21  23
HETATM   23  C9  UNL     1       8.050   8.120  25.139  1.00  0.00     0.242 C 
HETATM   24  O3  UNL     1       7.328   7.154  25.557  1.00  0.00    -0.271 OA
HETATM   25  N3  UNL     1       9.353   8.297  25.633  1.00  0.00    -0.346 N 
HETATM   26  C10 UNL     1       9.878   7.397  26.611  1.00  0.00     0.152 C 
HETATM   27  C13 UNL     1      10.161   9.395  25.146  1.00  0.00     0.152 C 
HETATM   28  C11 UNL     1      11.369   7.289  26.624  1.00  0.00     0.187 C 
HETATM   29  O4  UNL     1      12.032   8.363  26.090  1.00  0.00    -0.388 OA
HETATM   30  C12 UNL     1      11.552   8.801  24.880  1.00  0.00     0.187 C 
ENDBRANCH  21  23
ENDBRANCH   4  21
TORSDOF 6
ENDMDL
