MODEL 9
REMARK VINA RESULT: -7.210380901      1.656      1.894
REMARK  6 active torsions:
REMARK  status: ('A' for Active; 'I' for Inactive)
REMARK    1  A    between atoms: C2_2  and  C15_25 
REMARK    2  A    between atoms: C3_3  and  S1_4 
REMARK    3  A    between atoms: S1_4  and  N1_7 
REMARK    4  A    between atoms: N1_7  and  C4_9 
REMARK    5  A    between atoms: N2_12  and  C7_13 
REMARK    6  A    between atoms: C7_13  and  C9_15 
REMARK       I    between atoms: C9_15  and  N3_17 
ROOT
HETATM    1  C4  UNL     1       5.799   6.821  22.829  1.00  0.00     0.186 C 
HETATM    2  C5  UNL     1       4.455   6.254  22.414  1.00  0.00     0.055 C 
HETATM    3  C6  UNL     1       4.883   5.096  21.511  1.00  0.00     0.129 C 
HETATM    4  N2  UNL     1       5.950   5.738  20.752  1.00  0.00    -0.337 N 
HETATM    5  C14 UNL     1       6.588   6.708  21.571  1.00  0.00     0.244 C 
HETATM    6  O5  UNL     1       7.631   7.326  21.235  1.00  0.00    -0.271 OA
ENDROOT
BRANCH   1   7
HETATM    7  N1  UNL     1       5.650   8.210  23.142  1.00  0.00    -0.302 N 
ATOM      8  H1  UNL     1       5.546   8.935  22.432  1.00  0.00     0.173 HD
BRANCH   7   9
HETATM    9  S1  UNL     1       5.661   8.535  24.817  1.00  0.00     0.250 S 
HETATM   10  O1  UNL     1       5.340   9.967  25.069  1.00  0.00    -0.201 OA
HETATM   11  O2  UNL     1       4.582   7.673  25.456  1.00  0.00    -0.201 OA
BRANCH   9  12
HETATM   12  C3  UNL     1       7.221   8.088  25.468  1.00  0.00     0.139 C 
HETATM   13  C2  UNL     1       8.348   8.612  25.043  1.00  0.00    -0.032 C 
HETATM   14  C1  UNL     1       8.309   9.619  23.975  1.00  0.00     0.050 C 
BRANCH  13  15
HETATM   15  C15 UNL     1       9.661   8.217  25.608  1.00  0.00     0.013 A 
HETATM   16  C16 UNL     1       9.898   7.400  26.680  1.00  0.00     0.021 A 
HETATM   17  C17 UNL     1      11.172   7.180  27.018  1.00  0.00     0.033 A 
HETATM   18  C18 UNL     1      12.137   7.792  26.263  1.00  0.00     0.075 A 
HETATM   19 CL1  UNL     1      13.897   7.690  26.468  1.00  0.00    -0.076 Cl
HETATM   20  S2  UNL     1      11.229   8.655  25.105  1.00  0.00    -0.078 SA
ENDBRANCH  13  15
ENDBRANCH   9  12
ENDBRANCH   7   9
ENDBRANCH   1   7
BRANCH   4  21
HETATM   21  C7  UNL     1       6.319   5.445  19.370  1.00  0.00     0.175 C 
HETATM   22  C8  UNL     1       6.752   6.740  18.699  1.00  0.00     0.042 C 
BRANCH  21  23
HETATM   23  C9  UNL     1       7.514   4.535  19.378  1.00  0.00     0.242 C 
HETATM   24  O3  UNL     1       8.015   4.171  20.494  1.00  0.00    -0.271 OA
HETATM   25  N3  UNL     1       8.075   4.090  18.169  1.00  0.00    -0.346 N 
HETATM   26  C10 UNL     1       9.212   3.226  18.181  1.00  0.00     0.152 C 
HETATM   27  C13 UNL     1       7.492   4.509  16.912  1.00  0.00     0.152 C 
HETATM   28  C11 UNL     1       9.356   2.364  16.969  1.00  0.00     0.187 C 
HETATM   29  O4  UNL     1       8.720   2.831  15.848  1.00  0.00    -0.388 OA
HETATM   30  C12 UNL     1       7.425   3.245  16.043  1.00  0.00     0.187 C 
ENDBRANCH  21  23
ENDBRANCH   4  21
TORSDOF 6
ENDMDL
