MODEL 2
REMARK VINA RESULT: -7.708451699      4.069      8.037
REMARK  6 active torsions:
REMARK  status: ('A' for Active; 'I' for Inactive)
REMARK    1  A    between atoms: C2_2  and  C15_25 
REMARK    2  A    between atoms: C3_3  and  S1_4 
REMARK    3  A    between atoms: S1_4  and  N1_7 
REMARK    4  A    between atoms: N1_7  and  C4_9 
REMARK    5  A    between atoms: N2_12  and  C7_13 
REMARK    6  A    between atoms: C7_13  and  C9_15 
REMARK       I    between atoms: C9_15  and  N3_17 
ROOT
HETATM    1  C4  UNL     1       7.328   7.886  19.736  1.00  0.00     0.186 C 
HETATM    2  C5  UNL     1       7.937   9.254  19.973  1.00  0.00     0.055 C 
HETATM    3  C6  UNL     1       8.880   8.966  21.142  1.00  0.00     0.129 C 
HETATM    4  N2  UNL     1       8.024   8.120  21.965  1.00  0.00    -0.337 N 
HETATM    5  C14 UNL     1       7.154   7.376  21.124  1.00  0.00     0.244 C 
HETATM    6  O5  UNL     1       6.395   6.463  21.540  1.00  0.00    -0.271 OA
ENDROOT
BRANCH   1   7
HETATM    7  N1  UNL     1       6.033   8.040  19.148  1.00  0.00    -0.302 N 
ATOM      8  H1  UNL     1       5.382   8.778  19.415  1.00  0.00     0.173 HD
BRANCH   7   9
HETATM    9  S1  UNL     1       5.682   6.870  17.956  1.00  0.00     0.250 S 
HETATM   10  O1  UNL     1       4.271   6.410  18.080  1.00  0.00    -0.201 OA
HETATM   11  O2  UNL     1       5.861   7.535  16.598  1.00  0.00    -0.201 OA
BRANCH   9  12
HETATM   12  C3  UNL     1       6.820   5.551  18.110  1.00  0.00     0.139 C 
HETATM   13  C2  UNL     1       7.009   4.659  17.165  1.00  0.00    -0.032 C 
HETATM   14  C1  UNL     1       6.239   4.763  15.919  1.00  0.00     0.050 C 
BRANCH  13  15
HETATM   15  C15 UNL     1       7.979   3.547  17.317  1.00  0.00     0.013 A 
HETATM   16  C16 UNL     1       9.162   3.558  18.004  1.00  0.00     0.021 A 
HETATM   17  C17 UNL     1       9.884   2.433  18.007  1.00  0.00     0.033 A 
HETATM   18  C18 UNL     1       9.379   1.360  17.322  1.00  0.00     0.075 A 
HETATM   19 CL1  UNL     1      10.103  -0.251  17.149  1.00  0.00    -0.076 Cl
HETATM   20  S2  UNL     1       7.911   1.962  16.695  1.00  0.00    -0.078 SA
ENDBRANCH  13  15
ENDBRANCH   9  12
ENDBRANCH   7   9
ENDBRANCH   1   7
BRANCH   4  21
HETATM   21  C7  UNL     1       8.043   8.036  23.423  1.00  0.00     0.175 C 
HETATM   22  C8  UNL     1       9.401   8.509  23.918  1.00  0.00     0.042 C 
BRANCH  21  23
HETATM   23  C9  UNL     1       7.021   8.991  23.969  1.00  0.00     0.242 C 
HETATM   24  O3  UNL     1       7.230  10.248  23.882  1.00  0.00    -0.271 OA
HETATM   25  N3  UNL     1       5.846   8.508  24.569  1.00  0.00    -0.346 N 
HETATM   26  C10 UNL     1       4.878   9.421  25.089  1.00  0.00     0.152 C 
HETATM   27  C13 UNL     1       5.621   7.081  24.656  1.00  0.00     0.152 C 
HETATM   28  C11 UNL     1       3.483   8.887  25.145  1.00  0.00     0.187 C 
HETATM   29  O4  UNL     1       3.386   7.521  25.170  1.00  0.00    -0.388 OA
HETATM   30  C12 UNL     1       4.159   6.865  24.244  1.00  0.00     0.187 C 
ENDBRANCH  21  23
ENDBRANCH   4  21
TORSDOF 6
ENDMDL
