MODEL 3
REMARK VINA RESULT: -7.560630042      1.590      1.881
REMARK  7 active torsions:
REMARK  status: ('A' for Active; 'I' for Inactive)
REMARK    1  A    between atoms: C2_2  and  C3_3 
REMARK    2  A    between atoms: C2_2  and  N2_11 
REMARK       I    between atoms: C3_3  and  N1_5 
REMARK    3  A    between atoms: C10_14  and  N3_15 
REMARK    4  A    between atoms: N3_15  and  S1_17 
REMARK    5  A    between atoms: S1_17  and  C11_20 
REMARK    6  A    between atoms: C11_20  and  C12_21 
REMARK    7  A    between atoms: C12_21  and  C13_22 
ROOT
HETATM    1  N2  UNL     1       5.921   4.229  20.585  1.00  0.00    -0.337 N 
HETATM    2  C8  UNL     1       4.772   5.076  20.802  1.00  0.00     0.129 C 
HETATM    3  C9  UNL     1       5.305   6.484  20.504  1.00  0.00     0.055 C 
HETATM    4  C10 UNL     1       6.666   6.406  21.180  1.00  0.00     0.186 C 
HETATM    5  C17 UNL     1       7.091   5.023  20.847  1.00  0.00     0.244 C 
HETATM    6  O5  UNL     1       8.298   4.608  20.799  1.00  0.00    -0.271 OA
ENDROOT
BRANCH   4   7
HETATM    7  N3  UNL     1       7.610   7.345  20.651  1.00  0.00    -0.306 N 
ATOM      8  H3  UNL     1       7.928   7.348  19.682  1.00  0.00     0.173 HD
BRANCH   7   9
HETATM    9  S1  UNL     1       8.152   8.475  21.850  1.00  0.00     0.227 S 
HETATM   10  O3  UNL     1       7.216   9.678  21.709  1.00  0.00    -0.206 OA
HETATM   11  O4  UNL     1       9.534   8.864  21.538  1.00  0.00    -0.206 OA
BRANCH   9  12
HETATM   12  C11 UNL     1       7.994   7.792  23.460  1.00  0.00     0.168 C 
BRANCH  12  13
HETATM   13  C12 UNL     1       8.379   8.786  24.504  1.00  0.00     0.063 C 
BRANCH  13  14
HETATM   14  C13 UNL     1       9.637   8.362  25.183  1.00  0.00    -0.015 A 
HETATM   15  C14 UNL     1       9.713   7.638  26.351  1.00  0.00     0.017 A 
HETATM   16  C15 UNL     1      10.924   7.299  26.789  1.00  0.00     0.032 A 
HETATM   17  C16 UNL     1      12.005   7.692  26.049  1.00  0.00     0.075 A 
HETATM   18 CL1  UNL     1      13.718   7.381  26.394  1.00  0.00    -0.076 Cl
HETATM   19  S2  UNL     1      11.290   8.531  24.754  1.00  0.00    -0.083 SA
ENDBRANCH  13  14
ENDBRANCH  12  13
ENDBRANCH   9  12
ENDBRANCH   7   9
ENDBRANCH   4   7
BRANCH   1  20
HETATM   20  C2  UNL     1       5.965   2.838  20.181  1.00  0.00     0.175 C 
HETATM   21  C1  UNL     1       4.727   2.158  20.689  1.00  0.00     0.042 C 
BRANCH  20  22
HETATM   22  C3  UNL     1       6.123   2.719  18.717  1.00  0.00     0.242 C 
HETATM   23  O1  UNL     1       5.181   3.093  17.980  1.00  0.00    -0.271 OA
HETATM   24  N1  UNL     1       7.286   2.205  18.126  1.00  0.00    -0.346 N 
HETATM   25  C4  UNL     1       8.441   1.744  18.872  1.00  0.00     0.152 C 
HETATM   26  C7  UNL     1       7.377   2.112  16.684  1.00  0.00     0.152 C 
HETATM   27  C5  UNL     1       9.666   2.297  18.132  1.00  0.00     0.187 C 
HETATM   28  O2  UNL     1       9.328   3.362  17.329  1.00  0.00    -0.388 OA
HETATM   29  C6  UNL     1       8.531   2.988  16.245  1.00  0.00     0.187 C 
ENDBRANCH  20  22
ENDBRANCH   1  20
TORSDOF 7
ENDMDL
