MODEL 9
REMARK VINA RESULT: -7.175627746      2.831      3.854
REMARK  7 active torsions:
REMARK  status: ('A' for Active; 'I' for Inactive)
REMARK    1  A    between atoms: C2_2  and  C3_3 
REMARK    2  A    between atoms: C2_2  and  N2_11 
REMARK       I    between atoms: C3_3  and  N1_5 
REMARK    3  A    between atoms: C10_14  and  N3_15 
REMARK    4  A    between atoms: N3_15  and  S1_17 
REMARK    5  A    between atoms: S1_17  and  C11_20 
REMARK    6  A    between atoms: C11_20  and  C12_21 
REMARK    7  A    between atoms: C12_21  and  C13_22 
ROOT
HETATM    1  N2  UNL     1       6.828   7.156  19.730  1.00  0.00    -0.337 N 
HETATM    2  C8  UNL     1       6.810   8.502  19.210  1.00  0.00     0.129 C 
HETATM    3  C9  UNL     1       8.177   9.064  19.623  1.00  0.00     0.055 C 
HETATM    4  C10 UNL     1       8.280   8.510  21.036  1.00  0.00     0.186 C 
HETATM    5  C17 UNL     1       7.701   7.153  20.873  1.00  0.00     0.244 C 
HETATM    6  O5  UNL     1       7.940   6.148  21.624  1.00  0.00    -0.271 OA
ENDROOT
BRANCH   4   7
HETATM    7  N3  UNL     1       9.631   8.409  21.502  1.00  0.00    -0.306 N 
ATOM      8  H3  UNL     1      10.402   8.051  20.938  1.00  0.00     0.173 HD
BRANCH   7   9
HETATM    9  S1  UNL     1       9.805   8.964  23.135  1.00  0.00     0.227 S 
HETATM   10  O3  UNL     1       9.249  10.391  23.128  1.00  0.00    -0.206 OA
HETATM   11  O4  UNL     1      11.233   8.975  23.479  1.00  0.00    -0.206 OA
BRANCH   9  12
HETATM   12  C11 UNL     1       8.858   7.970  24.231  1.00  0.00     0.168 C 
BRANCH  12  13
HETATM   13  C12 UNL     1       7.757   8.759  24.854  1.00  0.00     0.063 C 
BRANCH  13  14
HETATM   14  C13 UNL     1       6.485   8.556  24.103  1.00  0.00    -0.015 A 
HETATM   15  C14 UNL     1       5.904   9.467  23.250  1.00  0.00     0.017 A 
HETATM   16  C15 UNL     1       4.791   9.098  22.617  1.00  0.00     0.032 A 
HETATM   17  C16 UNL     1       4.306   7.843  22.858  1.00  0.00     0.075 A 
HETATM   18 CL1  UNL     1       2.855   7.095  22.160  1.00  0.00    -0.076 Cl
HETATM   19  S2  UNL     1       5.427   7.212  23.972  1.00  0.00    -0.083 SA
ENDBRANCH  13  14
ENDBRANCH  12  13
ENDBRANCH   9  12
ENDBRANCH   7   9
ENDBRANCH   4   7
BRANCH   1  20
HETATM   20  C2  UNL     1       6.129   5.982  19.248  1.00  0.00     0.175 C 
HETATM   21  C1  UNL     1       4.696   6.354  18.997  1.00  0.00     0.042 C 
BRANCH  20  22
HETATM   22  C3  UNL     1       6.794   5.427  18.051  1.00  0.00     0.242 C 
HETATM   23  O1  UNL     1       7.013   6.189  17.080  1.00  0.00    -0.271 OA
HETATM   24  N1  UNL     1       7.185   4.084  17.964  1.00  0.00    -0.346 N 
HETATM   25  C4  UNL     1       6.989   3.110  19.021  1.00  0.00     0.152 C 
HETATM   26  C7  UNL     1       7.831   3.601  16.761  1.00  0.00     0.152 C 
HETATM   27  C5  UNL     1       8.296   2.311  19.104  1.00  0.00     0.187 C 
HETATM   28  O2  UNL     1       9.342   3.001  18.534  1.00  0.00    -0.388 OA
HETATM   29  C6  UNL     1       9.214   3.123  17.148  1.00  0.00     0.187 C 
ENDBRANCH  20  22
ENDBRANCH   1  20
TORSDOF 7
ENDMDL
