MODEL 5
REMARK VINA RESULT: -7.454914431      3.832      8.107
REMARK  7 active torsions:
REMARK  status: ('A' for Active; 'I' for Inactive)
REMARK    1  A    between atoms: C2_2  and  C3_3 
REMARK    2  A    between atoms: C2_2  and  N2_11 
REMARK       I    between atoms: C3_3  and  N1_5 
REMARK    3  A    between atoms: C10_14  and  N3_15 
REMARK    4  A    between atoms: N3_15  and  S1_17 
REMARK    5  A    between atoms: S1_17  and  C11_20 
REMARK    6  A    between atoms: C11_20  and  C12_21 
REMARK    7  A    between atoms: C12_21  and  C13_22 
ROOT
HETATM    1  N2  UNL     1       7.282   8.541  21.519  1.00  0.00    -0.337 N 
HETATM    2  C8  UNL     1       6.090   8.875  20.775  1.00  0.00     0.129 C 
HETATM    3  C9  UNL     1       5.307   7.556  20.744  1.00  0.00     0.055 C 
HETATM    4  C10 UNL     1       6.440   6.574  20.484  1.00  0.00     0.186 C 
HETATM    5  C17 UNL     1       7.528   7.138  21.322  1.00  0.00     0.244 C 
HETATM    6  O5  UNL     1       8.519   6.483  21.791  1.00  0.00    -0.271 OA
ENDROOT
BRANCH   4   7
HETATM    7  N3  UNL     1       6.138   5.241  20.912  1.00  0.00    -0.306 N 
ATOM      8  H3  UNL     1       5.576   5.021  21.735  1.00  0.00     0.173 HD
BRANCH   7   9
HETATM    9  S1  UNL     1       6.838   4.044  19.871  1.00  0.00     0.227 S 
HETATM   10  O3  UNL     1       5.650   3.414  19.139  1.00  0.00    -0.206 OA
HETATM   11  O4  UNL     1       7.517   3.039  20.701  1.00  0.00    -0.206 OA
BRANCH   9  12
HETATM   12  C11 UNL     1       7.918   4.792  18.706  1.00  0.00     0.168 C 
BRANCH  12  13
HETATM   13  C12 UNL     1       7.784   4.154  17.365  1.00  0.00     0.063 C 
BRANCH  13  14
HETATM   14  C13 UNL     1       8.627   2.927  17.288  1.00  0.00    -0.015 A 
HETATM   15  C14 UNL     1       9.817   2.729  17.951  1.00  0.00     0.017 A 
HETATM   16  C15 UNL     1      10.413   1.546  17.810  1.00  0.00     0.032 A 
HETATM   17  C16 UNL     1       9.802   0.613  17.019  1.00  0.00     0.075 A 
HETATM   18 CL1  UNL     1      10.367  -1.030  16.658  1.00  0.00    -0.076 Cl
HETATM   19  S2  UNL     1       8.404   1.424  16.491  1.00  0.00    -0.083 SA
ENDBRANCH  13  14
ENDBRANCH  12  13
ENDBRANCH   9  12
ENDBRANCH   7   9
ENDBRANCH   4   7
BRANCH   1  20
HETATM   20  C2  UNL     1       8.120   9.399  22.330  1.00  0.00     0.175 C 
HETATM   21  C1  UNL     1       7.758  10.827  22.040  1.00  0.00     0.042 C 
BRANCH  20  22
HETATM   22  C3  UNL     1       7.996   9.058  23.762  1.00  0.00     0.242 C 
HETATM   23  O1  UNL     1       6.870   8.730  24.204  1.00  0.00    -0.271 OA
HETATM   24  N1  UNL     1       9.088   9.088  24.640  1.00  0.00    -0.346 N 
HETATM   25  C4  UNL     1      10.438   9.447  24.246  1.00  0.00     0.152 C 
HETATM   26  C7  UNL     1       8.899   8.744  26.033  1.00  0.00     0.152 C 
HETATM   27  C5  UNL     1      11.360   8.429  24.931  1.00  0.00     0.187 C 
HETATM   28  O2  UNL     1      10.671   7.294  25.295  1.00  0.00    -0.388 OA
HETATM   29  C6  UNL     1       9.754   7.528  26.322  1.00  0.00     0.187 C 
ENDBRANCH  20  22
ENDBRANCH   1  20
TORSDOF 7
ENDMDL
