MODEL 11
REMARK VINA RESULT: -7.111346269      1.963      2.388
REMARK  7 active torsions:
REMARK  status: ('A' for Active; 'I' for Inactive)
REMARK    1  A    between atoms: C2_2  and  C3_3 
REMARK    2  A    between atoms: C2_2  and  N2_11 
REMARK       I    between atoms: C3_3  and  N1_5 
REMARK    3  A    between atoms: C10_14  and  N3_15 
REMARK    4  A    between atoms: N3_15  and  S1_17 
REMARK    5  A    between atoms: S1_17  and  C11_20 
REMARK    6  A    between atoms: C11_20  and  C12_21 
REMARK    7  A    between atoms: C12_21  and  C13_22 
ROOT
HETATM    1  N2  UNL     1       6.749   4.855  19.443  1.00  0.00    -0.337 N 
HETATM    2  C8  UNL     1       7.543   5.934  18.904  1.00  0.00     0.129 C 
HETATM    3  C9  UNL     1       8.108   6.621  20.154  1.00  0.00     0.055 C 
HETATM    4  C10 UNL     1       6.880   6.598  21.053  1.00  0.00     0.186 C 
HETATM    5  C17 UNL     1       6.307   5.263  20.749  1.00  0.00     0.244 C 
HETATM    6  O5  UNL     1       5.547   4.588  21.522  1.00  0.00    -0.271 OA
ENDROOT
BRANCH   4   7
HETATM    7  N3  UNL     1       7.202   6.683  22.446  1.00  0.00    -0.306 N 
ATOM      8  H3  UNL     1       7.992   6.202  22.878  1.00  0.00     0.173 HD
BRANCH   7   9
HETATM    9  S1  UNL     1       6.095   7.697  23.314  1.00  0.00     0.227 S 
HETATM   10  O3  UNL     1       5.190   6.728  24.079  1.00  0.00    -0.206 OA
HETATM   11  O4  UNL     1       5.309   8.473  22.345  1.00  0.00    -0.206 OA
BRANCH   9  12
HETATM   12  C11 UNL     1       6.956   8.720  24.453  1.00  0.00     0.168 C 
BRANCH  12  13
HETATM   13  C12 UNL     1       8.251   9.188  23.880  1.00  0.00     0.063 C 
BRANCH  13  14
HETATM   14  C13 UNL     1       9.392   8.669  24.687  1.00  0.00    -0.015 A 
HETATM   15  C14 UNL     1       9.287   7.886  25.814  1.00  0.00     0.017 A 
HETATM   16  C15 UNL     1      10.416   7.465  26.381  1.00  0.00     0.032 A 
HETATM   17  C16 UNL     1      11.599   7.839  25.805  1.00  0.00     0.075 A 
HETATM   18 CL1  UNL     1      13.238   7.426  26.344  1.00  0.00    -0.076 Cl
HETATM   19  S2  UNL     1      11.092   8.776  24.479  1.00  0.00    -0.083 SA
ENDBRANCH  13  14
ENDBRANCH  12  13
ENDBRANCH   9  12
ENDBRANCH   7   9
ENDBRANCH   4   7
BRANCH   1  20
HETATM   20  C2  UNL     1       6.418   3.579  18.843  1.00  0.00     0.175 C 
HETATM   21  C1  UNL     1       6.077   3.808  17.399  1.00  0.00     0.042 C 
BRANCH  20  22
HETATM   22  C3  UNL     1       7.519   2.610  19.024  1.00  0.00     0.242 C 
HETATM   23  O1  UNL     1       7.474   1.827  20.002  1.00  0.00    -0.271 OA
HETATM   24  N1  UNL     1       8.608   2.538  18.144  1.00  0.00    -0.346 N 
HETATM   25  C4  UNL     1       8.770   3.386  16.979  1.00  0.00     0.152 C 
HETATM   26  C7  UNL     1       9.657   1.567  18.379  1.00  0.00     0.152 C 
HETATM   27  C5  UNL     1       9.243   2.462  15.849  1.00  0.00     0.187 C 
HETATM   28  O2  UNL     1       8.945   1.146  16.120  1.00  0.00    -0.388 OA
HETATM   29  C6  UNL     1       9.688   0.635  17.187  1.00  0.00     0.187 C 
ENDBRANCH  20  22
ENDBRANCH   1  20
TORSDOF 7
ENDMDL
