MODEL 8
REMARK VINA RESULT: -7.185373255      3.818      8.237
REMARK  7 active torsions:
REMARK  status: ('A' for Active; 'I' for Inactive)
REMARK    1  A    between atoms: C2_2  and  C3_3 
REMARK    2  A    between atoms: C2_2  and  N2_11 
REMARK       I    between atoms: C3_3  and  N1_5 
REMARK    3  A    between atoms: C10_14  and  N3_15 
REMARK    4  A    between atoms: N3_15  and  S1_17 
REMARK    5  A    between atoms: S1_17  and  C11_20 
REMARK    6  A    between atoms: C11_20  and  C12_21 
REMARK    7  A    between atoms: C12_21  and  C13_22 
ROOT
HETATM    1  N2  UNL     1       7.400   8.240  22.256  1.00  0.00    -0.337 N 
HETATM    2  C8  UNL     1       6.104   8.814  21.979  1.00  0.00     0.129 C 
HETATM    3  C9  UNL     1       5.230   7.590  21.676  1.00  0.00     0.055 C 
HETATM    4  C10 UNL     1       6.194   6.772  20.830  1.00  0.00     0.186 C 
HETATM    5  C17 UNL     1       7.483   7.002  21.530  1.00  0.00     0.244 C 
HETATM    6  O5  UNL     1       8.497   6.227  21.493  1.00  0.00    -0.271 OA
ENDROOT
BRANCH   4   7
HETATM    7  N3  UNL     1       5.888   5.372  20.824  1.00  0.00    -0.306 N 
ATOM      8  H3  UNL     1       5.665   4.835  21.662  1.00  0.00     0.173 HD
BRANCH   7   9
HETATM    9  S1  UNL     1       5.940   4.696  19.228  1.00  0.00     0.227 S 
HETATM   10  O3  UNL     1       4.834   5.421  18.457  1.00  0.00    -0.206 OA
HETATM   11  O4  UNL     1       5.644   3.260  19.316  1.00  0.00    -0.206 OA
BRANCH   9  12
HETATM   12  C11 UNL     1       7.493   5.016  18.471  1.00  0.00     0.168 C 
BRANCH  12  13
HETATM   13  C12 UNL     1       7.571   4.385  17.122  1.00  0.00     0.063 C 
BRANCH  13  14
HETATM   14  C13 UNL     1       8.459   3.189  17.161  1.00  0.00    -0.015 A 
HETATM   15  C14 UNL     1       9.588   3.052  17.936  1.00  0.00     0.017 A 
HETATM   16  C15 UNL     1      10.235   1.889  17.886  1.00  0.00     0.032 A 
HETATM   17  C16 UNL     1       9.733   0.913  17.071  1.00  0.00     0.075 A 
HETATM   18 CL1  UNL     1      10.385  -0.717  16.812  1.00  0.00    -0.076 Cl
HETATM   19  S2  UNL     1       8.362   1.657  16.392  1.00  0.00    -0.083 SA
ENDBRANCH  13  14
ENDBRANCH  12  13
ENDBRANCH   9  12
ENDBRANCH   7   9
ENDBRANCH   4   7
BRANCH   1  20
HETATM   20  C2  UNL     1       8.464   8.755  23.094  1.00  0.00     0.175 C 
HETATM   21  C1  UNL     1       8.428  10.255  23.038  1.00  0.00     0.042 C 
BRANCH  20  22
HETATM   22  C3  UNL     1       8.351   8.231  24.471  1.00  0.00     0.242 C 
HETATM   23  O1  UNL     1       7.310   7.612  24.793  1.00  0.00    -0.271 OA
HETATM   24  N1  UNL     1       9.363   8.403  25.425  1.00  0.00    -0.346 N 
HETATM   25  C4  UNL     1      10.612   9.097  25.171  1.00  0.00     0.152 C 
HETATM   26  C7  UNL     1       9.190   7.867  26.759  1.00  0.00     0.152 C 
HETATM   27  C5  UNL     1      11.708   8.238  25.815  1.00  0.00     0.187 C 
HETATM   28  O2  UNL     1      11.281   6.944  26.011  1.00  0.00    -0.388 OA
HETATM   29  C6  UNL     1      10.286   6.848  26.986  1.00  0.00     0.187 C 
ENDBRANCH  20  22
ENDBRANCH   1  20
TORSDOF 7
ENDMDL
