MODEL 2
REMARK VINA RESULT: -7.541849909      0.064      1.847
REMARK  8 active torsions:
REMARK  status: ('A' for Active; 'I' for Inactive)
REMARK    1  A    between atoms: C1_2  and  C2_3 
REMARK    2  A    between atoms: C1_2  and  C10_13 
REMARK    3  A    between atoms: C2_3  and  C3_4 
REMARK    4  A    between atoms: C3_4  and  C4_5 
REMARK    5  A    between atoms: C7_8  and  O2_9 
REMARK    6  A    between atoms: C11_14  and  O3_15 
REMARK    7  A    between atoms: C13_18  and  O4_19 
REMARK    8  A    between atoms: C15_22  and  O5_23 
ROOT
HETATM    1  C10 UNL     1      13.875  30.017  -1.623  1.00  0.00     0.076 A 
HETATM    2  C11 UNL     1      14.646  30.755  -0.730  1.00  0.00     0.085 A 
HETATM    3  C12 UNL     1      15.380  30.154   0.270  1.00  0.00     0.074 A 
HETATM    4  C13 UNL     1      15.390  28.796   0.436  1.00  0.00     0.071 A 
HETATM    5  C14 UNL     1      14.647  28.045  -0.424  1.00  0.00     0.074 A 
HETATM    6  C15 UNL     1      13.887  28.642  -1.455  1.00  0.00     0.085 A 
ENDROOT
BRANCH   1   7
HETATM    7  C1  UNL     1      13.115  30.671  -2.660  1.00  0.00     0.165 C 
HETATM    8  O1  UNL     1      11.868  30.681  -2.639  1.00  0.00    -0.292 OA
BRANCH   7   9
HETATM    9  C2  UNL     1      13.760  31.360  -3.796  1.00  0.00     0.088 C 
BRANCH   9  10
HETATM   10  C3  UNL     1      14.146  30.337  -4.863  1.00  0.00     0.046 C 
BRANCH  10  11
HETATM   11  C4  UNL     1      13.784  30.786  -6.212  1.00  0.00    -0.058 A 
HETATM   12  C5  UNL     1      14.550  30.514  -7.331  1.00  0.00     0.010 A 
HETATM   13  C6  UNL     1      14.156  30.964  -8.575  1.00  0.00     0.037 A 
HETATM   14  C7  UNL     1      12.990  31.701  -8.756  1.00  0.00     0.065 A 
HETATM   15  C8  UNL     1      12.241  31.962  -7.628  1.00  0.00     0.037 A 
HETATM   16  C9  UNL     1      12.625  31.516  -6.374  1.00  0.00     0.010 A 
BRANCH  14  17
HETATM   17  O2  UNL     1      12.608  32.147 -10.016  1.00  0.00    -0.361 OA
ATOM     18  H2  UNL     1      11.746  32.518 -10.166  1.00  0.00     0.217 HD
ENDBRANCH  14  17
ENDBRANCH  10  11
ENDBRANCH   9  10
ENDBRANCH   7   9
ENDBRANCH   1   7
BRANCH   2  19
HETATM   19  O3  UNL     1      14.664  32.136  -0.863  1.00  0.00    -0.360 OA
ATOM     20  H3  UNL     1      15.466  32.598  -0.648  1.00  0.00     0.217 HD
ENDBRANCH   2  19
BRANCH   6  21
HETATM   21  O5  UNL     1      13.181  27.784  -2.255  1.00  0.00    -0.360 OA
ATOM     22  H5  UNL     1      13.342  27.692  -3.187  1.00  0.00     0.217 HD
ENDBRANCH   6  21
BRANCH   4  23
HETATM   23  O4  UNL     1      16.135  28.174   1.450  1.00  0.00    -0.361 OA
ATOM     24  H4  UNL     1      15.721  27.708   2.167  1.00  0.00     0.217 HD
ENDBRANCH   4  23
TORSDOF 8
ENDMDL
