MODEL 3
REMARK VINA RESULT: -7.393305723      1.362      1.570
REMARK  8 active torsions:
REMARK  status: ('A' for Active; 'I' for Inactive)
REMARK    1  A    between atoms: C1_2  and  C2_3 
REMARK    2  A    between atoms: C1_2  and  C10_13 
REMARK    3  A    between atoms: C2_3  and  C3_4 
REMARK    4  A    between atoms: C3_4  and  C4_5 
REMARK    5  A    between atoms: C7_8  and  O2_9 
REMARK    6  A    between atoms: C11_14  and  O3_15 
REMARK    7  A    between atoms: C13_18  and  O4_19 
REMARK    8  A    between atoms: C15_22  and  O5_23 
ROOT
HETATM    1  C10 UNL     1      15.111  29.607  -1.944  1.00  0.00     0.076 A 
HETATM    2  C11 UNL     1      14.065  28.802  -1.504  1.00  0.00     0.085 A 
HETATM    3  C12 UNL     1      13.926  28.445  -0.180  1.00  0.00     0.074 A 
HETATM    4  C13 UNL     1      14.812  28.865   0.774  1.00  0.00     0.071 A 
HETATM    5  C14 UNL     1      15.848  29.656   0.375  1.00  0.00     0.074 A 
HETATM    6  C15 UNL     1      16.008  30.033  -0.977  1.00  0.00     0.085 A 
ENDROOT
BRANCH   1   7
HETATM    7  C1  UNL     1      15.234  29.966  -3.336  1.00  0.00     0.165 C 
HETATM    8  O1  UNL     1      15.630  29.141  -4.183  1.00  0.00    -0.292 OA
BRANCH   7   9
HETATM    9  C2  UNL     1      14.902  31.315  -3.835  1.00  0.00     0.088 C 
BRANCH   9  10
HETATM   10  C3  UNL     1      13.441  31.352  -4.278  1.00  0.00     0.046 C 
BRANCH  10  11
HETATM   11  C4  UNL     1      13.309  31.559  -5.725  1.00  0.00    -0.058 A 
HETATM   12  C5  UNL     1      14.389  31.775  -6.560  1.00  0.00     0.010 A 
HETATM   13  C6  UNL     1      14.199  31.963  -7.915  1.00  0.00     0.037 A 
HETATM   14  C7  UNL     1      12.933  31.942  -8.491  1.00  0.00     0.065 A 
HETATM   15  C8  UNL     1      11.869  31.726  -7.640  1.00  0.00     0.037 A 
HETATM   16  C9  UNL     1      12.046  31.537  -6.279  1.00  0.00     0.010 A 
BRANCH  14  17
HETATM   17  O2  UNL     1      12.760  32.134  -9.856  1.00  0.00    -0.361 OA
ATOM     18  H2  UNL     1      12.158  31.595 -10.356  1.00  0.00     0.217 HD
ENDBRANCH  14  17
ENDBRANCH  10  11
ENDBRANCH   9  10
ENDBRANCH   7   9
ENDBRANCH   1   7
BRANCH   2  19
HETATM   19  O3  UNL     1      13.143  28.354  -2.439  1.00  0.00    -0.360 OA
ATOM     20  H3  UNL     1      12.305  28.032  -2.126  1.00  0.00     0.217 HD
ENDBRANCH   2  19
BRANCH   6  21
HETATM   21  O5  UNL     1      17.086  30.829  -1.256  1.00  0.00    -0.360 OA
ATOM     22  H5  UNL     1      17.885  30.819  -0.741  1.00  0.00     0.217 HD
ENDBRANCH   6  21
BRANCH   4  23
HETATM   23  O4  UNL     1      14.680  28.508   2.124  1.00  0.00    -0.361 OA
ATOM     24  H4  UNL     1      15.339  28.729   2.772  1.00  0.00     0.217 HD
ENDBRANCH   4  23
TORSDOF 8
ENDMDL
