MODEL 1
REMARK VINA RESULT: -7.669155508      0.000      0.000
REMARK  8 active torsions:
REMARK  status: ('A' for Active; 'I' for Inactive)
REMARK    1  A    between atoms: C1_2  and  C2_3 
REMARK    2  A    between atoms: C1_2  and  C10_13 
REMARK    3  A    between atoms: C2_3  and  C3_4 
REMARK    4  A    between atoms: C3_4  and  C4_5 
REMARK    5  A    between atoms: C7_8  and  O2_9 
REMARK    6  A    between atoms: C11_14  and  O3_15 
REMARK    7  A    between atoms: C13_18  and  O4_19 
REMARK    8  A    between atoms: C15_22  and  O5_23 
ROOT
HETATM    1  C10 UNL     1      13.882  30.052  -1.593  1.00  0.00     0.076 A 
HETATM    2  C11 UNL     1      13.909  28.670  -1.427  1.00  0.00     0.085 A 
HETATM    3  C12 UNL     1      14.626  28.070  -0.414  1.00  0.00     0.074 A 
HETATM    4  C13 UNL     1      15.352  28.804   0.485  1.00  0.00     0.071 A 
HETATM    5  C14 UNL     1      15.345  30.160   0.350  1.00  0.00     0.074 A 
HETATM    6  C15 UNL     1      14.617  30.795  -0.681  1.00  0.00     0.085 A 
ENDROOT
BRANCH   1   7
HETATM    7  C1  UNL     1      13.124  30.655  -2.661  1.00  0.00     0.165 C 
HETATM    8  O1  UNL     1      11.878  30.630  -2.663  1.00  0.00    -0.292 OA
BRANCH   7   9
HETATM    9  C2  UNL     1      13.772  31.329  -3.805  1.00  0.00     0.088 C 
BRANCH   9  10
HETATM   10  C3  UNL     1      14.132  30.297  -4.871  1.00  0.00     0.046 C 
BRANCH  10  11
HETATM   11  C4  UNL     1      13.775  30.752  -6.220  1.00  0.00    -0.058 A 
HETATM   12  C5  UNL     1      14.552  30.497  -7.335  1.00  0.00     0.010 A 
HETATM   13  C6  UNL     1      14.161  30.952  -8.579  1.00  0.00     0.037 A 
HETATM   14  C7  UNL     1      12.988  31.675  -8.763  1.00  0.00     0.065 A 
HETATM   15  C8  UNL     1      12.228  31.919  -7.638  1.00  0.00     0.037 A 
HETATM   16  C9  UNL     1      12.609  31.469  -6.384  1.00  0.00     0.010 A 
BRANCH  14  17
HETATM   17  O2  UNL     1      12.610  32.126 -10.021  1.00  0.00    -0.361 OA
ATOM     18  H2  UNL     1      11.809  31.823 -10.433  1.00  0.00     0.217 HD
ENDBRANCH  14  17
ENDBRANCH  10  11
ENDBRANCH   9  10
ENDBRANCH   7   9
ENDBRANCH   1   7
BRANCH   2  19
HETATM   19  O3  UNL     1      13.187  27.888  -2.317  1.00  0.00    -0.360 OA
ATOM     20  H3  UNL     1      13.612  27.125  -2.692  1.00  0.00     0.217 HD
ENDBRANCH   2  19
BRANCH   6  21
HETATM   21  O5  UNL     1      14.688  32.161  -0.714  1.00  0.00    -0.360 OA
ATOM     22  H5  UNL     1      14.718  32.698   0.069  1.00  0.00     0.217 HD
ENDBRANCH   6  21
BRANCH   4  23
HETATM   23  O4  UNL     1      16.085  28.204   1.520  1.00  0.00    -0.361 OA
ATOM     24  H4  UNL     1      15.853  28.318   2.434  1.00  0.00     0.217 HD
ENDBRANCH   4  23
TORSDOF 8
ENDMDL
