MODEL 1
REMARK VINA RESULT: -6.781177566      0.000      0.000
REMARK  0 active torsions:
REMARK  status: ('A' for Active; 'I' for Inactive)
ROOT
HETATM    1  C1  UNL     1      37.678  19.423  20.971  1.00  0.00     0.164 C 
HETATM    2  N1  UNL     1      37.956  20.547  21.874  1.00  0.00    -0.269 N 
HETATM    3  C2  UNL     1      38.028  20.367  23.212  1.00  0.00     0.281 A 
HETATM    4  O1  UNL     1      37.856  19.218  23.707  1.00  0.00    -0.265 OA
HETATM    5  C3  UNL     1      38.288  21.408  24.078  1.00  0.00     0.148 A 
HETATM    6  N2  UNL     1      38.418  21.541  25.413  1.00  0.00    -0.325 N 
ATOM      7  H2  UNL     1      38.329  20.774  26.079  1.00  0.00     0.168 HD
HETATM    8  C4  UNL     1      38.675  22.797  25.749  1.00  0.00     0.181 A 
HETATM    9 CL1  UNL     1      38.932  23.523  27.323  1.00  0.00    -0.045 Cl
HETATM   10  N3  UNL     1      38.716  23.509  24.607  1.00  0.00    -0.316 N 
ATOM     11  H3  UNL     1      38.894  24.512  24.537  1.00  0.00     0.170 HD
HETATM   12  C5  UNL     1      38.479  22.668  23.559  1.00  0.00     0.146 A 
HETATM   13  N4  UNL     1      38.404  22.833  22.230  1.00  0.00    -0.287 N 
HETATM   14  C6  UNL     1      38.611  24.182  21.703  1.00  0.00     0.163 C 
HETATM   15  C7  UNL     1      38.150  21.797  21.411  1.00  0.00     0.332 A 
HETATM   16  O2  UNL     1      38.085  21.983  20.153  1.00  0.00    -0.246 OA
ENDROOT
TORSDOF 0
ENDMDL
