MODEL 8
REMARK VINA RESULT: -5.337329665      3.198      4.556
REMARK  0 active torsions:
REMARK  status: ('A' for Active; 'I' for Inactive)
ROOT
HETATM    1  C1  UNL     1      37.653  22.459  24.132  1.00  0.00     0.164 C 
HETATM    2  N1  UNL     1      37.916  21.359  23.195  1.00  0.00    -0.269 N 
HETATM    3  C2  UNL     1      37.772  20.069  23.575  1.00  0.00     0.281 A 
HETATM    4  O1  UNL     1      37.407  19.792  24.751  1.00  0.00    -0.265 OA
HETATM    5  C3  UNL     1      38.013  19.021  22.712  1.00  0.00     0.148 A 
HETATM    6  N2  UNL     1      37.960  17.676  22.791  1.00  0.00    -0.325 N 
ATOM      7  H2  UNL     1      37.692  17.159  23.628  1.00  0.00     0.168 HD
HETATM    8  C4  UNL     1      38.299  17.112  21.640  1.00  0.00     0.181 A 
HETATM    9 CL1  UNL     1      38.401  15.422  21.189  1.00  0.00    -0.045 Cl
HETATM   10  N3  UNL     1      38.583  18.110  20.782  1.00  0.00    -0.316 N 
ATOM     11  H3  UNL     1      38.878  17.994  19.812  1.00  0.00     0.170 HD
HETATM   12  C5  UNL     1      38.412  19.301  21.426  1.00  0.00     0.146 A 
HETATM   13  N4  UNL     1      38.551  20.585  21.062  1.00  0.00    -0.287 N 
HETATM   14  C6  UNL     1      38.977  20.857  19.688  1.00  0.00     0.163 C 
HETATM   15  C7  UNL     1      38.308  21.585  21.927  1.00  0.00     0.332 A 
HETATM   16  O2  UNL     1      38.448  22.795  21.554  1.00  0.00    -0.246 OA
ENDROOT
TORSDOF 0
ENDMDL
