MODEL 7
REMARK VINA RESULT: -5.339797346      3.110      4.973
REMARK  0 active torsions:
REMARK  status: ('A' for Active; 'I' for Inactive)
ROOT
HETATM    1  C1  UNL     1      38.334  22.656  25.089  1.00  0.00     0.164 C 
HETATM    2  N1  UNL     1      38.347  22.204  23.692  1.00  0.00    -0.269 N 
HETATM    3  C2  UNL     1      38.451  23.087  22.673  1.00  0.00     0.281 A 
HETATM    4  O1  UNL     1      38.539  24.324  22.913  1.00  0.00    -0.265 OA
HETATM    5  C3  UNL     1      38.464  22.684  21.355  1.00  0.00     0.148 A 
HETATM    6  N2  UNL     1      38.554  23.302  20.159  1.00  0.00    -0.325 N 
ATOM      7  H2  UNL     1      38.637  24.311  20.038  1.00  0.00     0.168 HD
HETATM    8  C4  UNL     1      38.520  22.429  19.163  1.00  0.00     0.181 A 
HETATM    9 CL1  UNL     1      38.599  22.679  17.430  1.00  0.00    -0.045 Cl
HETATM   10  N3  UNL     1      38.405  21.206  19.714  1.00  0.00    -0.316 N 
ATOM     11  H3  UNL     1      38.353  20.325  19.202  1.00  0.00     0.170 HD
HETATM   12  C5  UNL     1      38.369  21.342  21.072  1.00  0.00     0.146 A 
HETATM   13  N4  UNL     1      38.266  20.476  22.092  1.00  0.00    -0.287 N 
HETATM   14  C6  UNL     1      38.166  19.054  21.765  1.00  0.00     0.163 C 
HETATM   15  C7  UNL     1      38.256  20.900  23.368  1.00  0.00     0.332 A 
HETATM   16  O2  UNL     1      38.158  20.057  24.317  1.00  0.00    -0.246 OA
ENDROOT
TORSDOF 0
ENDMDL
