MODEL 11
REMARK VINA RESULT: -5.039305629      3.331      4.529
REMARK  0 active torsions:
REMARK  status: ('A' for Active; 'I' for Inactive)
ROOT
HETATM    1  C1  UNL     1      38.348  21.462  24.841  1.00  0.00     0.164 C 
HETATM    2  N1  UNL     1      38.337  21.694  23.391  1.00  0.00    -0.269 N 
HETATM    3  C2  UNL     1      38.258  20.664  22.519  1.00  0.00     0.281 A 
HETATM    4  O1  UNL     1      38.192  19.477  22.945  1.00  0.00    -0.265 OA
HETATM    5  C3  UNL     1      38.247  20.859  21.154  1.00  0.00     0.148 A 
HETATM    6  N2  UNL     1      38.179  20.064  20.067  1.00  0.00    -0.325 N 
ATOM      7  H2  UNL     1      38.116  19.047  20.102  1.00  0.00     0.168 HD
HETATM    8  C4  UNL     1      38.204  20.775  18.949  1.00  0.00     0.181 A 
HETATM    9 CL1  UNL     1      38.144  20.261  17.274  1.00  0.00    -0.045 Cl
HETATM   10  N3  UNL     1      38.291  22.070  19.307  1.00  0.00    -0.316 N 
ATOM     11  H3  UNL     1      38.330  22.863  18.666  1.00  0.00     0.170 HD
HETATM   12  C5  UNL     1      38.319  22.144  20.669  1.00  0.00     0.146 A 
HETATM   13  N4  UNL     1      38.397  23.158  21.545  1.00  0.00    -0.287 N 
HETATM   14  C6  UNL     1      38.472  24.515  21.004  1.00  0.00     0.163 C 
HETATM   15  C7  UNL     1      38.405  22.935  22.871  1.00  0.00     0.332 A 
HETATM   16  O2  UNL     1      38.480  23.916  23.680  1.00  0.00    -0.246 OA
ENDROOT
TORSDOF 0
ENDMDL
