MODEL 3
REMARK VINA RESULT: -5.329798573      8.666      9.852
REMARK  3 active torsions:
REMARK  status: ('A' for Active; 'I' for Inactive)
REMARK       I    between atoms: C2_2  and  N1_4 
REMARK    1  A    between atoms: N1_4  and  C3_6 
REMARK    2  A    between atoms: C4_11  and  S1_12 
REMARK    3  A    between atoms: S1_12  and  N4_13 
ROOT
HETATM    1  C3  UNL     1      33.979  23.491  22.414  1.00  0.00     0.168 A 
HETATM    2  N2  UNL     1      34.272  23.784  23.678  1.00  0.00    -0.278 N 
ATOM      3  H2  UNL     1      33.597  24.280  24.259  1.00  0.00     0.189 HD
HETATM    4  N3  UNL     1      35.390  23.445  24.153  1.00  0.00    -0.281 N 
ATOM      5  H3  UNL     1      35.620  23.666  25.122  1.00  0.00     0.188 HD
HETATM    6  C4  UNL     1      36.267  22.798  23.393  1.00  0.00     0.208 A 
HETATM    7  S2  UNL     1      35.406  22.688  21.919  1.00  0.00    -0.020 SA
ENDROOT
BRANCH   6   8
HETATM    8  S1  UNL     1      37.884  22.227  23.841  1.00  0.00     0.280 S 
HETATM    9  O2  UNL     1      38.496  21.506  22.695  1.00  0.00    -0.199 OA
HETATM   10  O3  UNL     1      38.681  23.453  24.182  1.00  0.00    -0.199 OA
BRANCH   8  11
HETATM   11  N4  UNL     1      37.742  21.237  25.240  1.00  0.00    -0.323 N 
ATOM     12  H42 UNL     1      36.931  21.209  25.857  1.00  0.00     0.169 HD
ATOM     13  H41 UNL     1      38.599  20.693  25.338  1.00  0.00     0.169 HD
ENDBRANCH   8  11
ENDBRANCH   6   8
BRANCH   1  14
HETATM   14  N1  UNL     1      32.775  23.781  21.679  1.00  0.00    -0.306 N 
HETATM   15  C2  UNL     1      31.524  23.539  22.290  1.00  0.00     0.219 C 
HETATM   16  C1  UNL     1      30.237  23.810  21.604  1.00  0.00     0.117 C 
HETATM   17  O1  UNL     1      31.518  23.077  23.461  1.00  0.00    -0.274 OA
ATOM     18  H1  UNL     1      32.824  24.156  20.732  1.00  0.00     0.171 HD
ENDBRANCH   1  14
TORSDOF 3
ENDMDL
