MODEL 1
REMARK VINA RESULT: -5.406938867      0.000      0.000
REMARK  3 active torsions:
REMARK  status: ('A' for Active; 'I' for Inactive)
REMARK       I    between atoms: C2_2  and  N1_4 
REMARK    1  A    between atoms: N1_4  and  C3_6 
REMARK    2  A    between atoms: C4_11  and  S1_12 
REMARK    3  A    between atoms: S1_12  and  N4_13 
ROOT
HETATM    1  C3  UNL     1      39.211  16.634  20.882  1.00  0.00     0.168 A 
HETATM    2  N2  UNL     1      39.246  15.440  20.298  1.00  0.00    -0.278 N 
ATOM      3  H2  UNL     1      39.600  15.344  19.346  1.00  0.00     0.189 HD
HETATM    4  N3  UNL     1      38.838  14.426  20.927  1.00  0.00    -0.281 N 
ATOM      5  H3  UNL     1      38.863  13.508  20.484  1.00  0.00     0.188 HD
HETATM    6  C4  UNL     1      38.376  14.554  22.166  1.00  0.00     0.208 A 
HETATM    7  S2  UNL     1      38.553  16.238  22.410  1.00  0.00    -0.020 SA
ENDROOT
BRANCH   6   8
HETATM    8  S1  UNL     1      37.757  13.282  23.234  1.00  0.00     0.280 S 
HETATM    9  O2  UNL     1      36.781  12.439  22.495  1.00  0.00    -0.199 OA
HETATM   10  O3  UNL     1      38.948  12.470  23.652  1.00  0.00    -0.199 OA
BRANCH   8  11
HETATM   11  N4  UNL     1      37.064  14.026  24.621  1.00  0.00    -0.323 N 
ATOM     12  H42 UNL     1      36.661  14.963  24.642  1.00  0.00     0.169 HD
ATOM     13  H41 UNL     1      37.126  13.374  25.402  1.00  0.00     0.169 HD
ENDBRANCH   8  11
ENDBRANCH   6   8
BRANCH   1  14
HETATM   14  N1  UNL     1      39.623  17.908  20.350  1.00  0.00    -0.306 N 
HETATM   15  C2  UNL     1      40.799  17.977  19.570  1.00  0.00     0.219 C 
HETATM   16  C1  UNL     1      41.293  19.248  18.986  1.00  0.00     0.117 C 
HETATM   17  O1  UNL     1      41.440  16.912  19.373  1.00  0.00    -0.274 OA
ATOM     18  H1  UNL     1      39.074  18.747  20.534  1.00  0.00     0.171 HD
ENDBRANCH   1  14
TORSDOF 3
ENDMDL
