MODEL 2
REMARK VINA RESULT: -5.330075744      7.690      8.446
REMARK  3 active torsions:
REMARK  status: ('A' for Active; 'I' for Inactive)
REMARK       I    between atoms: C2_2  and  N1_4 
REMARK    1  A    between atoms: N1_4  and  C3_6 
REMARK    2  A    between atoms: C4_11  and  S1_12 
REMARK    3  A    between atoms: S1_12  and  N4_13 
ROOT
HETATM    1  C3  UNL     1      38.206  23.289  19.612  1.00  0.00     0.168 A 
HETATM    2  N2  UNL     1      38.373  24.354  20.391  1.00  0.00    -0.278 N 
ATOM      3  H2  UNL     1      38.528  25.273  19.978  1.00  0.00     0.189 HD
HETATM    4  N3  UNL     1      38.338  24.221  21.645  1.00  0.00    -0.281 N 
ATOM      5  H3  UNL     1      38.465  25.034  22.247  1.00  0.00     0.188 HD
HETATM    6  C4  UNL     1      38.136  23.022  22.180  1.00  0.00     0.208 A 
HETATM    7  S2  UNL     1      37.991  22.055  20.777  1.00  0.00    -0.020 SA
ENDROOT
BRANCH   6   8
HETATM    8  S1  UNL     1      38.048  22.598  23.899  1.00  0.00     0.280 S 
HETATM    9  O2  UNL     1      38.554  21.216  24.101  1.00  0.00    -0.199 OA
HETATM   10  O3  UNL     1      38.916  23.589  24.619  1.00  0.00    -0.199 OA
BRANCH   8  11
HETATM   11  N4  UNL     1      36.421  22.784  24.422  1.00  0.00    -0.323 N 
ATOM     12  H42 UNL     1      35.605  22.775  23.810  1.00  0.00     0.169 HD
ATOM     13  H41 UNL     1      36.419  22.902  25.435  1.00  0.00     0.169 HD
ENDBRANCH   8  11
ENDBRANCH   6   8
BRANCH   1  14
HETATM   14  N1  UNL     1      38.209  23.218  18.173  1.00  0.00    -0.306 N 
HETATM   15  C2  UNL     1      37.273  23.987  17.447  1.00  0.00     0.219 C 
HETATM   16  C1  UNL     1      37.208  23.971  15.965  1.00  0.00     0.117 C 
HETATM   17  O1  UNL     1      36.470  24.707  18.096  1.00  0.00    -0.274 OA
ATOM     18  H1  UNL     1      38.878  22.621  17.686  1.00  0.00     0.171 HD
ENDBRANCH   1  14
TORSDOF 3
ENDMDL
