MODEL 11
REMARK VINA RESULT: -5.019235284      6.696      7.906
REMARK  3 active torsions:
REMARK  status: ('A' for Active; 'I' for Inactive)
REMARK       I    between atoms: C2_2  and  N1_4 
REMARK    1  A    between atoms: N1_4  and  C3_6 
REMARK    2  A    between atoms: C4_11  and  S1_12 
REMARK    3  A    between atoms: S1_12  and  N4_13 
ROOT
HETATM    1  C3  UNL     1      38.259  22.400  24.835  1.00  0.00     0.168 A 
HETATM    2  N2  UNL     1      38.271  21.074  24.935  1.00  0.00    -0.278 N 
ATOM      3  H2  UNL     1      38.306  20.630  25.852  1.00  0.00     0.189 HD
HETATM    4  N3  UNL     1      38.239  20.369  23.890  1.00  0.00    -0.281 N 
ATOM      5  H3  UNL     1      38.248  19.352  23.961  1.00  0.00     0.188 HD
HETATM    6  C4  UNL     1      38.194  20.952  22.697  1.00  0.00     0.208 A 
HETATM    7  S2  UNL     1      38.198  22.604  23.138  1.00  0.00    -0.020 SA
ENDROOT
BRANCH   6   8
HETATM    8  S1  UNL     1      38.143  20.172  21.106  1.00  0.00     0.280 S 
HETATM    9  O2  UNL     1      36.781  20.303  20.527  1.00  0.00    -0.199 OA
HETATM   10  O3  UNL     1      39.151  20.890  20.256  1.00  0.00    -0.199 OA
BRANCH   8  11
HETATM   11  N4  UNL     1      38.622  18.531  21.289  1.00  0.00    -0.323 N 
ATOM     12  H42 UNL     1      39.416  18.097  20.817  1.00  0.00     0.169 HD
ATOM     13  H41 UNL     1      37.983  18.078  21.942  1.00  0.00     0.169 HD
ENDBRANCH   8  11
ENDBRANCH   6   8
BRANCH   1  14
HETATM   14  N1  UNL     1      38.289  23.383  25.887  1.00  0.00    -0.306 N 
HETATM   15  C2  UNL     1      39.121  23.162  27.007  1.00  0.00     0.219 C 
HETATM   16  C1  UNL     1      39.211  24.122  28.134  1.00  0.00     0.117 C 
HETATM   17  O1  UNL     1      39.806  22.106  27.035  1.00  0.00    -0.274 OA
ATOM     18  H1  UNL     1      37.718  24.226  25.825  1.00  0.00     0.171 HD
ENDBRANCH   1  14
TORSDOF 3
ENDMDL
