MODEL 5
REMARK VINA RESULT: -4.389119351      0.757      1.874
REMARK  2 active torsions:
REMARK  status: ('A' for Active; 'I' for Inactive)
REMARK    1  A    between atoms: C2_2  and  C3_3 
REMARK    2  A    between atoms: C3_3  and  C4_5 
ROOT
HETATM    1  C3  UNL     1       0.632  17.888  23.870  1.00  0.00     0.224 C 
HETATM    2  O1  UNL     1       0.168  17.005  24.605  1.00  0.00    -0.286 OA
ENDROOT
BRANCH   1   3
HETATM    3  C2  UNL     1      -0.199  18.375  22.747  1.00  0.00     0.086 C 
HETATM    4  C1  UNL     1      -1.180  19.440  23.213  1.00  0.00     0.013 C 
ENDBRANCH   1   3
BRANCH   1   5
HETATM    5  C4  UNL     1       1.956  18.448  24.090  1.00  0.00     0.246 C 
HETATM    6  O2  UNL     1       2.862  17.742  24.540  1.00  0.00    -0.642 OA
HETATM    7  O3  UNL     1       2.249  19.783  23.802  1.00  0.00    -0.642 OA
ENDBRANCH   1   5
TORSDOF 2
ENDMDL
