MODEL 10
REMARK VINA RESULT: -3.898549308      5.529      6.146
REMARK  2 active torsions:
REMARK  status: ('A' for Active; 'I' for Inactive)
REMARK    1  A    between atoms: C2_2  and  C3_3 
REMARK    2  A    between atoms: C3_3  and  C4_5 
ROOT
HETATM    1  C3  UNL     1      -2.077  23.317  23.336  1.00  0.00     0.224 C 
HETATM    2  O1  UNL     1      -2.432  23.610  22.186  1.00  0.00    -0.286 OA
ENDROOT
BRANCH   1   3
HETATM    3  C2  UNL     1      -2.926  22.391  24.117  1.00  0.00     0.086 C 
HETATM    4  C1  UNL     1      -4.351  22.913  24.227  1.00  0.00     0.013 C 
ENDBRANCH   1   3
BRANCH   1   5
HETATM    5  C4  UNL     1      -0.858  23.853  23.921  1.00  0.00     0.246 C 
HETATM    6  O2  UNL     1      -0.919  24.726  24.790  1.00  0.00    -0.642 OA
HETATM    7  O3  UNL     1       0.406  23.405  23.531  1.00  0.00    -0.642 OA
ENDBRANCH   1   5
TORSDOF 2
ENDMDL
