MODEL 2
REMARK VINA RESULT: -4.656072573      0.114      1.207
REMARK  2 active torsions:
REMARK  status: ('A' for Active; 'I' for Inactive)
REMARK    1  A    between atoms: C2_2  and  C3_3 
REMARK    2  A    between atoms: C3_3  and  C4_5 
ROOT
HETATM    1  C3  UNL     1       1.328  18.787  23.712  1.00  0.00     0.224 C 
HETATM    2  O1  UNL     1       1.797  19.925  23.565  1.00  0.00    -0.286 OA
ENDROOT
BRANCH   1   3
HETATM    3  C2  UNL     1       0.131  18.415  22.928  1.00  0.00     0.086 C 
HETATM    4  C1  UNL     1      -1.015  19.384  23.181  1.00  0.00     0.013 C 
ENDBRANCH   1   3
BRANCH   1   5
HETATM    5  C4  UNL     1       1.927  17.825  24.624  1.00  0.00     0.246 C 
HETATM    6  O2  UNL     1       3.148  17.650  24.626  1.00  0.00    -0.642 OA
HETATM    7  O3  UNL     1       1.158  17.079  25.519  1.00  0.00    -0.642 OA
ENDBRANCH   1   5
TORSDOF 2
ENDMDL
