MODEL 4
REMARK VINA RESULT: -4.493517344      0.749      1.854
REMARK  2 active torsions:
REMARK  status: ('A' for Active; 'I' for Inactive)
REMARK    1  A    between atoms: C2_2  and  C3_3 
REMARK    2  A    between atoms: C3_3  and  C4_5 
ROOT
HETATM    1  C3  UNL     1       0.576  17.983  23.811  1.00  0.00     0.224 C 
HETATM    2  O1  UNL     1       0.126  17.068  24.515  1.00  0.00    -0.286 OA
ENDROOT
BRANCH   1   3
HETATM    3  C2  UNL     1      -0.274  18.516  22.725  1.00  0.00     0.086 C 
HETATM    4  C1  UNL     1      -1.237  19.571  23.248  1.00  0.00     0.013 C 
ENDBRANCH   1   3
BRANCH   1   5
HETATM    5  C4  UNL     1       1.902  18.538  24.036  1.00  0.00     0.246 C 
HETATM    6  O2  UNL     1       2.136  19.717  23.757  1.00  0.00    -0.642 OA
HETATM    7  O3  UNL     1       2.941  17.772  24.569  1.00  0.00    -0.642 OA
ENDBRANCH   1   5
TORSDOF 2
ENDMDL
