MODEL 12
REMARK VINA RESULT: -3.661834414      5.582      6.452
REMARK  2 active torsions:
REMARK  status: ('A' for Active; 'I' for Inactive)
REMARK    1  A    between atoms: C2_2  and  C3_3 
REMARK    2  A    between atoms: C3_3  and  C4_5 
ROOT
HETATM    1  C3  UNL     1      -2.086  23.434  23.279  1.00  0.00     0.224 C 
HETATM    2  O1  UNL     1      -1.698  23.204  22.125  1.00  0.00    -0.286 OA
ENDROOT
BRANCH   1   3
HETATM    3  C2  UNL     1      -1.656  24.692  23.926  1.00  0.00     0.086 C 
HETATM    4  C1  UNL     1      -0.240  24.573  24.471  1.00  0.00     0.013 C 
ENDBRANCH   1   3
BRANCH   1   5
HETATM    5  C4  UNL     1      -2.949  22.507  23.994  1.00  0.00     0.246 C 
HETATM    6  O2  UNL     1      -2.520  21.405  24.347  1.00  0.00    -0.642 OA
HETATM    7  O3  UNL     1      -4.273  22.823  24.307  1.00  0.00    -0.642 OA
ENDBRANCH   1   5
TORSDOF 2
ENDMDL
