MODEL 1
REMARK VINA RESULT: -4.672013977      0.000      0.000
REMARK  2 active torsions:
REMARK  status: ('A' for Active; 'I' for Inactive)
REMARK    1  A    between atoms: C2_2  and  C3_3 
REMARK    2  A    between atoms: C3_3  and  C4_5 
ROOT
HETATM    1  C3  UNL     1       1.225  18.754  23.726  1.00  0.00     0.224 C 
HETATM    2  O1  UNL     1       1.713  19.882  23.568  1.00  0.00    -0.286 OA
ENDROOT
BRANCH   1   3
HETATM    3  C2  UNL     1       0.019  18.397  22.949  1.00  0.00     0.086 C 
HETATM    4  C1  UNL     1      -1.090  19.419  23.156  1.00  0.00     0.013 C 
ENDBRANCH   1   3
BRANCH   1   5
HETATM    5  C4  UNL     1       1.812  17.789  24.642  1.00  0.00     0.246 C 
HETATM    6  O2  UNL     1       1.091  17.141  25.406  1.00  0.00    -0.642 OA
HETATM    7  O3  UNL     1       3.189  17.560  24.690  1.00  0.00    -0.642 OA
ENDBRANCH   1   5
TORSDOF 2
ENDMDL
