MODEL 3
REMARK VINA RESULT: -4.495472232      1.237      1.300
REMARK  2 active torsions:
REMARK  status: ('A' for Active; 'I' for Inactive)
REMARK    1  A    between atoms: C2_2  and  C3_3 
REMARK    2  A    between atoms: C3_3  and  C4_5 
ROOT
HETATM    1  C3  UNL     1       0.984  17.896  23.590  1.00  0.00     0.224 C 
HETATM    2  O1  UNL     1       0.785  17.067  22.691  1.00  0.00    -0.286 OA
ENDROOT
BRANCH   1   3
HETATM    3  C2  UNL     1       0.369  19.234  23.459  1.00  0.00     0.086 C 
HETATM    4  C1  UNL     1      -1.085  19.130  23.020  1.00  0.00     0.013 C 
ENDBRANCH   1   3
BRANCH   1   5
HETATM    5  C4  UNL     1       1.794  17.579  24.756  1.00  0.00     0.246 C 
HETATM    6  O2  UNL     1       1.255  17.221  25.807  1.00  0.00    -0.642 OA
HETATM    7  O3  UNL     1       3.187  17.663  24.731  1.00  0.00    -0.642 OA
ENDBRANCH   1   5
TORSDOF 2
ENDMDL
