MODEL 13
REMARK VINA RESULT: -3.643403462      4.493      5.526
REMARK  2 active torsions:
REMARK  status: ('A' for Active; 'I' for Inactive)
REMARK    1  A    between atoms: C2_2  and  C3_3 
REMARK    2  A    between atoms: C3_3  and  C4_5 
ROOT
HETATM    1  C3  UNL     1      -1.648  22.965  23.094  1.00  0.00     0.224 C 
HETATM    2  O1  UNL     1      -2.075  23.430  22.028  1.00  0.00    -0.286 OA
ENDROOT
BRANCH   1   3
HETATM    3  C2  UNL     1      -2.187  21.668  23.559  1.00  0.00     0.086 C 
HETATM    4  C1  UNL     1      -1.268  20.520  23.169  1.00  0.00     0.013 C 
ENDBRANCH   1   3
BRANCH   1   5
HETATM    5  C4  UNL     1      -0.639  23.657  23.880  1.00  0.00     0.246 C 
HETATM    6  O2  UNL     1      -0.964  24.290  24.888  1.00  0.00    -0.642 OA
HETATM    7  O3  UNL     1       0.714  23.629  23.533  1.00  0.00    -0.642 OA
ENDBRANCH   1   5
TORSDOF 2
ENDMDL
