MODEL 3
REMARK VINA RESULT: -6.499906590      2.983      5.220
REMARK  3 active torsions:
REMARK  status: ('A' for Active; 'I' for Inactive)
REMARK    1  A    between atoms: N5_13  and  C6_14 
REMARK    2  A    between atoms: C8_17  and  O2_18 
REMARK    3  A    between atoms: C9_20  and  O3_21 
ROOT
HETATM    1  N1  UNL     1     -14.010 -27.992  -6.389  1.00  0.00    -0.080 NA
HETATM    2  C1  UNL     1     -13.494 -27.661  -5.098  1.00  0.00     0.148 A 
HETATM    3  N2  UNL     1     -14.162 -27.906  -3.962  1.00  0.00    -0.339 N 
ATOM      4  H2  UNL     1     -15.081 -28.346  -4.014  1.00  0.00     0.167 HD
HETATM    5  C2  UNL     1     -13.662 -27.589  -2.764  1.00  0.00     0.183 A 
HETATM    6  N3  UNL     1     -12.454 -27.007  -2.664  1.00  0.00    -0.336 N 
ATOM      7  H3  UNL     1     -12.076 -26.767  -1.747  1.00  0.00     0.168 HD
HETATM    8  C3  UNL     1     -11.746 -26.743  -3.777  1.00  0.00     0.142 A 
HETATM    9  C4  UNL     1     -12.248 -27.063  -5.025  1.00  0.00     0.119 A 
HETATM   10  N4  UNL     1     -11.346 -26.697  -5.981  1.00  0.00    -0.346 N 
ATOM     11  H4  UNL     1     -11.441 -26.809  -6.990  1.00  0.00     0.167 HD
HETATM   12  C5  UNL     1     -10.306 -26.159  -5.320  1.00  0.00     0.188 A 
HETATM   13  N5  UNL     1     -10.533 -26.180  -3.995  1.00  0.00    -0.297 N 
ENDROOT
BRANCH  13  14
HETATM   14  C6  UNL     1      -9.634 -25.686  -2.980  1.00  0.00     0.261 C 
HETATM   15  O1  UNL     1      -9.659 -24.303  -2.873  1.00  0.00    -0.361 OA
HETATM   16  C7  UNL     1      -8.378 -23.832  -2.837  1.00  0.00     0.205 C 
HETATM   17  C8  UNL     1      -7.528 -24.854  -3.584  1.00  0.00     0.175 C 
HETATM   18  C9  UNL     1      -8.227 -26.134  -3.163  1.00  0.00     0.198 C 
BRANCH  17  19
HETATM   19  O2  UNL     1      -6.209 -24.826  -3.144  1.00  0.00    -0.391 OA
ATOM     20  H2  UNL     1      -5.814 -23.976  -3.304  1.00  0.00     0.210 HD
ENDBRANCH  17  19
BRANCH  18  21
HETATM   21  O3  UNL     1      -7.662 -26.497  -1.933  1.00  0.00    -0.389 OA
ATOM     22  H3  UNL     1      -6.714 -26.516  -1.994  1.00  0.00     0.210 HD
ENDBRANCH  18  21
ENDBRANCH  13  14
TORSDOF 3
ENDMDL
