MODEL 2
REMARK VINA RESULT: -6.619767743      1.124      1.633
REMARK  3 active torsions:
REMARK  status: ('A' for Active; 'I' for Inactive)
REMARK    1  A    between atoms: N5_13  and  C6_14 
REMARK    2  A    between atoms: C8_17  and  O2_18 
REMARK    3  A    between atoms: C9_20  and  O3_21 
ROOT
HETATM    1  N1  UNL     1      -8.368 -26.771  -6.673  1.00  0.00    -0.080 NA
HETATM    2  C1  UNL     1      -8.994 -26.875  -5.393  1.00  0.00     0.148 A 
HETATM    3  N2  UNL     1      -8.327 -26.723  -4.240  1.00  0.00    -0.339 N 
ATOM      4  H2  UNL     1      -7.327 -26.523  -4.271  1.00  0.00     0.167 HD
HETATM    5  C2  UNL     1      -8.931 -26.824  -3.053  1.00  0.00     0.183 A 
HETATM    6  N3  UNL     1     -10.247 -27.086  -2.981  1.00  0.00    -0.336 N 
ATOM      7  H3  UNL     1     -10.705 -27.162  -2.072  1.00  0.00     0.168 HD
HETATM    8  C3  UNL     1     -10.959 -27.246  -4.111  1.00  0.00     0.142 A 
HETATM    9  C4  UNL     1     -10.351 -27.146  -5.349  1.00  0.00     0.119 A 
HETATM   10  N4  UNL     1     -11.281 -27.347  -6.325  1.00  0.00    -0.346 N 
ATOM     11  H4  UNL     1     -11.126 -27.332  -7.333  1.00  0.00     0.167 HD
HETATM   12  C5  UNL     1     -12.444 -27.569  -5.688  1.00  0.00     0.188 A 
HETATM   13  N5  UNL     1     -12.265 -27.511  -4.357  1.00  0.00    -0.297 N 
ENDROOT
BRANCH  13  14
HETATM   14  C6  UNL     1     -13.293 -27.700  -3.362  1.00  0.00     0.261 C 
HETATM   15  O1  UNL     1     -14.526 -28.003  -3.920  1.00  0.00    -0.361 OA
HETATM   16  C7  UNL     1     -15.486 -27.228  -3.337  1.00  0.00     0.205 C 
HETATM   17  C8  UNL     1     -14.782 -25.958  -2.871  1.00  0.00     0.175 C 
HETATM   18  C9  UNL     1     -13.449 -26.541  -2.441  1.00  0.00     0.198 C 
BRANCH  17  19
HETATM   19  O2  UNL     1     -15.454 -25.378  -1.799  1.00  0.00    -0.391 OA
ATOM     20  H2  UNL     1     -15.144 -24.494  -1.640  1.00  0.00     0.210 HD
ENDBRANCH  17  19
BRANCH  18  21
HETATM   21  O3  UNL     1     -13.626 -26.981  -1.122  1.00  0.00    -0.389 OA
ATOM     22  H3  UNL     1     -14.169 -26.371  -0.636  1.00  0.00     0.210 HD
ENDBRANCH  18  21
ENDBRANCH  13  14
TORSDOF 3
ENDMDL
