MODEL 1
REMARK VINA RESULT: -6.629869699      0.000      0.000
REMARK  3 active torsions:
REMARK  status: ('A' for Active; 'I' for Inactive)
REMARK    1  A    between atoms: N5_13  and  C6_14 
REMARK    2  A    between atoms: C8_17  and  O2_18 
REMARK    3  A    between atoms: C9_20  and  O3_21 
ROOT
HETATM    1  N1  UNL     1      -7.828 -27.235  -5.618  1.00  0.00    -0.080 NA
HETATM    2  C1  UNL     1      -8.840 -26.880  -4.674  1.00  0.00     0.148 A 
HETATM    3  N2  UNL     1      -8.563 -26.384  -3.460  1.00  0.00    -0.339 N 
ATOM      4  H2  UNL     1      -7.587 -26.251  -3.191  1.00  0.00     0.167 HD
HETATM    5  C2  UNL     1      -9.524 -26.059  -2.591  1.00  0.00     0.183 A 
HETATM    6  N3  UNL     1     -10.818 -26.223  -2.916  1.00  0.00    -0.336 N 
ATOM      7  H3  UNL     1     -11.549 -25.974  -2.250  1.00  0.00     0.168 HD
HETATM    8  C3  UNL     1     -11.145 -26.718  -4.124  1.00  0.00     0.142 A 
HETATM    9  C4  UNL     1     -10.164 -27.060  -5.036  1.00  0.00     0.119 A 
HETATM   10  N4  UNL     1     -10.750 -27.533  -6.173  1.00  0.00    -0.346 N 
ATOM     11  H4  UNL     1     -10.280 -27.860  -7.016  1.00  0.00     0.167 HD
HETATM   12  C5  UNL     1     -12.076 -27.479  -5.954  1.00  0.00     0.188 A 
HETATM   13  N5  UNL     1     -12.327 -26.991  -4.727  1.00  0.00    -0.297 N 
ENDROOT
BRANCH  13  14
HETATM   14  C6  UNL     1     -13.636 -26.793  -4.153  1.00  0.00     0.261 C 
HETATM   15  O1  UNL     1     -13.694 -25.679  -3.329  1.00  0.00    -0.361 OA
HETATM   16  C7  UNL     1     -14.319 -26.015  -2.163  1.00  0.00     0.205 C 
HETATM   17  C8  UNL     1     -14.077 -27.507  -1.965  1.00  0.00     0.175 C 
HETATM   18  C9  UNL     1     -14.144 -27.976  -3.407  1.00  0.00     0.198 C 
BRANCH  17  19
HETATM   19  O2  UNL     1     -15.085 -28.080  -1.196  1.00  0.00    -0.391 OA
ATOM     20  H2  UNL     1     -14.917 -29.003  -1.045  1.00  0.00     0.210 HD
ENDBRANCH  17  19
BRANCH  18  21
HETATM   21  O3  UNL     1     -15.502 -28.187  -3.682  1.00  0.00    -0.389 OA
ATOM     22  H3  UNL     1     -16.034 -27.971  -2.926  1.00  0.00     0.210 HD
ENDBRANCH  18  21
ENDBRANCH  13  14
TORSDOF 3
ENDMDL
