MODEL 5
REMARK VINA RESULT: -5.533171569      9.079     10.530
REMARK  0 active torsions:
REMARK  status: ('A' for Active; 'I' for Inactive)
ROOT
HETATM    1  O1  UNL     1     -10.331   9.411 -32.031  1.00  0.00    -0.247 OA
HETATM    2  C1  UNL     1      -9.909  10.572 -32.361  1.00  0.00     0.328 A 
HETATM    3  N1  UNL     1      -8.674  10.662 -32.891  1.00  0.00    -0.273 N 
ATOM      4  H1  UNL     1      -8.087   9.839 -33.028  1.00  0.00     0.173 HD
HETATM    5  C2  UNL     1      -8.256  11.895 -33.230  1.00  0.00     0.280 A 
HETATM    6  O2  UNL     1      -7.119  12.039 -33.726  1.00  0.00    -0.265 OA
HETATM    7  C3  UNL     1      -9.042  13.028 -33.050  1.00  0.00     0.146 A 
HETATM    8  N2  UNL     1      -8.887  14.337 -33.288  1.00  0.00    -0.345 N 
ATOM      9  H2  UNL     1      -8.050  14.753 -33.695  1.00  0.00     0.167 HD
HETATM   10  C4  UNL     1      -9.980  15.033 -32.921  1.00  0.00     0.182 A 
HETATM   11  N3  UNL     1     -10.838  14.114 -32.439  1.00  0.00    -0.336 N 
ATOM     12  H3  UNL     1     -11.767  14.326 -32.076  1.00  0.00     0.168 HD
HETATM   13  C5  UNL     1     -10.306  12.878 -32.500  1.00  0.00     0.143 A 
HETATM   14  N4  UNL     1     -10.694  11.645 -32.174  1.00  0.00    -0.292 N 
ATOM     15  H4  UNL     1     -11.619  11.512 -31.767  1.00  0.00     0.172 HD
ENDROOT
TORSDOF 0
ENDMDL
