MODEL 1
REMARK VINA RESULT: -6.464121683      0.000      0.000
REMARK  0 active torsions:
REMARK  status: ('A' for Active; 'I' for Inactive)
ROOT
HETATM    1  O1  UNL     1       1.574   6.034 -31.487  1.00  0.00    -0.247 OA
HETATM    2  C1  UNL     1       0.335   6.117 -31.180  1.00  0.00     0.328 A 
HETATM    3  N1  UNL     1      -0.417   5.006 -31.303  1.00  0.00    -0.273 N 
ATOM      4  H1  UNL     1      -0.023   4.124 -31.629  1.00  0.00     0.173 HD
HETATM    5  C2  UNL     1      -1.715   5.123 -30.971  1.00  0.00     0.280 A 
HETATM    6  O2  UNL     1      -2.461   4.126 -31.065  1.00  0.00    -0.265 OA
HETATM    7  C3  UNL     1      -2.270   6.318 -30.525  1.00  0.00     0.146 A 
HETATM    8  N2  UNL     1      -3.491   6.710 -30.138  1.00  0.00    -0.345 N 
ATOM      9  H2  UNL     1      -4.309   6.102 -30.111  1.00  0.00     0.167 HD
HETATM   10  C4  UNL     1      -3.498   8.011 -29.790  1.00  0.00     0.182 A 
HETATM   11  N3  UNL     1      -2.232   8.432 -29.970  1.00  0.00    -0.336 N 
ATOM     12  H3  UNL     1      -1.908   9.382 -29.792  1.00  0.00     0.168 HD
HETATM   13  C5  UNL     1      -1.449   7.430 -30.417  1.00  0.00     0.143 A 
HETATM   14  N4  UNL     1      -0.167   7.285 -30.752  1.00  0.00    -0.292 N 
ATOM     15  H4  UNL     1       0.453   8.091 -30.680  1.00  0.00     0.172 HD
ENDROOT
TORSDOF 0
ENDMDL
