MODEL 7
REMARK VINA RESULT: -5.010961219     10.170     10.579
REMARK  0 active torsions:
REMARK  status: ('A' for Active; 'I' for Inactive)
ROOT
HETATM    1  O1  UNL     1      -7.606  12.335 -36.963  1.00  0.00    -0.247 OA
HETATM    2  C1  UNL     1      -8.179  12.362 -35.820  1.00  0.00     0.328 A 
HETATM    3  N1  UNL     1      -8.164  13.523 -35.139  1.00  0.00    -0.273 N 
ATOM      4  H1  UNL     1      -7.716  14.360 -35.512  1.00  0.00     0.173 HD
HETATM    5  C2  UNL     1      -8.774  13.523 -33.940  1.00  0.00     0.280 A 
HETATM    6  O2  UNL     1      -8.793  14.572 -33.264  1.00  0.00    -0.265 OA
HETATM    7  C3  UNL     1      -9.391  12.392 -33.415  1.00  0.00     0.146 A 
HETATM    8  N2  UNL     1     -10.052  12.112 -32.284  1.00  0.00    -0.345 N 
ATOM      9  H2  UNL     1     -10.224  12.784 -31.536  1.00  0.00     0.167 HD
HETATM   10  C4  UNL     1     -10.460  10.829 -32.262  1.00  0.00     0.182 A 
HETATM   11  N3  UNL     1     -10.032  10.302 -33.424  1.00  0.00    -0.336 N 
ATOM     12  H3  UNL     1     -10.184   9.335 -33.712  1.00  0.00     0.168 HD
HETATM   13  C5  UNL     1      -9.376  11.222 -34.158  1.00  0.00     0.143 A 
HETATM   14  N4  UNL     1      -8.764  11.252 -35.342  1.00  0.00    -0.292 N 
ATOM     15  H4  UNL     1      -8.741  10.403 -35.906  1.00  0.00     0.172 HD
ENDROOT
TORSDOF 0
ENDMDL
