MODEL 6
REMARK VINA RESULT: -5.043780655      9.718     10.649
REMARK  0 active torsions:
REMARK  status: ('A' for Active; 'I' for Inactive)
ROOT
HETATM    1  O1  UNL     1     -10.088  10.691 -31.557  1.00  0.00    -0.247 OA
HETATM    2  C1  UNL     1      -9.593  11.375 -32.518  1.00  0.00     0.328 A 
HETATM    3  N1  UNL     1      -9.598  12.716 -32.399  1.00  0.00    -0.273 N 
ATOM      4  H1  UNL     1      -9.981  13.182 -31.577  1.00  0.00     0.173 HD
HETATM    5  C2  UNL     1      -9.070  13.410 -33.424  1.00  0.00     0.280 A 
HETATM    6  O2  UNL     1      -9.047  14.657 -33.369  1.00  0.00    -0.265 OA
HETATM    7  C3  UNL     1      -8.544  12.792 -34.554  1.00  0.00     0.146 A 
HETATM    8  N2  UNL     1      -7.974  13.219 -35.688  1.00  0.00    -0.345 N 
ATOM      9  H2  UNL     1      -7.821  14.200 -35.922  1.00  0.00     0.167 HD
HETATM   10  C4  UNL     1      -7.630  12.186 -36.480  1.00  0.00     0.182 A 
HETATM   11  N3  UNL     1      -8.003  11.083 -35.804  1.00  0.00    -0.336 N 
ATOM     12  H3  UNL     1      -7.878  10.129 -36.141  1.00  0.00     0.168 HD
HETATM   13  C5  UNL     1      -8.565  11.408 -34.623  1.00  0.00     0.143 A 
HETATM   14  N4  UNL     1      -9.093  10.747 -33.594  1.00  0.00    -0.292 N 
ATOM     15  H4  UNL     1      -9.119   9.728 -33.624  1.00  0.00     0.172 HD
ENDROOT
TORSDOF 0
ENDMDL
