MODEL 1
REMARK VINA RESULT: -7.590975504      0.000      0.000
REMARK  3 active torsions:
REMARK  status: ('A' for Active; 'I' for Inactive)
REMARK    1  A    between atoms: C2_5  and  C3_6 
REMARK    2  A    between atoms: C3_6  and  C4_7 
REMARK    3  A    between atoms: C4_7  and  C5_8 
ROOT
HETATM    1  N1  UNL     1       2.194   5.927   9.720  1.00  0.00    -0.063 NA
HETATM    2  C1  UNL     1       0.819   5.538   9.887  1.00  0.00     0.195 A 
HETATM    3  N2  UNL     1       0.475   4.333  10.350  1.00  0.00    -0.334 N 
ATOM      4  H2  UNL     1       1.206   3.665  10.594  1.00  0.00     0.168 HD
HETATM    5  C2  UNL     1      -0.810   3.983  10.501  1.00  0.00     0.017 A 
HETATM    6  C11 UNL     1      -1.777   4.898  10.165  1.00  0.00     0.099 A 
HETATM    7  C12 UNL     1      -1.446   6.141   9.687  1.00  0.00     0.249 A 
HETATM    8  O1  UNL     1      -2.375   6.929   9.399  1.00  0.00    -0.268 OA
HETATM    9  N3  UNL     1      -0.145   6.438   9.557  1.00  0.00    -0.297 N 
ATOM     10  H3  UNL     1       0.126   7.356   9.205  1.00  0.00     0.171 HD
ENDROOT
BRANCH   5  11
HETATM   11  C3  UNL     1      -1.205   2.637  11.019  1.00  0.00     0.062 C 
BRANCH  11  12
HETATM   12  C4  UNL     1      -2.561   2.721  11.708  1.00  0.00     0.044 C 
BRANCH  12  13
HETATM   13  C5  UNL     1      -3.334   1.518  11.311  1.00  0.00    -0.058 A 
HETATM   14  C6  UNL     1      -4.680   1.672  11.077  1.00  0.00     0.007 A 
HETATM   15  C7  UNL     1      -5.418   0.582  10.710  1.00  0.00     0.001 A 
HETATM   16  C8  UNL     1      -4.838  -0.647  10.574  1.00  0.00     0.000 A 
HETATM   17  C9  UNL     1      -3.484  -0.803  10.809  1.00  0.00     0.001 A 
HETATM   18  C10 UNL     1      -2.733   0.284  11.179  1.00  0.00     0.007 A 
ENDBRANCH  12  13
ENDBRANCH  11  12
ENDBRANCH   5  11
TORSDOF 3
ENDMDL
