MODEL 18
REMARK VINA RESULT: -6.784044817      3.543      5.987
REMARK  3 active torsions:
REMARK  status: ('A' for Active; 'I' for Inactive)
REMARK    1  A    between atoms: C2_5  and  C3_6 
REMARK    2  A    between atoms: C3_6  and  C4_7 
REMARK    3  A    between atoms: C4_7  and  C5_8 
ROOT
HETATM    1  N1  UNL     1      -3.666   0.664   6.535  1.00  0.00    -0.063 NA
HETATM    2  C1  UNL     1      -3.387   0.559   7.942  1.00  0.00     0.195 A 
HETATM    3  N2  UNL     1      -2.309   1.123   8.495  1.00  0.00    -0.334 N 
ATOM      4  H2  UNL     1      -1.661   1.645   7.904  1.00  0.00     0.168 HD
HETATM    5  C2  UNL     1      -2.060   1.019   9.807  1.00  0.00     0.017 A 
HETATM    6  C11 UNL     1      -2.944   0.310  10.582  1.00  0.00     0.099 A 
HETATM    7  C12 UNL     1      -4.057  -0.278  10.036  1.00  0.00     0.249 A 
HETATM    8  O1  UNL     1      -4.824  -0.910  10.797  1.00  0.00    -0.268 OA
HETATM    9  N3  UNL     1      -4.257  -0.141   8.717  1.00  0.00    -0.297 N 
ATOM     10  H3  UNL     1      -5.078  -0.568   8.288  1.00  0.00     0.171 HD
ENDROOT
BRANCH   5  11
HETATM   11  C3  UNL     1      -0.856   1.648  10.434  1.00  0.00     0.062 C 
BRANCH  11  12
HETATM   12  C4  UNL     1      -1.280   2.810  11.324  1.00  0.00     0.044 C 
BRANCH  12  13
HETATM   13  C5  UNL     1      -1.141   4.052  10.525  1.00  0.00    -0.058 A 
HETATM   14  C6  UNL     1      -2.293   4.681  10.118  1.00  0.00     0.007 A 
HETATM   15  C7  UNL     1      -2.197   5.829   9.381  1.00  0.00     0.001 A 
HETATM   16  C8  UNL     1      -0.979   6.350   9.047  1.00  0.00     0.000 A 
HETATM   17  C9  UNL     1       0.181   5.717   9.456  1.00  0.00     0.001 A 
HETATM   18  C10 UNL     1       0.096   4.565  10.196  1.00  0.00     0.007 A 
ENDBRANCH  12  13
ENDBRANCH  11  12
ENDBRANCH   5  11
TORSDOF 3
ENDMDL
