MODEL 5
REMARK VINA RESULT: -7.357775746      1.052      1.655
REMARK  3 active torsions:
REMARK  status: ('A' for Active; 'I' for Inactive)
REMARK    1  A    between atoms: C2_5  and  C3_6 
REMARK    2  A    between atoms: C3_6  and  C4_7 
REMARK    3  A    between atoms: C4_7  and  C5_8 
ROOT
HETATM    1  N1  UNL     1       1.619   5.465   9.759  1.00  0.00    -0.063 NA
HETATM    2  C1  UNL     1       0.216   5.264   9.515  1.00  0.00     0.195 A 
HETATM    3  N2  UNL     1      -0.569   4.619  10.382  1.00  0.00    -0.334 N 
ATOM      4  H2  UNL     1      -0.165   4.255  11.245  1.00  0.00     0.168 HD
HETATM    5  C2  UNL     1      -1.875   4.439  10.143  1.00  0.00     0.017 A 
HETATM    6  C11 UNL     1      -2.397   4.936   8.974  1.00  0.00     0.099 A 
HETATM    7  C12 UNL     1      -1.609   5.602   8.069  1.00  0.00     0.249 A 
HETATM    8  O1  UNL     1      -2.145   6.030   7.023  1.00  0.00    -0.268 OA
HETATM    9  N3  UNL     1      -0.309   5.754   8.360  1.00  0.00    -0.297 N 
ATOM     10  H3  UNL     1       0.297   6.246   7.704  1.00  0.00     0.171 HD
ENDROOT
BRANCH   5  11
HETATM   11  C3  UNL     1      -2.762   3.718  11.108  1.00  0.00     0.062 C 
BRANCH  11  12
HETATM   12  C4  UNL     1      -2.138   2.382  11.492  1.00  0.00     0.044 C 
BRANCH  12  13
HETATM   13  C5  UNL     1      -3.139   1.327  11.200  1.00  0.00    -0.058 A 
HETATM   14  C6  UNL     1      -2.702   0.024  11.166  1.00  0.00     0.007 A 
HETATM   15  C7  UNL     1      -3.601  -0.970  10.899  1.00  0.00     0.001 A 
HETATM   16  C8  UNL     1      -4.917  -0.685  10.668  1.00  0.00     0.000 A 
HETATM   17  C9  UNL     1      -5.358   0.625  10.701  1.00  0.00     0.001 A 
HETATM   18  C10 UNL     1      -4.464   1.632  10.967  1.00  0.00     0.007 A 
ENDBRANCH  12  13
ENDBRANCH  11  12
ENDBRANCH   5  11
TORSDOF 3
ENDMDL
