MODEL 12
REMARK VINA RESULT: -6.996960353      3.628      4.781
REMARK  3 active torsions:
REMARK  status: ('A' for Active; 'I' for Inactive)
REMARK    1  A    between atoms: C2_5  and  C3_6 
REMARK    2  A    between atoms: C3_6  and  C4_7 
REMARK    3  A    between atoms: C4_7  and  C5_8 
ROOT
HETATM    1  N1  UNL     1      -4.495   2.021   6.308  1.00  0.00    -0.063 NA
HETATM    2  C1  UNL     1      -3.942   3.348   6.346  1.00  0.00     0.195 A 
HETATM    3  N2  UNL     1      -3.095   3.735   7.304  1.00  0.00    -0.334 N 
ATOM      4  H2  UNL     1      -2.830   3.073   8.034  1.00  0.00     0.168 HD
HETATM    5  C2  UNL     1      -2.586   4.975   7.329  1.00  0.00     0.017 A 
HETATM    6  C11 UNL     1      -2.957   5.850   6.338  1.00  0.00     0.099 A 
HETATM    7  C12 UNL     1      -3.826   5.473   5.344  1.00  0.00     0.249 A 
HETATM    8  O1  UNL     1      -4.124   6.318   4.471  1.00  0.00    -0.268 OA
HETATM    9  N3  UNL     1      -4.304   4.221   5.369  1.00  0.00    -0.297 N 
ATOM     10  H3  UNL     1      -4.950   3.917   4.641  1.00  0.00     0.171 HD
ENDROOT
BRANCH   5  11
HETATM   11  C3  UNL     1      -1.636   5.417   8.397  1.00  0.00     0.062 C 
BRANCH  11  12
HETATM   12  C4  UNL     1      -2.357   5.489   9.737  1.00  0.00     0.044 C 
BRANCH  12  13
HETATM   13  C5  UNL     1      -2.058   4.234  10.468  1.00  0.00    -0.058 A 
HETATM   14  C6  UNL     1      -3.105   3.583  11.076  1.00  0.00     0.007 A 
HETATM   15  C7  UNL     1      -2.860   2.423  11.757  1.00  0.00     0.001 A 
HETATM   16  C8  UNL     1      -1.597   1.910  11.839  1.00  0.00     0.000 A 
HETATM   17  C9  UNL     1      -0.542   2.564  11.230  1.00  0.00     0.001 A 
HETATM   18  C10 UNL     1      -0.776   3.729  10.543  1.00  0.00     0.007 A 
ENDBRANCH  12  13
ENDBRANCH  11  12
ENDBRANCH   5  11
TORSDOF 3
ENDMDL
