MODEL 2
REMARK VINA RESULT: -7.588234463      0.124      1.198
REMARK  3 active torsions:
REMARK  status: ('A' for Active; 'I' for Inactive)
REMARK    1  A    between atoms: C2_5  and  C3_6 
REMARK    2  A    between atoms: C3_6  and  C4_7 
REMARK    3  A    between atoms: C4_7  and  C5_8 
ROOT
HETATM    1  N1  UNL     1       2.156   5.787   9.717  1.00  0.00    -0.063 NA
HETATM    2  C1  UNL     1       0.769   5.446   9.888  1.00  0.00     0.195 A 
HETATM    3  N2  UNL     1       0.384   4.256  10.356  1.00  0.00    -0.334 N 
ATOM      4  H2  UNL     1       1.093   3.564  10.602  1.00  0.00     0.168 HD
HETATM    5  C2  UNL     1      -0.911   3.950  10.510  1.00  0.00     0.017 A 
HETATM    6  C11 UNL     1      -1.847   4.896  10.172  1.00  0.00     0.099 A 
HETATM    7  C12 UNL     1      -1.475   6.125   9.689  1.00  0.00     0.249 A 
HETATM    8  O1  UNL     1      -2.376   6.943   9.399  1.00  0.00    -0.268 OA
HETATM    9  N3  UNL     1      -0.164   6.377   9.555  1.00  0.00    -0.297 N 
ATOM     10  H3  UNL     1       0.137   7.284   9.199  1.00  0.00     0.171 HD
ENDROOT
BRANCH   5  11
HETATM   11  C3  UNL     1      -1.351   2.620  11.035  1.00  0.00     0.062 C 
BRANCH  11  12
HETATM   12  C4  UNL     1      -2.733   2.740  11.666  1.00  0.00     0.044 C 
BRANCH  12  13
HETATM   13  C5  UNL     1      -3.502   1.532  11.278  1.00  0.00    -0.058 A 
HETATM   14  C6  UNL     1      -2.819   0.344  11.180  1.00  0.00     0.007 A 
HETATM   15  C7  UNL     1      -3.501  -0.787  10.825  1.00  0.00     0.001 A 
HETATM   16  C8  UNL     1      -4.842  -0.747  10.568  1.00  0.00     0.000 A 
HETATM   17  C9  UNL     1      -5.531   0.448  10.665  1.00  0.00     0.001 A 
HETATM   18  C10 UNL     1      -4.856   1.589  11.021  1.00  0.00     0.007 A 
ENDBRANCH  12  13
ENDBRANCH  11  12
ENDBRANCH   5  11
TORSDOF 3
ENDMDL
