MODEL 17
REMARK VINA RESULT: -6.802086607      3.657      5.800
REMARK  3 active torsions:
REMARK  status: ('A' for Active; 'I' for Inactive)
REMARK    1  A    between atoms: C2_5  and  C3_6 
REMARK    2  A    between atoms: C3_6  and  C4_7 
REMARK    3  A    between atoms: C4_7  and  C5_8 
ROOT
HETATM    1  N1  UNL     1      -2.749   0.805   6.202  1.00  0.00    -0.063 NA
HETATM    2  C1  UNL     1      -3.178   0.512   7.543  1.00  0.00     0.195 A 
HETATM    3  N2  UNL     1      -2.434   0.822   8.609  1.00  0.00    -0.334 N 
ATOM      4  H2  UNL     1      -1.533   1.279   8.472  1.00  0.00     0.168 HD
HETATM    5  C2  UNL     1      -2.846   0.544   9.853  1.00  0.00     0.017 A 
HETATM    6  C11 UNL     1      -4.062  -0.073  10.014  1.00  0.00     0.099 A 
HETATM    7  C12 UNL     1      -4.842  -0.400   8.934  1.00  0.00     0.249 A 
HETATM    8  O1  UNL     1      -5.940  -0.961   9.147  1.00  0.00    -0.268 OA
HETATM    9  N3  UNL     1      -4.381  -0.098   7.711  1.00  0.00    -0.297 N 
ATOM     10  H3  UNL     1      -4.944  -0.330   6.892  1.00  0.00     0.171 HD
ENDROOT
BRANCH   5  11
HETATM   11  C3  UNL     1      -2.020   0.887  11.053  1.00  0.00     0.062 C 
BRANCH  11  12
HETATM   12  C4  UNL     1      -2.521   2.184  11.677  1.00  0.00     0.044 C 
BRANCH  12  13
HETATM   13  C5  UNL     1      -1.871   3.303  10.953  1.00  0.00    -0.058 A 
HETATM   14  C6  UNL     1      -2.684   4.245  10.369  1.00  0.00     0.007 A 
HETATM   15  C7  UNL     1      -2.114   5.289   9.695  1.00  0.00     0.001 A 
HETATM   16  C8  UNL     1      -0.756   5.404   9.596  1.00  0.00     0.000 A 
HETATM   17  C9  UNL     1       0.064   4.457  10.182  1.00  0.00     0.001 A 
HETATM   18  C10 UNL     1      -0.498   3.405  10.861  1.00  0.00     0.007 A 
ENDBRANCH  12  13
ENDBRANCH  11  12
ENDBRANCH   5  11
TORSDOF 3
ENDMDL
