MODEL 1
REMARK VINA RESULT: -5.306724818      0.000      0.000
REMARK  3 active torsions:
REMARK  status: ('A' for Active; 'I' for Inactive)
REMARK    1  A    between atoms: C1_2  and  C2_4 
REMARK    2  A    between atoms: C2_4  and  O3_5 
REMARK    3  A    between atoms: O3_5  and  P1_6 
ROOT
HETATM    1  O3  UNL     1      13.017  14.908  15.237  1.00  0.00    -0.272 OA
ENDROOT
BRANCH   1   2
HETATM    2  C2  UNL     1      13.029  14.111  16.337  1.00  0.00     0.295 C 
BRANCH   2   3
HETATM    3  C1  UNL     1      12.549  12.767  15.920  1.00  0.00     0.198 C 
HETATM    4  O1  UNL     1      11.869  12.020  16.689  1.00  0.00    -0.646 OA
HETATM    5  O2  UNL     1      12.818  12.248  14.663  1.00  0.00    -0.646 OA
ENDBRANCH   2   3
ENDBRANCH   1   2
BRANCH   1   6
HETATM    6  P1  UNL     1      11.803  16.034  15.434  1.00  0.00     0.422 P 
HETATM    7  O4  UNL     1      12.441  16.512  16.730  1.00  0.00    -0.617 OA
HETATM    8  O5  UNL     1      11.862  17.483  14.715  1.00  0.00    -0.617 OA
HETATM    9  O6  UNL     1      10.403  15.586  16.224  1.00  0.00    -0.617 OA
ENDBRANCH   1   6
TORSDOF 3
ENDMDL
