MODEL 10
REMARK VINA RESULT: -4.816541397      3.017      4.813
REMARK  3 active torsions:
REMARK  status: ('A' for Active; 'I' for Inactive)
REMARK    1  A    between atoms: C1_2  and  C2_4 
REMARK    2  A    between atoms: C2_4  and  O3_5 
REMARK    3  A    between atoms: O3_5  and  P1_6 
ROOT
HETATM    1  O3  UNL     1      11.935  17.681  15.977  1.00  0.00    -0.272 OA
ENDROOT
BRANCH   1   2
HETATM    2  C2  UNL     1      11.141  18.267  15.043  1.00  0.00     0.295 C 
BRANCH   2   3
HETATM    3  C1  UNL     1      12.026  19.001  14.100  1.00  0.00     0.198 C 
HETATM    4  O1  UNL     1      12.396  20.198  14.309  1.00  0.00    -0.646 OA
HETATM    5  O2  UNL     1      12.501  18.421  12.934  1.00  0.00    -0.646 OA
ENDBRANCH   2   3
ENDBRANCH   1   2
BRANCH   1   6
HETATM    6  P1  UNL     1      12.082  16.067  15.583  1.00  0.00     0.422 P 
HETATM    7  O4  UNL     1      12.610  15.764  16.977  1.00  0.00    -0.617 OA
HETATM    8  O5  UNL     1      10.829  15.048  15.692  1.00  0.00    -0.617 OA
HETATM    9  O6  UNL     1      13.494  15.531  14.873  1.00  0.00    -0.617 OA
ENDBRANCH   1   6
TORSDOF 3
ENDMDL
