MODEL 5
REMARK VINA RESULT: -4.927460737      2.460      4.268
REMARK  3 active torsions:
REMARK  status: ('A' for Active; 'I' for Inactive)
REMARK    1  A    between atoms: C1_2  and  C2_4 
REMARK    2  A    between atoms: C2_4  and  O3_5 
REMARK    3  A    between atoms: O3_5  and  P1_6 
ROOT
HETATM    1  O3  UNL     1      13.251  16.034  14.824  1.00  0.00    -0.272 OA
ENDROOT
BRANCH   1   2
HETATM    2  C2  UNL     1      12.500  17.165  14.763  1.00  0.00     0.295 C 
BRANCH   2   3
HETATM    3  C1  UNL     1      12.729  17.782  13.429  1.00  0.00     0.198 C 
HETATM    4  O1  UNL     1      13.172  17.118  12.441  1.00  0.00    -0.646 OA
HETATM    5  O2  UNL     1      12.473  19.122  13.185  1.00  0.00    -0.646 OA
ENDBRANCH   2   3
ENDBRANCH   1   2
BRANCH   1   6
HETATM    6  P1  UNL     1      12.488  14.969  15.854  1.00  0.00     0.422 P 
HETATM    7  O4  UNL     1      12.556  15.989  16.980  1.00  0.00    -0.617 OA
HETATM    8  O5  UNL     1      10.875  14.834  15.896  1.00  0.00    -0.617 OA
HETATM    9  O6  UNL     1      13.407  13.875  16.716  1.00  0.00    -0.617 OA
ENDBRANCH   1   6
TORSDOF 3
ENDMDL
