MODEL 4
REMARK VINA RESULT: -4.992744686      0.680      1.477
REMARK  3 active torsions:
REMARK  status: ('A' for Active; 'I' for Inactive)
REMARK    1  A    between atoms: C1_2  and  C2_4 
REMARK    2  A    between atoms: C2_4  and  O3_5 
REMARK    3  A    between atoms: O3_5  and  P1_6 
ROOT
HETATM    1  O3  UNL     1      13.163  15.078  15.657  1.00  0.00    -0.272 OA
ENDROOT
BRANCH   1   2
HETATM    2  C2  UNL     1      12.996  14.177  16.661  1.00  0.00     0.295 C 
BRANCH   2   3
HETATM    3  C1  UNL     1      12.582  12.890  16.041  1.00  0.00     0.198 C 
HETATM    4  O1  UNL     1      11.867  12.039  16.655  1.00  0.00    -0.646 OA
HETATM    5  O2  UNL     1      12.954  12.542  14.751  1.00  0.00    -0.646 OA
ENDBRANCH   2   3
ENDBRANCH   1   2
BRANCH   1   6
HETATM    6  P1  UNL     1      11.854  16.110  15.675  1.00  0.00     0.422 P 
HETATM    7  O4  UNL     1      12.200  16.593  14.275  1.00  0.00    -0.617 OA
HETATM    8  O5  UNL     1      10.368  15.606  15.277  1.00  0.00    -0.617 OA
HETATM    9  O6  UNL     1      12.038  17.643  16.309  1.00  0.00    -0.617 OA
ENDBRANCH   1   6
TORSDOF 3
ENDMDL
