MODEL 3
REMARK VINA RESULT: -5.208085556      0.852      1.460
REMARK  3 active torsions:
REMARK  status: ('A' for Active; 'I' for Inactive)
REMARK    1  A    between atoms: C1_2  and  C2_4 
REMARK    2  A    between atoms: C2_4  and  O3_5 
REMARK    3  A    between atoms: O3_5  and  P1_6 
ROOT
HETATM    1  O3  UNL     1     -18.259  -5.672 -14.283  1.00  0.00    -0.272 OA
ENDROOT
BRANCH   1   2
HETATM    2  C2  UNL     1     -17.630  -5.511 -15.477  1.00  0.00     0.295 C 
BRANCH   2   3
HETATM    3  C1  UNL     1     -18.159  -4.266 -16.096  1.00  0.00     0.198 C 
HETATM    4  O1  UNL     1     -19.309  -4.211 -16.633  1.00  0.00    -0.646 OA
HETATM    5  O2  UNL     1     -17.426  -3.090 -16.123  1.00  0.00    -0.646 OA
ENDBRANCH   2   3
ENDBRANCH   1   2
BRANCH   1   6
HETATM    6  P1  UNL     1     -17.161  -6.323 -13.211  1.00  0.00     0.422 P 
HETATM    7  O4  UNL     1     -17.804  -5.554 -12.067  1.00  0.00    -0.617 OA
HETATM    8  O5  UNL     1     -17.389  -7.778 -12.538  1.00  0.00    -0.617 OA
HETATM    9  O6  UNL     1     -15.699  -5.553 -12.979  1.00  0.00    -0.617 OA
ENDBRANCH   1   6
TORSDOF 3
ENDMDL
