MODEL 10
REMARK VINA RESULT: -4.758322413      3.296      5.050
REMARK  3 active torsions:
REMARK  status: ('A' for Active; 'I' for Inactive)
REMARK    1  A    between atoms: C1_2  and  C2_4 
REMARK    2  A    between atoms: C2_4  and  O3_5 
REMARK    3  A    between atoms: O3_5  and  P1_6 
ROOT
HETATM    1  O3  UNL     1     -17.748  -7.652 -11.564  1.00  0.00    -0.272 OA
ENDROOT
BRANCH   1   2
HETATM    2  C2  UNL     1     -18.531  -7.211 -10.544  1.00  0.00     0.295 C 
BRANCH   2   3
HETATM    3  C1  UNL     1     -17.629  -6.706  -9.475  1.00  0.00     0.198 C 
HETATM    4  O1  UNL     1     -17.253  -5.494  -9.422  1.00  0.00    -0.646 OA
HETATM    5  O2  UNL     1     -17.144  -7.530  -8.471  1.00  0.00    -0.646 OA
ENDBRANCH   2   3
ENDBRANCH   1   2
BRANCH   1   6
HETATM    6  P1  UNL     1     -17.709  -6.460 -12.729  1.00  0.00     0.422 P 
HETATM    7  O4  UNL     1     -17.106  -7.439 -13.726  1.00  0.00    -0.617 OA
HETATM    8  O5  UNL     1     -19.002  -6.121 -13.643  1.00  0.00    -0.617 OA
HETATM    9  O6  UNL     1     -16.376  -5.460 -12.822  1.00  0.00    -0.617 OA
ENDBRANCH   1   6
TORSDOF 3
ENDMDL
