MODEL 2
REMARK VINA RESULT: -5.409919631      0.495      1.415
REMARK  3 active torsions:
REMARK  status: ('A' for Active; 'I' for Inactive)
REMARK    1  A    between atoms: C1_2  and  C2_4 
REMARK    2  A    between atoms: C2_4  and  O3_5 
REMARK    3  A    between atoms: O3_5  and  P1_6 
ROOT
HETATM    1  O3  UNL     1     -16.838  -5.409 -14.088  1.00  0.00    -0.272 OA
ENDROOT
BRANCH   1   2
HETATM    2  C2  UNL     1     -17.227  -5.692 -15.359  1.00  0.00     0.295 C 
BRANCH   2   3
HETATM    3  C1  UNL     1     -17.845  -4.461 -15.921  1.00  0.00     0.198 C 
HETATM    4  O1  UNL     1     -18.995  -4.464 -16.459  1.00  0.00    -0.646 OA
HETATM    5  O2  UNL     1     -17.199  -3.235 -15.891  1.00  0.00    -0.646 OA
ENDBRANCH   2   3
ENDBRANCH   1   2
BRANCH   1   6
HETATM    6  P1  UNL     1     -17.896  -6.170 -13.048  1.00  0.00     0.422 P 
HETATM    7  O4  UNL     1     -17.192  -7.497 -13.284  1.00  0.00    -0.617 OA
HETATM    8  O5  UNL     1     -17.658  -6.176 -11.447  1.00  0.00    -0.617 OA
HETATM    9  O6  UNL     1     -19.336  -6.765 -13.648  1.00  0.00    -0.617 OA
ENDBRANCH   1   6
TORSDOF 3
ENDMDL
