MODEL 9
REMARK VINA RESULT: -4.764408593      3.254      4.931
REMARK  3 active torsions:
REMARK  status: ('A' for Active; 'I' for Inactive)
REMARK    1  A    between atoms: C1_2  and  C2_4 
REMARK    2  A    between atoms: C2_4  and  O3_5 
REMARK    3  A    between atoms: O3_5  and  P1_6 
ROOT
HETATM    1  O3  UNL     1     -17.723  -7.622 -11.620  1.00  0.00    -0.272 OA
ENDROOT
BRANCH   1   2
HETATM    2  C2  UNL     1     -18.500  -7.178 -10.597  1.00  0.00     0.295 C 
BRANCH   2   3
HETATM    3  C1  UNL     1     -17.591  -6.655  -9.542  1.00  0.00     0.198 C 
HETATM    4  O1  UNL     1     -17.153  -7.386  -8.600  1.00  0.00    -0.646 OA
HETATM    5  O2  UNL     1     -17.168  -5.335  -9.524  1.00  0.00    -0.646 OA
ENDBRANCH   2   3
ENDBRANCH   1   2
BRANCH   1   6
HETATM    6  P1  UNL     1     -17.692  -6.436 -12.791  1.00  0.00     0.422 P 
HETATM    7  O4  UNL     1     -17.101  -7.420 -13.789  1.00  0.00    -0.617 OA
HETATM    8  O5  UNL     1     -18.993  -6.098 -13.693  1.00  0.00    -0.617 OA
HETATM    9  O6  UNL     1     -16.358  -5.440 -12.900  1.00  0.00    -0.617 OA
ENDBRANCH   1   6
TORSDOF 3
ENDMDL
