MODEL 11
REMARK VINA RESULT: -4.740476729      2.679      4.477
REMARK  3 active torsions:
REMARK  status: ('A' for Active; 'I' for Inactive)
REMARK    1  A    between atoms: C1_2  and  C2_4 
REMARK    2  A    between atoms: C2_4  and  O3_5 
REMARK    3  A    between atoms: O3_5  and  P1_6 
ROOT
HETATM    1  O3  UNL     1     -18.240  -5.902 -12.339  1.00  0.00    -0.272 OA
ENDROOT
BRANCH   1   2
HETATM    2  C2  UNL     1     -17.743  -6.756 -11.406  1.00  0.00     0.295 C 
BRANCH   2   3
HETATM    3  C1  UNL     1     -17.246  -5.936 -10.270  1.00  0.00     0.198 C 
HETATM    4  O1  UNL     1     -16.939  -4.711 -10.400  1.00  0.00    -0.646 OA
HETATM    5  O2  UNL     1     -17.088  -6.462  -8.997  1.00  0.00    -0.646 OA
ENDBRANCH   2   3
ENDBRANCH   1   2
BRANCH   1   6
HETATM    6  P1  UNL     1     -17.200  -5.905 -13.642  1.00  0.00     0.422 P 
HETATM    7  O4  UNL     1     -17.063  -7.416 -13.545  1.00  0.00    -0.617 OA
HETATM    8  O5  UNL     1     -17.745  -5.918 -15.166  1.00  0.00    -0.617 OA
HETATM    9  O6  UNL     1     -15.567  -5.686 -13.375  1.00  0.00    -0.617 OA
ENDBRANCH   1   6
TORSDOF 3
ENDMDL
