MODEL 1
REMARK VINA RESULT: -5.504950268      0.000      0.000
REMARK  3 active torsions:
REMARK  status: ('A' for Active; 'I' for Inactive)
REMARK    1  A    between atoms: C1_2  and  C2_4 
REMARK    2  A    between atoms: C2_4  and  O3_5 
REMARK    3  A    between atoms: O3_5  and  P1_6 
ROOT
HETATM    1  O3  UNL     1     -16.947  -5.368 -14.054  1.00  0.00    -0.272 OA
ENDROOT
BRANCH   1   2
HETATM    2  C2  UNL     1     -17.178  -5.608 -15.372  1.00  0.00     0.295 C 
BRANCH   2   3
HETATM    3  C1  UNL     1     -17.848  -4.405 -15.934  1.00  0.00     0.198 C 
HETATM    4  O1  UNL     1     -19.002  -4.454 -16.460  1.00  0.00    -0.646 OA
HETATM    5  O2  UNL     1     -17.249  -3.155 -15.917  1.00  0.00    -0.646 OA
ENDBRANCH   2   3
ENDBRANCH   1   2
BRANCH   1   6
HETATM    6  P1  UNL     1     -17.968  -6.346 -13.170  1.00  0.00     0.422 P 
HETATM    7  O4  UNL     1     -17.604  -5.597 -11.898  1.00  0.00    -0.617 OA
HETATM    8  O5  UNL     1     -19.553  -6.038 -13.056  1.00  0.00    -0.617 OA
HETATM    9  O6  UNL     1     -17.384  -7.784 -12.556  1.00  0.00    -0.617 OA
ENDBRANCH   1   6
TORSDOF 3
ENDMDL
