MODEL 2
REMARK VINA RESULT: -9.022826582      2.614      4.100
REMARK  9 active torsions:
REMARK  status: ('A' for Active; 'I' for Inactive)
REMARK    1  A    between atoms: N1_1  and  C1_4 
REMARK    2  A    between atoms: N2_7  and  C4_8 
REMARK    3  A    between atoms: C5_10  and  C6_11 
REMARK    4  A    between atoms: C6_11  and  N3_12 
REMARK       I    between atoms: N3_12  and  C7_14 
REMARK    5  A    between atoms: C7_14  and  C8_16 
REMARK    6  A    between atoms: C8_16  and  C9_17 
REMARK    7  A    between atoms: C9_17  and  C10_18 
REMARK    8  A    between atoms: C17_29  and  O3_30 
REMARK    9  A    between atoms: C18_32  and  O4_33 
ROOT
HETATM    1  C4  UNL     1      17.072  -8.865  26.338  1.00  0.00     0.263 C 
HETATM    2  O1  UNL     1      17.269  -8.447  25.039  1.00  0.00    -0.354 OA
HETATM    3  C5  UNL     1      17.366  -7.075  25.084  1.00  0.00     0.173 C 
HETATM    4  C17 UNL     1      17.914  -6.685  26.419  1.00  0.00     0.181 C 
HETATM    5  C18 UNL     1      18.118  -8.043  27.087  1.00  0.00     0.198 C 
ENDROOT
BRANCH   3   6
HETATM    6  C6  UNL     1      16.027  -6.479  24.787  1.00  0.00     0.157 C 
BRANCH   6   7
HETATM    7  N3  UNL     1      16.018  -5.734  23.544  1.00  0.00    -0.359 N 
HETATM    8  C7  UNL     1      15.618  -6.388  22.352  1.00  0.00     0.217 C 
HETATM    9  O2  UNL     1      15.282  -7.607  22.427  1.00  0.00    -0.274 OA
ATOM     10  H3  UNL     1      16.296  -4.753  23.527  1.00  0.00     0.162 HD
BRANCH   8  11
HETATM   11  C8  UNL     1      15.596  -5.647  21.041  1.00  0.00     0.110 C 
BRANCH  11  12
HETATM   12  C9  UNL     1      14.164  -5.643  20.518  1.00  0.00     0.085 C 
BRANCH  12  13
HETATM   13  C10 UNL     1      14.025  -6.589  19.381  1.00  0.00     0.082 A 
HETATM   14  N4  UNL     1      14.716  -7.751  19.182  1.00  0.00    -0.344 N 
HETATM   15  C11 UNL     1      14.262  -8.279  18.023  1.00  0.00     0.060 A 
ATOM     16  H4  UNL     1      15.435  -8.143  19.789  1.00  0.00     0.167 HD
HETATM   17  C12 UNL     1      14.570  -9.426  17.307  1.00  0.00     0.032 A 
HETATM   18  C16 UNL     1      13.292  -7.460  17.494  1.00  0.00     0.060 A 
HETATM   19  C13 UNL     1      13.963  -9.764  16.127  1.00  0.00     0.002 A 
HETATM   20  C14 UNL     1      12.999  -8.928  15.622  1.00  0.00     0.002 A 
HETATM   21  C15 UNL     1      12.657  -7.768  16.307  1.00  0.00     0.032 A 
HETATM   22  N5  UNL     1      13.177  -6.436  18.358  1.00  0.00    -0.344 N 
ATOM     23  H5  UNL     1      12.534  -5.653  18.248  1.00  0.00     0.167 HD
ENDBRANCH  12  13
ENDBRANCH  11  12
ENDBRANCH   8  11
ENDBRANCH   6   7
ENDBRANCH   3   6
BRANCH   4  24
HETATM   24  O3  UNL     1      16.983  -5.945  27.151  1.00  0.00    -0.390 OA
ATOM     25  H3  UNL     1      17.267  -5.046  27.259  1.00  0.00     0.210 HD
ENDBRANCH   4  24
BRANCH   1  26
HETATM   26  N2  UNL     1      17.254 -10.269  26.527  1.00  0.00    -0.280 N 
HETATM   27  C3  UNL     1      18.481 -10.780  26.750  1.00  0.00     0.102 A 
HETATM   28  C2  UNL     1      18.703 -12.126  26.937  1.00  0.00     0.065 A 
HETATM   29  C1  UNL     1      17.623 -12.986  26.894  1.00  0.00     0.103 A 
HETATM   30  N6  UNL     1      16.411 -12.470  26.672  1.00  0.00    -0.295 N 
HETATM   31  C19 UNL     1      16.228 -11.129  26.491  1.00  0.00     0.330 A 
ATOM     32  H6  UNL     1      15.603 -13.092  26.636  1.00  0.00     0.172 HD
HETATM   33  O5  UNL     1      15.048 -10.735  26.287  1.00  0.00    -0.246 OA
BRANCH  29  34
HETATM   34  N1  UNL     1      17.790 -14.271  27.067  1.00  0.00    -0.385 N 
ATOM     35  H12 UNL     1      18.574 -14.763  26.640  1.00  0.00     0.157 HD
ATOM     36  H11 UNL     1      17.134 -14.807  27.636  1.00  0.00     0.157 HD
ENDBRANCH  29  34
ENDBRANCH   1  26
BRANCH   5  37
HETATM   37  O4  UNL     1      17.827  -7.976  28.447  1.00  0.00    -0.388 OA
ATOM     38  H4  UNL     1      17.517  -7.111  28.688  1.00  0.00     0.210 HD
ENDBRANCH   5  37
TORSDOF 9
ENDMDL
