MODEL 1
REMARK VINA RESULT: -9.374666264      0.000      0.000
REMARK  9 active torsions:
REMARK  status: ('A' for Active; 'I' for Inactive)
REMARK    1  A    between atoms: N1_1  and  C1_4 
REMARK    2  A    between atoms: N2_7  and  C4_8 
REMARK    3  A    between atoms: C5_10  and  C6_11 
REMARK    4  A    between atoms: C6_11  and  N3_12 
REMARK       I    between atoms: N3_12  and  C7_14 
REMARK    5  A    between atoms: C7_14  and  C8_16 
REMARK    6  A    between atoms: C8_16  and  C9_17 
REMARK    7  A    between atoms: C9_17  and  C10_18 
REMARK    8  A    between atoms: C17_29  and  O3_30 
REMARK    9  A    between atoms: C18_32  and  O4_33 
ROOT
HETATM    1  C4  UNL     1      14.180  -8.508  25.258  1.00  0.00     0.263 C 
HETATM    2  O1  UNL     1      13.560  -7.397  24.725  1.00  0.00    -0.354 OA
HETATM    3  C5  UNL     1      12.238  -7.738  24.551  1.00  0.00     0.173 C 
HETATM    4  C17 UNL     1      11.877  -8.765  25.575  1.00  0.00     0.181 C 
HETATM    5  C18 UNL     1      13.188  -8.921  26.343  1.00  0.00     0.198 C 
ENDROOT
BRANCH   3   6
HETATM    6  C6  UNL     1      12.031  -8.197  23.142  1.00  0.00     0.157 C 
BRANCH   6   7
HETATM    7  N3  UNL     1      12.176  -7.120  22.185  1.00  0.00    -0.359 N 
HETATM    8  C7  UNL     1      11.122  -6.860  21.273  1.00  0.00     0.217 C 
HETATM    9  O2  UNL     1      10.088  -7.590  21.337  1.00  0.00    -0.274 OA
ATOM     10  H3  UNL     1      13.026  -6.556  22.166  1.00  0.00     0.162 HD
BRANCH   8  11
HETATM   11  C8  UNL     1      11.237  -5.749  20.263  1.00  0.00     0.110 C 
BRANCH  11  12
HETATM   12  C9  UNL     1      12.695  -5.646  19.830  1.00  0.00     0.085 C 
BRANCH  12  13
HETATM   13  C10 UNL     1      13.013  -6.694  18.827  1.00  0.00     0.082 A 
HETATM   14  N4  UNL     1      12.438  -6.869  17.601  1.00  0.00    -0.344 N 
HETATM   15  C11 UNL     1      13.038  -7.942  17.039  1.00  0.00     0.060 A 
ATOM     16  H4  UNL     1      11.699  -6.300  17.189  1.00  0.00     0.167 HD
HETATM   17  C12 UNL     1      12.890  -8.597  15.826  1.00  0.00     0.032 A 
HETATM   18  C16 UNL     1      13.985  -8.442  17.901  1.00  0.00     0.060 A 
HETATM   19  C13 UNL     1      13.628  -9.692  15.465  1.00  0.00     0.002 A 
HETATM   20  C14 UNL     1      14.567 -10.170  16.345  1.00  0.00     0.002 A 
HETATM   21  C15 UNL     1      14.750  -9.544  17.572  1.00  0.00     0.032 A 
HETATM   22  N5  UNL     1      13.937  -7.648  18.985  1.00  0.00    -0.344 N 
ATOM     23  H5  UNL     1      14.524  -7.757  19.812  1.00  0.00     0.167 HD
ENDBRANCH  12  13
ENDBRANCH  11  12
ENDBRANCH   8  11
ENDBRANCH   6   7
ENDBRANCH   3   6
BRANCH   4  24
HETATM   24  O3  UNL     1      11.545  -9.982  24.976  1.00  0.00    -0.390 OA
ATOM     25  H3  UNL     1      11.202 -10.597  25.614  1.00  0.00     0.210 HD
ENDBRANCH   4  24
BRANCH   1  26
HETATM   26  N2  UNL     1      15.480  -8.244  25.789  1.00  0.00    -0.280 N 
HETATM   27  C3  UNL     1      15.778  -7.038  26.311  1.00  0.00     0.102 A 
HETATM   28  C2  UNL     1      17.016  -6.740  26.833  1.00  0.00     0.065 A 
HETATM   29  C1  UNL     1      17.991  -7.717  26.821  1.00  0.00     0.103 A 
HETATM   30  N6  UNL     1      17.686  -8.910  26.301  1.00  0.00    -0.295 N 
HETATM   31  C19 UNL     1      16.447  -9.170  25.792  1.00  0.00     0.330 A 
ATOM     32  H6  UNL     1      18.396  -9.643  26.283  1.00  0.00     0.172 HD
HETATM   33  O5  UNL     1      16.251 -10.324  25.323  1.00  0.00    -0.246 OA
BRANCH  29  34
HETATM   34  N1  UNL     1      19.181  -7.476  27.307  1.00  0.00    -0.385 N 
ATOM     35  H12 UNL     1      19.303  -7.156  28.268  1.00  0.00     0.157 HD
ATOM     36  H11 UNL     1      20.012  -7.606  26.731  1.00  0.00     0.157 HD
ENDBRANCH  29  34
ENDBRANCH   1  26
BRANCH   5  37
HETATM   37  O4  UNL     1      13.385 -10.245  26.727  1.00  0.00    -0.388 OA
ATOM     38  H4  UNL     1      12.647 -10.568  27.231  1.00  0.00     0.210 HD
ENDBRANCH   5  37
TORSDOF 9
ENDMDL
