MODEL 3
REMARK VINA RESULT: -8.869910309      3.189      5.924
REMARK  9 active torsions:
REMARK  status: ('A' for Active; 'I' for Inactive)
REMARK    1  A    between atoms: N1_1  and  C1_4 
REMARK    2  A    between atoms: N2_7  and  C4_8 
REMARK    3  A    between atoms: C5_10  and  C6_11 
REMARK    4  A    between atoms: C6_11  and  N3_12 
REMARK       I    between atoms: N3_12  and  C7_14 
REMARK    5  A    between atoms: C7_14  and  C8_16 
REMARK    6  A    between atoms: C8_16  and  C9_17 
REMARK    7  A    between atoms: C9_17  and  C10_18 
REMARK    8  A    between atoms: C17_29  and  O3_30 
REMARK    9  A    between atoms: C18_32  and  O4_33 
ROOT
HETATM    1  C4  UNL     1      15.780  -7.225  22.367  1.00  0.00     0.263 C 
HETATM    2  O1  UNL     1      15.860  -8.602  22.408  1.00  0.00    -0.354 OA
HETATM    3  C5  UNL     1      16.752  -8.908  23.410  1.00  0.00     0.173 C 
HETATM    4  C17 UNL     1      16.707  -7.817  24.431  1.00  0.00     0.181 C 
HETATM    5  C18 UNL     1      15.648  -6.883  23.849  1.00  0.00     0.198 C 
ENDROOT
BRANCH   3   6
HETATM    6  C6  UNL     1      18.108  -9.116  22.814  1.00  0.00     0.157 C 
BRANCH   6   7
HETATM    7  N3  UNL     1      18.062  -9.908  21.602  1.00  0.00    -0.359 N 
HETATM    8  C7  UNL     1      18.392  -9.297  20.366  1.00  0.00     0.217 C 
HETATM    9  O2  UNL     1      18.715  -8.072  20.376  1.00  0.00    -0.274 OA
ATOM     10  H3  UNL     1      17.796 -10.891  21.637  1.00  0.00     0.162 HD
BRANCH   8  11
HETATM   11  C8  UNL     1      18.356 -10.088  19.085  1.00  0.00     0.110 C 
BRANCH  11  12
HETATM   12  C9  UNL     1      17.084 -10.928  19.078  1.00  0.00     0.085 C 
BRANCH  12  13
HETATM   13  C10 UNL     1      16.007 -10.232  18.327  1.00  0.00     0.082 A 
HETATM   14  N4  UNL     1      15.408  -9.047  18.647  1.00  0.00    -0.344 N 
HETATM   15  C11 UNL     1      14.490  -8.803  17.685  1.00  0.00     0.060 A 
ATOM     16  H4  UNL     1      15.613  -8.459  19.455  1.00  0.00     0.167 HD
HETATM   17  C12 UNL     1      13.585  -7.776  17.462  1.00  0.00     0.032 A 
HETATM   18  C16 UNL     1      14.508  -9.824  16.764  1.00  0.00     0.060 A 
HETATM   19  C13 UNL     1      12.733  -7.742  16.390  1.00  0.00     0.002 A 
HETATM   20  C14 UNL     1      12.773  -8.774  15.487  1.00  0.00     0.002 A 
HETATM   21  C15 UNL     1      13.665  -9.824  15.671  1.00  0.00     0.032 A 
HETATM   22  N5  UNL     1      15.452 -10.678  17.196  1.00  0.00    -0.344 N 
ATOM     23  H5  UNL     1      15.709 -11.546  16.725  1.00  0.00     0.167 HD
ENDBRANCH  12  13
ENDBRANCH  11  12
ENDBRANCH   8  11
ENDBRANCH   6   7
ENDBRANCH   3   6
BRANCH   4  24
HETATM   24  O3  UNL     1      17.927  -7.144  24.506  1.00  0.00    -0.390 OA
ATOM     25  H3  UNL     1      17.939  -6.535  25.235  1.00  0.00     0.210 HD
ENDBRANCH   4  24
BRANCH   1  26
HETATM   26  N2  UNL     1      14.679  -6.734  21.600  1.00  0.00    -0.280 N 
HETATM   27  C3  UNL     1      13.557  -7.468  21.458  1.00  0.00     0.102 A 
HETATM   28  C2  UNL     1      12.473  -7.035  20.730  1.00  0.00     0.065 A 
HETATM   29  C1  UNL     1      12.538  -5.797  20.121  1.00  0.00     0.103 A 
HETATM   30  N6  UNL     1      13.655  -5.078  20.267  1.00  0.00    -0.295 N 
HETATM   31  C19 UNL     1      14.711  -5.540  20.997  1.00  0.00     0.330 A 
ATOM     32  H6  UNL     1      13.719  -4.162  19.822  1.00  0.00     0.172 HD
HETATM   33  O5  UNL     1      15.722  -4.790  21.079  1.00  0.00    -0.246 OA
BRANCH  29  34
HETATM   34  N1  UNL     1      11.530  -5.347  19.420  1.00  0.00    -0.385 N 
ATOM     35  H12 UNL     1      11.025  -5.954  18.774  1.00  0.00     0.157 HD
ATOM     36  H11 UNL     1      11.230  -4.376  19.508  1.00  0.00     0.157 HD
ENDBRANCH  29  34
ENDBRANCH   1  26
BRANCH   5  37
HETATM   37  O4  UNL     1      15.977  -5.551  24.088  1.00  0.00    -0.388 OA
ATOM     38  H4  UNL     1      15.615  -4.983  23.417  1.00  0.00     0.210 HD
ENDBRANCH   5  37
TORSDOF 9
ENDMDL
