MODEL 1
REMARK VINA RESULT: -9.180100676      0.000      0.000
REMARK  8 active torsions:
REMARK  status: ('A' for Active; 'I' for Inactive)
REMARK    1  A    between atoms: N1_1  and  C1_4 
REMARK    2  A    between atoms: N2_7  and  C4_8 
REMARK    3  A    between atoms: C5_10  and  C6_11 
REMARK    4  A    between atoms: C6_11  and  N3_12 
REMARK       I    between atoms: N3_12  and  C7_14 
REMARK    5  A    between atoms: C7_14  and  C8_16 
REMARK    6  A    between atoms: C8_16  and  C9_17 
REMARK    7  A    between atoms: C16_28  and  O3_29 
REMARK    8  A    between atoms: C17_31  and  O4_32 
ROOT
HETATM    1  C4  UNL     1      13.072  -8.574  25.315  1.00  0.00     0.263 C 
HETATM    2  O1  UNL     1      12.736  -8.748  23.961  1.00  0.00    -0.354 OA
HETATM    3  C5  UNL     1      11.406  -8.375  23.869  1.00  0.00     0.173 C 
HETATM    4  C16 UNL     1      11.177  -7.271  24.884  1.00  0.00     0.181 C 
HETATM    5  C17 UNL     1      12.548  -7.148  25.526  1.00  0.00     0.198 C 
ENDROOT
BRANCH   3   6
HETATM    6  C6  UNL     1      11.075  -7.783  22.516  1.00  0.00     0.157 C 
BRANCH   6   7
HETATM    7  N3  UNL     1      12.216  -7.372  21.758  1.00  0.00    -0.358 N 
HETATM    8  C7  UNL     1      12.110  -6.611  20.570  1.00  0.00     0.224 C 
HETATM    9  O2  UNL     1      10.973  -6.274  20.153  1.00  0.00    -0.273 OA
ATOM     10  H3  UNL     1      13.144  -7.638  22.088  1.00  0.00     0.162 HD
BRANCH   8  11
HETATM   11  C8  UNL     1      13.313  -6.191  19.788  1.00  0.00     0.179 C 
BRANCH  11  12
HETATM   12  C9  UNL     1      13.579  -7.187  18.727  1.00  0.00     0.091 A 
HETATM   13  N4  UNL     1      14.617  -8.047  18.637  1.00  0.00    -0.344 N 
HETATM   14  C10 UNL     1      14.456  -8.763  17.514  1.00  0.00     0.060 A 
ATOM     15  H4  UNL     1      15.384  -8.136  19.302  1.00  0.00     0.167 HD
HETATM   16  C11 UNL     1      15.236  -9.763  16.975  1.00  0.00     0.032 A 
HETATM   17  C15 UNL     1      13.302  -8.355  16.877  1.00  0.00     0.060 A 
HETATM   18  C12 UNL     1      14.883 -10.370  15.799  1.00  0.00     0.002 A 
HETATM   19  C13 UNL     1      13.719  -9.973  15.137  1.00  0.00     0.002 A 
HETATM   20  C14 UNL     1      12.952  -8.971  15.694  1.00  0.00     0.032 A 
HETATM   21  N5  UNL     1      12.790  -7.389  17.648  1.00  0.00    -0.344 N 
ATOM     22  H5  UNL     1      11.930  -6.878  17.450  1.00  0.00     0.167 HD
ENDBRANCH  11  12
ENDBRANCH   8  11
ENDBRANCH   6   7
ENDBRANCH   3   6
BRANCH   4  23
HETATM   23  O3  UNL     1      10.282  -7.766  25.841  1.00  0.00    -0.390 OA
ATOM     24  H3  UNL     1       9.568  -7.143  25.907  1.00  0.00     0.210 HD
ENDBRANCH   4  23
BRANCH   1  25
HETATM   25  N2  UNL     1      14.475  -8.681  25.545  1.00  0.00    -0.280 N 
HETATM   26  C3  UNL     1      15.400  -8.311  24.643  1.00  0.00     0.102 A 
HETATM   27  C2  UNL     1      16.755  -8.420  24.878  1.00  0.00     0.065 A 
HETATM   28  C1  UNL     1      17.200  -8.927  26.081  1.00  0.00     0.103 A 
HETATM   29  N6  UNL     1      16.262  -9.294  26.975  1.00  0.00    -0.295 N 
HETATM   30  C18 UNL     1      14.944  -9.177  26.722  1.00  0.00     0.330 A 
ATOM     31  H6  UNL     1      16.559  -9.673  27.874  1.00  0.00     0.172 HD
HETATM   32  O5  UNL     1      14.102  -9.528  27.575  1.00  0.00    -0.246 OA
BRANCH  28  33
HETATM   33  N1  UNL     1      18.453  -9.060  26.377  1.00  0.00    -0.385 N 
ATOM     34  H12 UNL     1      19.045  -8.233  26.451  1.00  0.00     0.157 HD
ATOM     35  H11 UNL     1      18.897  -9.964  26.545  1.00  0.00     0.157 HD
ENDBRANCH  28  33
ENDBRANCH   1  25
BRANCH   5  36
HETATM   36  O4  UNL     1      12.468  -6.826  26.867  1.00  0.00    -0.388 OA
ATOM     37  H4  UNL     1      12.430  -5.886  27.002  1.00  0.00     0.210 HD
ENDBRANCH   5  36
TORSDOF 8
ENDMDL
