MODEL 2
REMARK VINA RESULT: -9.158152911      0.073      1.056
REMARK  8 active torsions:
REMARK  status: ('A' for Active; 'I' for Inactive)
REMARK    1  A    between atoms: N1_1  and  C1_4 
REMARK    2  A    between atoms: N2_7  and  C4_8 
REMARK    3  A    between atoms: C5_10  and  C6_11 
REMARK    4  A    between atoms: C6_11  and  N3_12 
REMARK       I    between atoms: N3_12  and  C7_14 
REMARK    5  A    between atoms: C7_14  and  C8_16 
REMARK    6  A    between atoms: C8_16  and  C9_17 
REMARK    7  A    between atoms: C16_28  and  O3_29 
REMARK    8  A    between atoms: C17_31  and  O4_32 
ROOT
HETATM    1  C4  UNL     1      13.040  -8.574  25.297  1.00  0.00     0.263 C 
HETATM    2  O1  UNL     1      12.691  -8.733  23.945  1.00  0.00    -0.354 OA
HETATM    3  C5  UNL     1      11.362  -8.353  23.868  1.00  0.00     0.173 C 
HETATM    4  C16 UNL     1      11.147  -7.259  24.897  1.00  0.00     0.181 C 
HETATM    5  C17 UNL     1      12.524  -7.148  25.527  1.00  0.00     0.198 C 
ENDROOT
BRANCH   3   6
HETATM    6  C6  UNL     1      11.021  -7.746  22.525  1.00  0.00     0.157 C 
BRANCH   6   7
HETATM    7  N3  UNL     1      12.157  -7.347  21.754  1.00  0.00    -0.358 N 
HETATM    8  C7  UNL     1      12.047  -6.561  20.582  1.00  0.00     0.224 C 
HETATM    9  O2  UNL     1      10.912  -6.191  20.193  1.00  0.00    -0.273 OA
ATOM     10  H3  UNL     1      13.084  -7.641  22.061  1.00  0.00     0.162 HD
BRANCH   8  11
HETATM   11  C8  UNL     1      13.246  -6.154  19.786  1.00  0.00     0.179 C 
BRANCH  11  12
HETATM   12  C9  UNL     1      13.468  -7.133  18.699  1.00  0.00     0.091 A 
HETATM   13  N4  UNL     1      12.709  -7.340  17.601  1.00  0.00    -0.344 N 
HETATM   14  C10 UNL     1      13.281  -8.321  16.889  1.00  0.00     0.060 A 
ATOM     15  H4  UNL     1      11.854  -6.840  17.357  1.00  0.00     0.167 HD
HETATM   16  C11 UNL     1      12.900  -8.898  15.697  1.00  0.00     0.032 A 
HETATM   17  C15 UNL     1      14.420  -8.749  17.541  1.00  0.00     0.060 A 
HETATM   18  C12 UNL     1      13.641  -9.904  15.135  1.00  0.00     0.002 A 
HETATM   19  C13 UNL     1      14.798 -10.352  15.777  1.00  0.00     0.002 A 
HETATM   20  C14 UNL     1      15.162  -9.762  16.969  1.00  0.00     0.032 A 
HETATM   21  N5  UNL     1      14.504  -8.000  18.645  1.00  0.00    -0.344 N 
ATOM     22  H5  UNL     1      15.242  -8.071  19.345  1.00  0.00     0.167 HD
ENDBRANCH  11  12
ENDBRANCH   8  11
ENDBRANCH   6   7
ENDBRANCH   3   6
BRANCH   4  23
HETATM   23  O3  UNL     1      10.258  -7.760  25.856  1.00  0.00    -0.390 OA
ATOM     24  H3  UNL     1      10.070  -7.053  26.462  1.00  0.00     0.210 HD
ENDBRANCH   4  23
BRANCH   1  25
HETATM   25  N2  UNL     1      14.444  -8.689  25.513  1.00  0.00    -0.280 N 
HETATM   26  C3  UNL     1      15.363  -8.308  24.610  1.00  0.00     0.102 A 
HETATM   27  C2  UNL     1      16.720  -8.425  24.831  1.00  0.00     0.065 A 
HETATM   28  C1  UNL     1      17.174  -8.952  26.021  1.00  0.00     0.103 A 
HETATM   29  N6  UNL     1      16.242  -9.330  26.918  1.00  0.00    -0.295 N 
HETATM   30  C18 UNL     1      14.922  -9.206  26.678  1.00  0.00     0.330 A 
ATOM     31  H6  UNL     1      16.545  -9.724  27.808  1.00  0.00     0.172 HD
HETATM   32  O5  UNL     1      14.086  -9.567  27.533  1.00  0.00    -0.246 OA
BRANCH  28  33
HETATM   33  N1  UNL     1      18.429  -9.094  26.304  1.00  0.00    -0.385 N 
ATOM     34  H12 UNL     1      19.086  -9.347  25.567  1.00  0.00     0.157 HD
ATOM     35  H11 UNL     1      18.810  -8.966  27.242  1.00  0.00     0.157 HD
ENDBRANCH  28  33
ENDBRANCH   1  25
BRANCH   5  36
HETATM   36  O4  UNL     1      12.457  -6.839  26.872  1.00  0.00    -0.388 OA
ATOM     37  H4  UNL     1      12.121  -5.962  27.016  1.00  0.00     0.210 HD
ENDBRANCH   5  36
TORSDOF 8
ENDMDL
