MODEL 3
REMARK VINA RESULT: -9.091935637      1.759      2.667
REMARK  8 active torsions:
REMARK  status: ('A' for Active; 'I' for Inactive)
REMARK    1  A    between atoms: N1_1  and  C1_4 
REMARK    2  A    between atoms: N2_7  and  C4_8 
REMARK    3  A    between atoms: C5_10  and  C6_11 
REMARK    4  A    between atoms: C6_11  and  N3_12 
REMARK       I    between atoms: N3_12  and  C7_14 
REMARK    5  A    between atoms: C7_14  and  C8_16 
REMARK    6  A    between atoms: C8_16  and  C9_17 
REMARK    7  A    between atoms: C16_28  and  O3_29 
REMARK    8  A    between atoms: C17_31  and  O4_32 
ROOT
HETATM    1  C4  UNL     1      11.664  -8.027  23.328  1.00  0.00     0.263 C 
HETATM    2  O1  UNL     1      12.153  -7.514  22.114  1.00  0.00    -0.354 OA
HETATM    3  C5  UNL     1      11.038  -7.025  21.454  1.00  0.00     0.173 C 
HETATM    4  C16 UNL     1      10.078  -6.514  22.511  1.00  0.00     0.181 C 
HETATM    5  C17 UNL     1      10.828  -6.828  23.794  1.00  0.00     0.198 C 
ENDROOT
BRANCH   3   6
HETATM    6  C6  UNL     1      11.373  -5.840  20.575  1.00  0.00     0.157 C 
BRANCH   6   7
HETATM    7  N3  UNL     1      11.337  -6.118  19.173  1.00  0.00    -0.358 N 
HETATM    8  C7  UNL     1      12.499  -6.127  18.365  1.00  0.00     0.224 C 
HETATM    9  O2  UNL     1      13.615  -5.885  18.889  1.00  0.00    -0.273 OA
ATOM     10  H3  UNL     1      10.436  -6.318  18.737  1.00  0.00     0.162 HD
BRANCH   8  11
HETATM   11  C8  UNL     1      12.442  -6.418  16.900  1.00  0.00     0.179 C 
BRANCH  11  12
HETATM   12  C9  UNL     1      13.067  -7.734  16.638  1.00  0.00     0.091 A 
HETATM   13  N4  UNL     1      12.835  -8.572  15.604  1.00  0.00    -0.344 N 
HETATM   14  C10 UNL     1      13.619  -9.647  15.766  1.00  0.00     0.060 A 
ATOM     15  H4  UNL     1      12.181  -8.415  14.837  1.00  0.00     0.167 HD
HETATM   16  C11 UNL     1      13.755 -10.778  14.990  1.00  0.00     0.032 A 
HETATM   17  C15 UNL     1      14.361  -9.496  16.921  1.00  0.00     0.060 A 
HETATM   18  C12 UNL     1      14.628 -11.772  15.346  1.00  0.00     0.002 A 
HETATM   19  C13 UNL     1      15.390 -11.639  16.510  1.00  0.00     0.002 A 
HETATM   20  C14 UNL     1      15.239 -10.500  17.272  1.00  0.00     0.032 A 
HETATM   21  N5  UNL     1      13.998  -8.313  17.428  1.00  0.00    -0.344 N 
ATOM     22  H5  UNL     1      14.370  -7.907  18.286  1.00  0.00     0.167 HD
ENDBRANCH  11  12
ENDBRANCH   8  11
ENDBRANCH   6   7
ENDBRANCH   3   6
BRANCH   4  23
HETATM   23  O3  UNL     1       8.933  -7.320  22.457  1.00  0.00    -0.390 OA
ATOM     24  H3  UNL     1       8.609  -7.288  21.565  1.00  0.00     0.210 HD
ENDBRANCH   4  23
BRANCH   1  25
HETATM   25  N2  UNL     1      12.709  -8.352  24.241  1.00  0.00    -0.280 N 
HETATM   26  C3  UNL     1      13.913  -7.755  24.227  1.00  0.00     0.102 A 
HETATM   27  C2  UNL     1      14.917  -8.079  25.116  1.00  0.00     0.065 A 
HETATM   28  C1  UNL     1      14.697  -9.053  26.068  1.00  0.00     0.103 A 
HETATM   29  N6  UNL     1      13.486  -9.643  26.070  1.00  0.00    -0.295 N 
HETATM   30  C18 UNL     1      12.522  -9.308  25.191  1.00  0.00     0.330 A 
ATOM     31  H6  UNL     1      13.292 -10.367  26.762  1.00  0.00     0.172 HD
HETATM   32  O5  UNL     1      11.410  -9.877  25.223  1.00  0.00    -0.246 OA
BRANCH  28  33
HETATM   33  N1  UNL     1      15.586  -9.413  26.936  1.00  0.00    -0.385 N 
ATOM     34  H12 UNL     1      16.478  -8.920  26.979  1.00  0.00     0.157 HD
ATOM     35  H11 UNL     1      15.447 -10.178  27.597  1.00  0.00     0.157 HD
ENDBRANCH  28  33
ENDBRANCH   1  25
BRANCH   5  36
HETATM   36  O4  UNL     1       9.975  -7.169  24.825  1.00  0.00    -0.388 OA
ATOM     37  H4  UNL     1       9.133  -7.469  24.501  1.00  0.00     0.210 HD
ENDBRANCH   5  36
TORSDOF 8
ENDMDL
