MODEL 8
REMARK VINA RESULT: -5.651190077      2.307      4.471
REMARK  8 active torsions:
REMARK  status: ('A' for Active; 'I' for Inactive)
REMARK    1  A    between atoms: C2_2  and  C3_3 
REMARK    2  A    between atoms: C3_3  and  C4_4 
REMARK    3  A    between atoms: C4_4  and  N1_5 
REMARK    4  A    between atoms: C6_7  and  O1_8 
REMARK    5  A    between atoms: C7_10  and  O2_11 
REMARK    6  A    between atoms: C8_13  and  O3_14 
REMARK    7  A    between atoms: C9_16  and  C10_17 
REMARK    8  A    between atoms: C10_17  and  O4_18 
ROOT
HETATM    1  N1  UNL     1      35.122  31.737  -1.401  1.00  0.00     0.100 N 
HETATM    2  C5  UNL     1      36.240  31.911  -2.303  1.00  0.00     0.307 C 
HETATM    3  C6  UNL     1      36.042  32.957  -3.345  1.00  0.00     0.177 C 
HETATM    4  C7  UNL     1      35.435  34.229  -2.796  1.00  0.00     0.179 C 
HETATM    5  C8  UNL     1      34.267  33.890  -1.907  1.00  0.00     0.184 C 
HETATM    6  C9  UNL     1      34.813  32.989  -0.789  1.00  0.00     0.277 C 
ENDROOT
BRANCH   1   7
HETATM    7  C4  UNL     1      35.441  30.672  -0.494  1.00  0.00     0.273 C 
BRANCH   7   8
HETATM    8  C3  UNL     1      36.883  30.873  -0.069  1.00  0.00     0.030 C 
BRANCH   8   9
HETATM    9  C2  UNL     1      37.104  30.524   1.377  1.00  0.00    -0.003 C 
HETATM   10  C1  UNL     1      36.737  31.622   2.324  1.00  0.00     0.005 C 
ENDBRANCH   8   9
ENDBRANCH   7   8
ENDBRANCH   1   7
BRANCH   6  11
HETATM   11  C10 UNL     1      33.716  32.884   0.246  1.00  0.00     0.202 C 
BRANCH  11  12
HETATM   12  O4  UNL     1      33.967  33.710   1.342  1.00  0.00    -0.399 OA
ATOM     13  H4  UNL     1      34.869  34.009   1.353  1.00  0.00     0.209 HD
ENDBRANCH  11  12
ENDBRANCH   6  11
BRANCH   3  14
HETATM   14  O1  UNL     1      37.295  33.304  -3.865  1.00  0.00    -0.391 OA
ATOM     15  H1  UNL     1      37.712  33.908  -3.262  1.00  0.00     0.210 HD
ENDBRANCH   3  14
BRANCH   5  16
HETATM   16  O3  UNL     1      33.675  35.029  -1.402  1.00  0.00    -0.391 OA
ATOM     17  H3  UNL     1      32.778  34.863  -1.138  1.00  0.00     0.210 HD
ENDBRANCH   5  16
BRANCH   4  18
HETATM   18  O2  UNL     1      34.988  34.999  -3.871  1.00  0.00    -0.390 OA
ATOM     19  H2  UNL     1      35.679  35.606  -4.108  1.00  0.00     0.210 HD
ENDBRANCH   4  18
TORSDOF 8
ENDMDL
