MODEL 15
REMARK VINA RESULT: -5.308252283      3.004      5.053
REMARK  8 active torsions:
REMARK  status: ('A' for Active; 'I' for Inactive)
REMARK    1  A    between atoms: C2_2  and  C3_3 
REMARK    2  A    between atoms: C3_3  and  C4_4 
REMARK    3  A    between atoms: C4_4  and  N1_5 
REMARK    4  A    between atoms: C6_7  and  O1_8 
REMARK    5  A    between atoms: C7_10  and  O2_11 
REMARK    6  A    between atoms: C8_13  and  O3_14 
REMARK    7  A    between atoms: C9_16  and  C10_17 
REMARK    8  A    between atoms: C10_17  and  O4_18 
ROOT
HETATM    1  N1  UNL     1      34.961  32.158  -1.701  1.00  0.00     0.100 N 
HETATM    2  C5  UNL     1      35.636  30.962  -2.158  1.00  0.00     0.307 C 
HETATM    3  C6  UNL     1      34.916  30.209  -3.223  1.00  0.00     0.177 C 
HETATM    4  C7  UNL     1      34.359  31.106  -4.307  1.00  0.00     0.179 C 
HETATM    5  C8  UNL     1      33.659  32.283  -3.679  1.00  0.00     0.184 C 
HETATM    6  C9  UNL     1      34.704  33.008  -2.818  1.00  0.00     0.277 C 
ENDROOT
BRANCH   1   7
HETATM    7  C4  UNL     1      35.747  32.741  -0.652  1.00  0.00     0.273 C 
BRANCH   7   8
HETATM    8  C3  UNL     1      35.154  32.263   0.660  1.00  0.00     0.030 C 
BRANCH   8   9
HETATM    9  C2  UNL     1      36.191  32.140   1.742  1.00  0.00    -0.003 C 
HETATM   10  C1  UNL     1      37.099  30.963   1.575  1.00  0.00     0.005 C 
ENDBRANCH   8   9
ENDBRANCH   7   8
ENDBRANCH   1   7
BRANCH   6  11
HETATM   11  C10 UNL     1      34.086  34.330  -2.423  1.00  0.00     0.202 C 
BRANCH  11  12
HETATM   12  O4  UNL     1      34.263  35.294  -3.415  1.00  0.00    -0.399 OA
ATOM     13  H4  UNL     1      33.514  35.335  -3.998  1.00  0.00     0.209 HD
ENDBRANCH  11  12
ENDBRANCH   6  11
BRANCH   3  14
HETATM   14  O1  UNL     1      35.826  29.347  -3.845  1.00  0.00    -0.391 OA
ATOM     15  H1  UNL     1      36.015  29.686  -4.713  1.00  0.00     0.210 HD
ENDBRANCH   3  14
BRANCH   5  16
HETATM   16  O3  UNL     1      33.122  33.116  -4.639  1.00  0.00    -0.391 OA
ATOM     17  H3  UNL     1      33.154  32.716  -5.499  1.00  0.00     0.210 HD
ENDBRANCH   5  16
BRANCH   4  18
HETATM   18  O2  UNL     1      33.442  30.369  -5.055  1.00  0.00    -0.390 OA
ATOM     19  H2  UNL     1      33.685  29.452  -5.003  1.00  0.00     0.210 HD
ENDBRANCH   4  18
TORSDOF 8
ENDMDL
