MODEL 9
REMARK VINA RESULT: -3.832775981      8.809      9.278
REMARK  4 active torsions:
REMARK  status: ('A' for Active; 'I' for Inactive)
REMARK    1  A    between atoms: N1_1  and  C1_5 
REMARK    2  A    between atoms: C1_5  and  C2_6 
REMARK    3  A    between atoms: C1_5  and  C3_9 
REMARK    4  A    between atoms: C2_6  and  O1_7 
ROOT
HETATM    1  C1  UNL     1      37.705  27.565  33.425  1.00  0.00     0.306 C 
ENDROOT
BRANCH   1   2
HETATM    2  N1  UNL     1      36.500  28.329  33.212  1.00  0.00    -0.063 N 
ATOM      3  H13 UNL     1      35.669  27.737  33.226  1.00  0.00     0.275 HD
ATOM      4  H12 UNL     1      36.280  28.921  34.013  1.00  0.00     0.275 HD
ATOM      5  H11 UNL     1      36.566  28.869  32.348  1.00  0.00     0.275 HD
ENDBRANCH   1   2
BRANCH   1   6
HETATM    6  C2  UNL     1      37.613  26.221  32.731  1.00  0.00     0.208 C 
BRANCH   6   7
HETATM    7  O1  UNL     1      37.141  26.378  31.441  1.00  0.00    -0.398 OA
ATOM      8  H1  UNL     1      36.195  26.294  31.424  1.00  0.00     0.209 HD
ENDBRANCH   6   7
ENDBRANCH   1   6
BRANCH   1   9
HETATM    9  C3  UNL     1      37.887  27.316  34.876  1.00  0.00     0.206 C 
HETATM   10  O2  UNL     1      38.217  28.259  35.607  1.00  0.00    -0.646 OA
HETATM   11  O3  UNL     1      37.691  26.059  35.396  1.00  0.00    -0.646 OA
ENDBRANCH   1   9
TORSDOF 4
ENDMDL
