MODEL 8
REMARK VINA RESULT: -4.004545877      8.304      8.510
REMARK  4 active torsions:
REMARK  status: ('A' for Active; 'I' for Inactive)
REMARK    1  A    between atoms: N1_1  and  C1_5 
REMARK    2  A    between atoms: C1_5  and  C2_6 
REMARK    3  A    between atoms: C1_5  and  C3_9 
REMARK    4  A    between atoms: C2_6  and  O1_7 
ROOT
HETATM    1  C1  UNL     1      37.644  26.693  32.730  1.00  0.00     0.306 C 
ENDROOT
BRANCH   1   2
HETATM    2  N1  UNL     1      37.762  25.947  33.959  1.00  0.00    -0.063 N 
ATOM      3  H13 UNL     1      36.937  26.057  34.549  1.00  0.00     0.275 HD
ATOM      4  H12 UNL     1      37.704  24.942  33.799  1.00  0.00     0.275 HD
ATOM      5  H11 UNL     1      38.617  26.204  34.453  1.00  0.00     0.275 HD
ENDBRANCH   1   2
BRANCH   1   6
HETATM    6  C2  UNL     1      36.772  27.916  32.930  1.00  0.00     0.208 C 
BRANCH   6   7
HETATM    7  O1  UNL     1      36.807  28.319  34.252  1.00  0.00    -0.398 OA
ATOM      8  H1  UNL     1      35.947  28.615  34.530  1.00  0.00     0.209 HD
ENDBRANCH   6   7
ENDBRANCH   1   6
BRANCH   1   9
HETATM    9  C3  UNL     1      37.008  25.845  31.693  1.00  0.00     0.206 C 
HETATM   10  O2  UNL     1      36.675  26.363  30.618  1.00  0.00    -0.646 OA
HETATM   11  O3  UNL     1      36.794  24.507  31.924  1.00  0.00    -0.646 OA
ENDBRANCH   1   9
TORSDOF 4
ENDMDL
