MODEL 7
REMARK VINA RESULT: -4.080972731      8.329      8.601
REMARK  4 active torsions:
REMARK  status: ('A' for Active; 'I' for Inactive)
REMARK    1  A    between atoms: N1_1  and  C1_5 
REMARK    2  A    between atoms: C1_5  and  C2_6 
REMARK    3  A    between atoms: C1_5  and  C3_9 
REMARK    4  A    between atoms: C2_6  and  O1_7 
ROOT
HETATM    1  C1  UNL     1      37.660  26.662  32.776  1.00  0.00     0.306 C 
ENDROOT
BRANCH   1   2
HETATM    2  N1  UNL     1      37.760  25.942  34.022  1.00  0.00    -0.063 N 
ATOM      3  H13 UNL     1      38.379  26.411  34.682  1.00  0.00     0.275 HD
ATOM      4  H12 UNL     1      36.895  25.994  34.560  1.00  0.00     0.275 HD
ATOM      5  H11 UNL     1      38.045  24.976  33.856  1.00  0.00     0.275 HD
ENDBRANCH   1   2
BRANCH   1   6
HETATM    6  C2  UNL     1      36.805  27.902  32.945  1.00  0.00     0.208 C 
BRANCH   6   7
HETATM    7  O1  UNL     1      36.808  28.311  34.265  1.00  0.00    -0.398 OA
ATOM      8  H1  UNL     1      36.892  27.561  34.843  1.00  0.00     0.209 HD
ENDBRANCH   6   7
ENDBRANCH   1   6
BRANCH   1   9
HETATM    9  C3  UNL     1      37.018  25.802  31.753  1.00  0.00     0.206 C 
HETATM   10  O2  UNL     1      36.833  24.604  32.009  1.00  0.00    -0.646 OA
HETATM   11  O3  UNL     1      36.637  26.328  30.541  1.00  0.00    -0.646 OA
ENDBRANCH   1   9
TORSDOF 4
ENDMDL
