MODEL 2
REMARK VINA RESULT: -4.782729603      1.687      2.073
REMARK  4 active torsions:
REMARK  status: ('A' for Active; 'I' for Inactive)
REMARK    1  A    between atoms: N1_1  and  C1_5 
REMARK    2  A    between atoms: C1_5  and  C2_6 
REMARK    3  A    between atoms: C1_5  and  C3_9 
REMARK    4  A    between atoms: C2_6  and  O1_7 
ROOT
HETATM    1  C1  UNL     1      32.100  32.782  28.208  1.00  0.00     0.306 C 
ENDROOT
BRANCH   1   2
HETATM    2  N1  UNL     1      32.224  32.931  29.638  1.00  0.00    -0.063 N 
ATOM      3  H13 UNL     1      31.413  32.555  30.129  1.00  0.00     0.275 HD
ATOM      4  H12 UNL     1      32.937  32.311  30.022  1.00  0.00     0.275 HD
ATOM      5  H11 UNL     1      32.397  33.906  29.883  1.00  0.00     0.275 HD
ENDBRANCH   1   2
BRANCH   1   6
HETATM    6  C2  UNL     1      30.656  32.945  27.779  1.00  0.00     0.208 C 
BRANCH   6   7
HETATM    7  O1  UNL     1      30.539  33.982  26.873  1.00  0.00    -0.398 OA
ATOM      8  H1  UNL     1      31.088  34.712  27.135  1.00  0.00     0.209 HD
ENDBRANCH   6   7
ENDBRANCH   1   6
BRANCH   1   9
HETATM    9  C3  UNL     1      32.544  31.424  27.809  1.00  0.00     0.206 C 
HETATM   10  O2  UNL     1      33.400  31.312  26.922  1.00  0.00    -0.646 OA
HETATM   11  O3  UNL     1      32.010  30.312  28.415  1.00  0.00    -0.646 OA
ENDBRANCH   1   9
TORSDOF 4
ENDMDL
