MODEL 1
REMARK VINA RESULT: -5.448318124      0.000      0.000
REMARK  4 active torsions:
REMARK  status: ('A' for Active; 'I' for Inactive)
REMARK    1  A    between atoms: N1_1  and  C1_5 
REMARK    2  A    between atoms: C1_5  and  C2_6 
REMARK    3  A    between atoms: C1_5  and  C3_9 
REMARK    4  A    between atoms: C2_6  and  O1_7 
ROOT
HETATM    1  C1  UNL     1      31.710  32.529  28.448  1.00  0.00     0.306 C 
ENDROOT
BRANCH   1   2
HETATM    2  N1  UNL     1      32.324  33.727  27.929  1.00  0.00    -0.063 N 
ATOM      3  H13 UNL     1      31.629  34.401  27.608  1.00  0.00     0.275 HD
ATOM      4  H12 UNL     1      32.748  34.285  28.669  1.00  0.00     0.275 HD
ATOM      5  H11 UNL     1      32.995  33.497  27.196  1.00  0.00     0.275 HD
ENDBRANCH   1   2
BRANCH   1   6
HETATM    6  C2  UNL     1      31.806  32.493  29.960  1.00  0.00     0.208 C 
BRANCH   6   7
HETATM    7  O1  UNL     1      31.100  31.415  30.460  1.00  0.00    -0.398 OA
ATOM      8  H1  UNL     1      31.284  31.301  31.385  1.00  0.00     0.209 HD
ENDBRANCH   6   7
ENDBRANCH   1   6
BRANCH   1   9
HETATM    9  C3  UNL     1      32.415  31.338  27.918  1.00  0.00     0.206 C 
HETATM   10  O2  UNL     1      33.357  31.501  27.130  1.00  0.00    -0.646 OA
HETATM   11  O3  UNL     1      32.027  30.074  28.295  1.00  0.00    -0.646 OA
ENDBRANCH   1   9
TORSDOF 4
ENDMDL
