MODEL 14
REMARK VINA RESULT: -3.035486532      3.538      5.363
REMARK  4 active torsions:
REMARK  status: ('A' for Active; 'I' for Inactive)
REMARK    1  A    between atoms: O1_1  and  C1_3 
REMARK    2  A    between atoms: C2_4  and  O2_5 
REMARK    3  A    between atoms: C4_9  and  O4_10 
REMARK    4  A    between atoms: C5_12  and  O5_13 
ROOT
HETATM    1  C1  UNL     1      27.078  26.287   0.894  1.00  0.00     0.182 C 
HETATM    2  C2  UNL     1      25.817  26.304   0.117  1.00  0.00     0.173 C 
HETATM    3  C3  UNL     1      25.913  26.909  -1.245  1.00  0.00     0.205 C 
HETATM    4  O3  UNL     1      27.074  26.535  -1.915  1.00  0.00    -0.356 OA
HETATM    5  C4  UNL     1      28.135  27.109  -1.235  1.00  0.00     0.288 C 
HETATM    6  C5  UNL     1      28.315  26.605   0.147  1.00  0.00     0.204 C 
ENDROOT
BRANCH   1   7
HETATM    7  O1  UNL     1      26.947  27.106   2.040  1.00  0.00    -0.390 OA
ATOM      8  H1  UNL     1      26.252  27.739   1.907  1.00  0.00     0.210 HD
ENDBRANCH   1   7
BRANCH   2   9
HETATM    9  O2  UNL     1      25.253  25.013  -0.007  1.00  0.00    -0.391 OA
ATOM     10  H2  UNL     1      24.871  24.873  -0.865  1.00  0.00     0.210 HD
ENDBRANCH   2   9
BRANCH   6  11
HETATM   11  O5  UNL     1      29.209  25.511   0.087  1.00  0.00    -0.388 OA
ATOM     12  H5  UNL     1      29.482  25.216   0.948  1.00  0.00     0.210 HD
ENDBRANCH   6  11
BRANCH   5  13
HETATM   13  O4  UNL     1      28.047  28.511  -1.201  1.00  0.00    -0.369 OA
ATOM     14  H4  UNL     1      28.848  28.913  -0.886  1.00  0.00     0.212 HD
ENDBRANCH   5  13
TORSDOF 4
ENDMDL
