MODEL 10
REMARK VINA RESULT: -3.351217197      1.522      3.307
REMARK  4 active torsions:
REMARK  status: ('A' for Active; 'I' for Inactive)
REMARK    1  A    between atoms: O1_1  and  C1_3 
REMARK    2  A    between atoms: C2_4  and  O2_5 
REMARK    3  A    between atoms: C4_9  and  O4_10 
REMARK    4  A    between atoms: C5_12  and  O5_13 
ROOT
HETATM    1  C1  UNL     1      28.518  27.323   0.844  1.00  0.00     0.182 C 
HETATM    2  C2  UNL     1      29.392  27.672   1.988  1.00  0.00     0.173 C 
HETATM    3  C3  UNL     1      30.808  27.992   1.636  1.00  0.00     0.205 C 
HETATM    4  O3  UNL     1      30.911  28.771   0.489  1.00  0.00    -0.356 OA
HETATM    5  C4  UNL     1      30.487  27.987  -0.571  1.00  0.00     0.288 C 
HETATM    6  C5  UNL     1      29.059  27.596  -0.505  1.00  0.00     0.204 C 
ENDROOT
BRANCH   1   7
HETATM    7  O1  UNL     1      28.088  25.980   0.961  1.00  0.00    -0.390 OA
ATOM      8  H1  UNL     1      27.215  25.953   1.335  1.00  0.00     0.210 HD
ENDBRANCH   1   7
BRANCH   2   9
HETATM    9  O2  UNL     1      28.869  28.744   2.746  1.00  0.00    -0.391 OA
ATOM     10  H2  UNL     1      29.152  28.711   3.652  1.00  0.00     0.210 HD
ENDBRANCH   2   9
BRANCH   6  11
HETATM   11  O5  UNL     1      28.317  28.578  -1.199  1.00  0.00    -0.388 OA
ATOM     12  H5  UNL     1      28.727  29.434  -1.168  1.00  0.00     0.210 HD
ENDBRANCH   6  11
BRANCH   5  13
HETATM   13  O4  UNL     1      31.271  26.830  -0.722  1.00  0.00    -0.369 OA
ATOM     14  H4  UNL     1      31.096  26.188  -0.045  1.00  0.00     0.212 HD
ENDBRANCH   5  13
TORSDOF 4
ENDMDL
