MODEL 2
REMARK VINA RESULT: -3.970302323      0.771      3.027
REMARK  4 active torsions:
REMARK  status: ('A' for Active; 'I' for Inactive)
REMARK    1  A    between atoms: O1_1  and  C1_3 
REMARK    2  A    between atoms: C2_4  and  O2_5 
REMARK    3  A    between atoms: C4_9  and  O4_10 
REMARK    4  A    between atoms: C5_12  and  O5_13 
ROOT
HETATM    1  C1  UNL     1      29.540  28.134   1.221  1.00  0.00     0.182 C 
HETATM    2  C2  UNL     1      29.863  28.812   2.498  1.00  0.00     0.173 C 
HETATM    3  C3  UNL     1      31.320  28.960   2.793  1.00  0.00     0.205 C 
HETATM    4  O3  UNL     1      32.058  29.319   1.670  1.00  0.00    -0.356 OA
HETATM    5  C4  UNL     1      32.016  28.246   0.798  1.00  0.00     0.288 C 
HETATM    6  C5  UNL     1      30.663  27.937   0.278  1.00  0.00     0.204 C 
ENDROOT
BRANCH   1   7
HETATM    7  O1  UNL     1      28.870  26.915   1.481  1.00  0.00    -0.390 OA
ATOM      8  H1  UNL     1      29.015  26.308   0.765  1.00  0.00     0.210 HD
ENDBRANCH   1   7
BRANCH   2   9
HETATM    9  O2  UNL     1      29.259  30.087   2.588  1.00  0.00    -0.391 OA
ATOM     10  H2  UNL     1      29.117  30.351   3.489  1.00  0.00     0.210 HD
ENDBRANCH   2   9
BRANCH   6  11
HETATM   11  O5  UNL     1      30.495  28.660  -0.925  1.00  0.00    -0.388 OA
ATOM     12  H5  UNL     1      31.166  28.462  -1.566  1.00  0.00     0.210 HD
ENDBRANCH   6  11
BRANCH   5  13
HETATM   13  O4  UNL     1      32.565  27.081   1.363  1.00  0.00    -0.369 OA
ATOM     14  H4  UNL     1      32.537  26.345   0.763  1.00  0.00     0.212 HD
ENDBRANCH   5  13
TORSDOF 4
ENDMDL
