MODEL 13
REMARK VINA RESULT: -3.075312847      3.364      4.996
REMARK  4 active torsions:
REMARK  status: ('A' for Active; 'I' for Inactive)
REMARK    1  A    between atoms: O1_1  and  C1_3 
REMARK    2  A    between atoms: C2_4  and  O2_5 
REMARK    3  A    between atoms: C4_9  and  O4_10 
REMARK    4  A    between atoms: C5_12  and  O5_13 
ROOT
HETATM    1  C1  UNL     1      28.358  26.929   0.144  1.00  0.00     0.182 C 
HETATM    2  C2  UNL     1      27.917  27.205  -1.243  1.00  0.00     0.173 C 
HETATM    3  C3  UNL     1      26.616  26.584  -1.636  1.00  0.00     0.205 C 
HETATM    4  O3  UNL     1      25.660  26.665  -0.630  1.00  0.00    -0.356 OA
HETATM    5  C4  UNL     1      26.097  25.862   0.410  1.00  0.00     0.288 C 
HETATM    6  C5  UNL     1      27.355  26.320   1.045  1.00  0.00     0.204 C 
ENDROOT
BRANCH   1   7
HETATM    7  O1  UNL     1      29.555  26.174   0.125  1.00  0.00    -0.390 OA
ATOM      8  H1  UNL     1      29.491  25.453   0.740  1.00  0.00     0.210 HD
ENDBRANCH   1   7
BRANCH   2   9
HETATM    9  O2  UNL     1      27.846  28.592  -1.510  1.00  0.00    -0.391 OA
ATOM     10  H2  UNL     1      27.378  28.775  -2.316  1.00  0.00     0.210 HD
ENDBRANCH   2   9
BRANCH   6  11
HETATM   11  O5  UNL     1      27.004  27.170   2.119  1.00  0.00    -0.388 OA
ATOM     12  H5  UNL     1      26.960  26.709   2.948  1.00  0.00     0.210 HD
ENDBRANCH   6  11
BRANCH   5  13
HETATM   13  O4  UNL     1      26.247  24.521   0.017  1.00  0.00    -0.369 OA
ATOM     14  H4  UNL     1      26.401  23.945   0.757  1.00  0.00     0.212 HD
ENDBRANCH   5  13
TORSDOF 4
ENDMDL
