MODEL 7
REMARK VINA RESULT: -3.643776137      1.284      3.053
REMARK  4 active torsions:
REMARK  status: ('A' for Active; 'I' for Inactive)
REMARK    1  A    between atoms: O1_1  and  C1_3 
REMARK    2  A    between atoms: C2_4  and  O2_5 
REMARK    3  A    between atoms: C4_9  and  O4_10 
REMARK    4  A    between atoms: C5_12  and  O5_13 
ROOT
HETATM    1  C1  UNL     1      28.940  28.227   1.708  1.00  0.00     0.182 C 
HETATM    2  C2  UNL     1      30.045  28.631   2.608  1.00  0.00     0.173 C 
HETATM    3  C3  UNL     1      31.416  28.268   2.142  1.00  0.00     0.205 C 
HETATM    4  O3  UNL     1      31.590  28.480   0.778  1.00  0.00    -0.356 OA
HETATM    5  C4  UNL     1      30.778  27.572   0.121  1.00  0.00     0.288 C 
HETATM    6  C5  UNL     1      29.328  27.773   0.354  1.00  0.00     0.204 C 
ENDROOT
BRANCH   1   7
HETATM    7  O1  UNL     1      28.120  27.272   2.352  1.00  0.00    -0.390 OA
ATOM      8  H1  UNL     1      27.298  27.184   1.884  1.00  0.00     0.210 HD
ENDBRANCH   1   7
BRANCH   2   9
HETATM    9  O2  UNL     1      30.021  30.017   2.886  1.00  0.00    -0.391 OA
ATOM     10  H2  UNL     1      30.886  30.355   3.086  1.00  0.00     0.210 HD
ENDBRANCH   2   9
BRANCH   6  11
HETATM   11  O5  UNL     1      28.849  28.629  -0.664  1.00  0.00    -0.388 OA
ATOM     12  H5  UNL     1      27.927  28.497  -0.847  1.00  0.00     0.210 HD
ENDBRANCH   6  11
BRANCH   5  13
HETATM   13  O4  UNL     1      31.109  26.241   0.432  1.00  0.00    -0.369 OA
ATOM     14  H4  UNL     1      31.013  25.664  -0.316  1.00  0.00     0.212 HD
ENDBRANCH   5  13
TORSDOF 4
ENDMDL
