MODEL 15
REMARK VINA RESULT: -3.034081957      4.974      6.924
REMARK  4 active torsions:
REMARK  status: ('A' for Active; 'I' for Inactive)
REMARK    1  A    between atoms: O1_1  and  C1_3 
REMARK    2  A    between atoms: C2_4  and  O2_5 
REMARK    3  A    between atoms: C4_9  and  O4_10 
REMARK    4  A    between atoms: C5_12  and  O5_13 
ROOT
HETATM    1  C1  UNL     1      24.907  26.957  -0.307  1.00  0.00     0.182 C 
HETATM    2  C2  UNL     1      23.901  25.913  -0.609  1.00  0.00     0.173 C 
HETATM    3  C3  UNL     1      24.439  24.526  -0.745  1.00  0.00     0.205 C 
HETATM    4  O3  UNL     1      25.403  24.231   0.215  1.00  0.00    -0.356 OA
HETATM    5  C4  UNL     1      26.501  25.028  -0.057  1.00  0.00     0.288 C 
HETATM    6  C5  UNL     1      26.249  26.481   0.093  1.00  0.00     0.204 C 
ENDROOT
BRANCH   1   7
HETATM    7  O1  UNL     1      24.987  27.872  -1.383  1.00  0.00    -0.390 OA
ATOM      8  H1  UNL     1      25.559  27.526  -2.058  1.00  0.00     0.210 HD
ENDBRANCH   1   7
BRANCH   2   9
HETATM    9  O2  UNL     1      22.855  25.893   0.342  1.00  0.00    -0.391 OA
ATOM     10  H2  UNL     1      23.142  25.548   1.179  1.00  0.00     0.210 HD
ENDBRANCH   2   9
BRANCH   6  11
HETATM   11  O5  UNL     1      26.577  26.834   1.422  1.00  0.00    -0.388 OA
ATOM     12  H5  UNL     1      27.511  26.798   1.589  1.00  0.00     0.210 HD
ENDBRANCH   6  11
BRANCH   5  13
HETATM   13  O4  UNL     1      27.029  24.786  -1.337  1.00  0.00    -0.369 OA
ATOM     14  H4  UNL     1      27.962  24.613  -1.313  1.00  0.00     0.212 HD
ENDBRANCH   5  13
TORSDOF 4
ENDMDL
