MODEL 4
REMARK VINA RESULT: -9.136892009      1.117      1.765
REMARK  7 active torsions:
REMARK  status: ('A' for Active; 'I' for Inactive)
REMARK    1  A    between atoms: N1_4  and  C4_5 
REMARK    2  A    between atoms: C6_7  and  O1_8 
REMARK    3  A    between atoms: C7_10  and  C8_11 
REMARK    4  A    between atoms: C8_11  and  O2_12 
REMARK    5  A    between atoms: O2_12  and  P1_13 
REMARK    6  A    between atoms: P1_13  and  O5_16 
REMARK    7  A    between atoms: O5_16  and  P2_17 
ROOT
HETATM    1  C4  UNL     1       8.002  24.274   0.143  1.00  0.00     0.235 C 
HETATM    2  C5  UNL     1       7.637  23.845   1.540  1.00  0.00     0.088 C 
HETATM    3  C6  UNL     1       8.970  23.287   2.037  1.00  0.00     0.153 C 
HETATM    4  C7  UNL     1       9.910  24.215   1.271  1.00  0.00     0.177 C 
HETATM    5  O9  UNL     1       9.358  24.147  -0.006  1.00  0.00    -0.356 OA
ENDROOT
BRANCH   1   6
HETATM    6  N1  UNL     1       7.261  23.435  -0.776  1.00  0.00    -0.282 N 
HETATM    7  C3  UNL     1       7.476  22.111  -0.878  1.00  0.00     0.110 A 
HETATM    8  C2  UNL     1       6.736  21.343  -1.780  1.00  0.00     0.022 A 
HETATM    9  C1  UNL     1       6.942  19.893  -1.920  1.00  0.00     0.056 C 
HETATM   10  C10 UNL     1       5.782  21.984  -2.561  1.00  0.00     0.256 A 
HETATM   11  N2  UNL     1       5.592  23.303  -2.437  1.00  0.00    -0.275 N 
HETATM   12  O11 UNL     1       5.126  21.267  -3.370  1.00  0.00    -0.267 OA
HETATM   13  C9  UNL     1       6.326  23.994  -1.558  1.00  0.00     0.331 A 
ATOM     14  H2  UNL     1       4.893  23.778  -3.008  1.00  0.00     0.173 HD
HETATM   15  O10 UNL     1       6.152  25.251  -1.432  1.00  0.00    -0.246 OA
ENDBRANCH   1   6
BRANCH   3  16
HETATM   16  O1  UNL     1       9.108  23.425   3.402  1.00  0.00    -0.393 OA
ATOM     17  H1  UNL     1       9.709  22.784   3.764  1.00  0.00     0.210 HD
ENDBRANCH   3  16
BRANCH   4  18
HETATM   18  C8  UNL     1      11.326  23.772   1.324  1.00  0.00     0.216 C 
BRANCH  18  19
HETATM   19  O2  UNL     1      11.305  22.390   1.202  1.00  0.00    -0.287 OA
BRANCH  19  20
HETATM   20  P1  UNL     1      11.905  21.582   2.387  1.00  0.00     0.418 P 
HETATM   21  O3  UNL     1      11.440  20.220   1.542  1.00  0.00    -0.624 OA
HETATM   22  O4  UNL     1      13.358  22.274   2.121  1.00  0.00    -0.624 OA
BRANCH  20  23
HETATM   23  O5  UNL     1      12.510  20.681   3.439  1.00  0.00    -0.173 OA
BRANCH  23  24
HETATM   24  P2  UNL     1      11.972  20.357   4.844  1.00  0.00     0.431 P 
HETATM   25  O6  UNL     1      12.262  18.743   4.518  1.00  0.00    -0.616 OA
HETATM   26  O7  UNL     1      10.506  20.950   4.616  1.00  0.00    -0.616 OA
HETATM   27  O8  UNL     1      11.812  19.971   6.333  1.00  0.00    -0.616 OA
ENDBRANCH  23  24
ENDBRANCH  20  23
ENDBRANCH  19  20
ENDBRANCH  18  19
ENDBRANCH   4  18
TORSDOF 7
ENDMDL
