MODEL 2
REMARK VINA RESULT: -9.283215006      0.955      1.249
REMARK  7 active torsions:
REMARK  status: ('A' for Active; 'I' for Inactive)
REMARK    1  A    between atoms: N1_4  and  C4_5 
REMARK    2  A    between atoms: C6_7  and  O1_8 
REMARK    3  A    between atoms: C7_10  and  C8_11 
REMARK    4  A    between atoms: C8_11  and  O2_12 
REMARK    5  A    between atoms: O2_12  and  P1_13 
REMARK    6  A    between atoms: P1_13  and  O5_16 
REMARK    7  A    between atoms: O5_16  and  P2_17 
ROOT
HETATM    1  C4  UNL     1       8.126  24.165  -0.081  1.00  0.00     0.235 C 
HETATM    2  C5  UNL     1       7.577  24.051   1.316  1.00  0.00     0.088 C 
HETATM    3  C6  UNL     1       8.740  23.369   2.037  1.00  0.00     0.153 C 
HETATM    4  C7  UNL     1       9.894  23.979   1.244  1.00  0.00     0.177 C 
HETATM    5  O9  UNL     1       9.444  23.788  -0.060  1.00  0.00    -0.356 OA
ENDROOT
BRANCH   1   6
HETATM    6  N1  UNL     1       7.320  23.318  -0.936  1.00  0.00    -0.282 N 
HETATM    7  C3  UNL     1       7.520  21.992  -1.034  1.00  0.00     0.110 A 
HETATM    8  C2  UNL     1       6.717  21.215  -1.872  1.00  0.00     0.022 A 
HETATM    9  C1  UNL     1       6.905  19.763  -2.005  1.00  0.00     0.056 C 
HETATM   10  C10 UNL     1       5.716  21.852  -2.595  1.00  0.00     0.256 A 
HETATM   11  N2  UNL     1       5.541  23.174  -2.478  1.00  0.00    -0.275 N 
HETATM   12  O11 UNL     1       5.002  21.127  -3.347  1.00  0.00    -0.267 OA
HETATM   13  C9  UNL     1       6.337  23.872  -1.660  1.00  0.00     0.331 A 
ATOM     14  H2  UNL     1       4.807  23.644  -3.006  1.00  0.00     0.173 HD
HETATM   15  O10 UNL     1       6.178  25.132  -1.541  1.00  0.00    -0.246 OA
ENDBRANCH   1   6
BRANCH   3  16
HETATM   16  O1  UNL     1       8.791  23.714   3.371  1.00  0.00    -0.393 OA
ATOM     17  H1  UNL     1       9.684  23.836   3.671  1.00  0.00     0.210 HD
ENDBRANCH   3  16
BRANCH   4  18
HETATM   18  C8  UNL     1      11.195  23.320   1.520  1.00  0.00     0.216 C 
BRANCH  18  19
HETATM   19  O2  UNL     1      10.927  21.963   1.628  1.00  0.00    -0.287 OA
BRANCH  19  20
HETATM   20  P1  UNL     1      11.835  21.153   2.595  1.00  0.00     0.418 P 
HETATM   21  O3  UNL     1      13.044  22.222   2.171  1.00  0.00    -0.624 OA
HETATM   22  O4  UNL     1      10.819  21.486   3.827  1.00  0.00    -0.624 OA
BRANCH  20  23
HETATM   23  O5  UNL     1      12.802  20.493   3.552  1.00  0.00    -0.173 OA
BRANCH  23  24
HETATM   24  P2  UNL     1      12.886  19.010   3.954  1.00  0.00     0.431 P 
HETATM   25  O6  UNL     1      11.809  18.676   2.719  1.00  0.00    -0.616 OA
HETATM   26  O7  UNL     1      12.336  19.195   5.442  1.00  0.00    -0.616 OA
HETATM   27  O8  UNL     1      13.185  17.494   4.028  1.00  0.00    -0.616 OA
ENDBRANCH  23  24
ENDBRANCH  20  23
ENDBRANCH  19  20
ENDBRANCH  18  19
ENDBRANCH   4  18
TORSDOF 7
ENDMDL
