MODEL 11
REMARK VINA RESULT: -8.017675137      4.264      6.156
REMARK  7 active torsions:
REMARK  status: ('A' for Active; 'I' for Inactive)
REMARK    1  A    between atoms: N1_4  and  C4_5 
REMARK    2  A    between atoms: C6_7  and  O1_8 
REMARK    3  A    between atoms: C7_10  and  C8_11 
REMARK    4  A    between atoms: C8_11  and  O2_12 
REMARK    5  A    between atoms: O2_12  and  P1_13 
REMARK    6  A    between atoms: P1_13  and  O5_16 
REMARK    7  A    between atoms: O5_16  and  P2_17 
ROOT
HETATM    1  C4  UNL     1      11.518  21.225   3.671  1.00  0.00     0.235 C 
HETATM    2  C5  UNL     1      12.868  21.800   4.009  1.00  0.00     0.088 C 
HETATM    3  C6  UNL     1      12.650  22.236   5.457  1.00  0.00     0.153 C 
HETATM    4  C7  UNL     1      11.665  21.148   5.882  1.00  0.00     0.177 C 
HETATM    5  O9  UNL     1      10.768  21.181   4.818  1.00  0.00    -0.356 OA
ENDROOT
BRANCH   1   6
HETATM    6  N1  UNL     1      10.927  22.071   2.654  1.00  0.00    -0.282 N 
HETATM    7  C3  UNL     1      10.129  23.111   2.954  1.00  0.00     0.110 A 
HETATM    8  C2  UNL     1       9.582  23.899   1.938  1.00  0.00     0.022 A 
HETATM    9  C1  UNL     1       8.705  25.043   2.227  1.00  0.00     0.056 C 
HETATM   10  C10 UNL     1       9.887  23.576   0.622  1.00  0.00     0.256 A 
HETATM   11  N2  UNL     1      10.684  22.535   0.354  1.00  0.00    -0.275 N 
HETATM   12  O11 UNL     1       9.380  24.304  -0.279  1.00  0.00    -0.267 OA
HETATM   13  C9  UNL     1      11.183  21.812   1.364  1.00  0.00     0.331 A 
ATOM     14  H2  UNL     1      10.910  22.295  -0.611  1.00  0.00     0.173 HD
HETATM   15  O10 UNL     1      11.944  20.818   1.118  1.00  0.00    -0.246 OA
ENDBRANCH   1   6
BRANCH   3  16
HETATM   16  O1  UNL     1      13.818  22.188   6.189  1.00  0.00    -0.393 OA
ATOM     17  H1  UNL     1      13.680  22.445   7.093  1.00  0.00     0.210 HD
ENDBRANCH   3  16
BRANCH   4  18
HETATM   18  C8  UNL     1      11.031  21.426   7.194  1.00  0.00     0.216 C 
BRANCH  18  19
HETATM   19  O2  UNL     1      10.476  20.228   7.619  1.00  0.00    -0.287 OA
BRANCH  19  20
HETATM   20  P1  UNL     1      11.016  19.650   8.957  1.00  0.00     0.418 P 
HETATM   21  O3  UNL     1      11.916  21.051   9.066  1.00  0.00    -0.624 OA
HETATM   22  O4  UNL     1       9.494  19.586   9.542  1.00  0.00    -0.624 OA
BRANCH  20  23
HETATM   23  O5  UNL     1      11.566  19.233  10.301  1.00  0.00    -0.173 OA
BRANCH  23  24
HETATM   24  P2  UNL     1      13.025  18.928  10.684  1.00  0.00     0.431 P 
HETATM   25  O6  UNL     1      12.597  17.316  10.795  1.00  0.00    -0.616 OA
HETATM   26  O7  UNL     1      13.056  19.822  12.007  1.00  0.00    -0.616 OA
HETATM   27  O8  UNL     1      14.506  18.479  10.701  1.00  0.00    -0.616 OA
ENDBRANCH  23  24
ENDBRANCH  20  23
ENDBRANCH  19  20
ENDBRANCH  18  19
ENDBRANCH   4  18
TORSDOF 7
ENDMDL
