MODEL 8
REMARK VINA RESULT: -8.255169952      5.930      8.853
REMARK  7 active torsions:
REMARK  status: ('A' for Active; 'I' for Inactive)
REMARK    1  A    between atoms: N1_4  and  C4_5 
REMARK    2  A    between atoms: C6_7  and  O1_8 
REMARK    3  A    between atoms: C7_10  and  C8_11 
REMARK    4  A    between atoms: C8_11  and  O2_12 
REMARK    5  A    between atoms: O2_12  and  P1_13 
REMARK    6  A    between atoms: P1_13  and  O5_16 
REMARK    7  A    between atoms: O5_16  and  P2_17 
ROOT
HETATM    1  C4  UNL     1      11.215  21.296   7.500  1.00  0.00     0.235 C 
HETATM    2  C5  UNL     1      12.062  22.536   7.385  1.00  0.00     0.088 C 
HETATM    3  C6  UNL     1      12.444  22.499   5.906  1.00  0.00     0.153 C 
HETATM    4  C7  UNL     1      11.173  21.856   5.355  1.00  0.00     0.177 C 
HETATM    5  O9  UNL     1      11.014  20.793   6.240  1.00  0.00    -0.356 OA
ENDROOT
BRANCH   1   6
HETATM    6  N1  UNL     1      11.917  20.368   8.363  1.00  0.00    -0.282 N 
HETATM    7  C3  UNL     1      13.245  20.171   8.282  1.00  0.00     0.110 A 
HETATM    8  C2  UNL     1      13.878  19.265   9.137  1.00  0.00     0.022 A 
HETATM    9  C1  UNL     1      15.327  19.022   9.079  1.00  0.00     0.056 C 
HETATM   10  C10 UNL     1      13.098  18.581  10.061  1.00  0.00     0.256 A 
HETATM   11  N2  UNL     1      11.779  18.798  10.117  1.00  0.00    -0.275 N 
HETATM   12  O11 UNL     1      13.695  17.766  10.823  1.00  0.00    -0.267 OA
HETATM   13  C9  UNL     1      11.221  19.677   9.277  1.00  0.00     0.331 A 
ATOM     14  H2  UNL     1      11.204  18.298  10.794  1.00  0.00     0.173 HD
HETATM   15  O10 UNL     1       9.964  19.891   9.322  1.00  0.00    -0.246 OA
ENDBRANCH   1   6
BRANCH   3  16
HETATM   16  O1  UNL     1      12.644  23.765   5.396  1.00  0.00    -0.393 OA
ATOM     17  H1  UNL     1      12.682  23.762   4.446  1.00  0.00     0.210 HD
ENDBRANCH   3  16
BRANCH   4  18
HETATM   18  C8  UNL     1      11.311  21.427   3.941  1.00  0.00     0.216 C 
BRANCH  18  19
HETATM   19  O2  UNL     1      11.087  20.058   3.926  1.00  0.00    -0.287 OA
BRANCH  19  20
HETATM   20  P1  UNL     1      12.174  19.186   3.238  1.00  0.00     0.418 P 
HETATM   21  O3  UNL     1      12.425  18.514   4.745  1.00  0.00    -0.624 OA
HETATM   22  O4  UNL     1      11.046  18.578   2.229  1.00  0.00    -0.624 OA
BRANCH  20  23
HETATM   23  O5  UNL     1      13.207  18.234   2.680  1.00  0.00    -0.173 OA
BRANCH  23  24
HETATM   24  P2  UNL     1      14.658  18.019   3.145  1.00  0.00     0.431 P 
HETATM   25  O6  UNL     1      15.157  18.564   1.645  1.00  0.00    -0.616 OA
HETATM   26  O7  UNL     1      14.533  16.448   3.404  1.00  0.00    -0.616 OA
HETATM   27  O8  UNL     1      16.116  18.197   3.632  1.00  0.00    -0.616 OA
ENDBRANCH  23  24
ENDBRANCH  20  23
ENDBRANCH  19  20
ENDBRANCH  18  19
ENDBRANCH   4  18
TORSDOF 7
ENDMDL
