MODEL 10
REMARK VINA RESULT: -8.018787347      5.932      9.448
REMARK  7 active torsions:
REMARK  status: ('A' for Active; 'I' for Inactive)
REMARK    1  A    between atoms: N1_4  and  C4_5 
REMARK    2  A    between atoms: C6_7  and  O1_8 
REMARK    3  A    between atoms: C7_10  and  C8_11 
REMARK    4  A    between atoms: C8_11  and  O2_12 
REMARK    5  A    between atoms: O2_12  and  P1_13 
REMARK    6  A    between atoms: P1_13  and  O5_16 
REMARK    7  A    between atoms: O5_16  and  P2_17 
ROOT
HETATM    1  C4  UNL     1      11.297  21.157   7.479  1.00  0.00     0.235 C 
HETATM    2  C5  UNL     1      12.116  22.412   7.325  1.00  0.00     0.088 C 
HETATM    3  C6  UNL     1      12.498  22.338   5.847  1.00  0.00     0.153 C 
HETATM    4  C7  UNL     1      11.242  21.649   5.317  1.00  0.00     0.177 C 
HETATM    5  O9  UNL     1      11.108  20.611   6.236  1.00  0.00    -0.356 OA
ENDROOT
BRANCH   1   6
HETATM    6  N1  UNL     1      12.019  20.273   8.369  1.00  0.00    -0.282 N 
HETATM    7  C3  UNL     1      13.344  20.064   8.262  1.00  0.00     0.110 A 
HETATM    8  C2  UNL     1      13.997  19.202   9.145  1.00  0.00     0.022 A 
HETATM    9  C1  UNL     1      15.443  18.948   9.060  1.00  0.00     0.056 C 
HETATM   10  C10 UNL     1      13.242  18.572  10.127  1.00  0.00     0.256 A 
HETATM   11  N2  UNL     1      11.925  18.799  10.209  1.00  0.00    -0.275 N 
HETATM   12  O11 UNL     1      13.857  17.796  10.914  1.00  0.00    -0.267 OA
HETATM   13  C9  UNL     1      11.348  19.635   9.339  1.00  0.00     0.331 A 
ATOM     14  H2  UNL     1      11.368  18.339  10.928  1.00  0.00     0.173 HD
HETATM   15  O10 UNL     1      10.093  19.858   9.409  1.00  0.00    -0.246 OA
ENDBRANCH   1   6
BRANCH   3  16
HETATM   16  O1  UNL     1      12.670  23.591   5.298  1.00  0.00    -0.393 OA
ATOM     17  H1  UNL     1      11.841  24.038   5.169  1.00  0.00     0.210 HD
ENDBRANCH   3  16
BRANCH   4  18
HETATM   18  C8  UNL     1      11.390  21.180   3.917  1.00  0.00     0.216 C 
BRANCH  18  19
HETATM   19  O2  UNL     1      11.564  22.318   3.143  1.00  0.00    -0.287 OA
BRANCH  19  20
HETATM   20  P1  UNL     1      10.659  22.444   1.885  1.00  0.00     0.418 P 
HETATM   21  O3  UNL     1      10.863  20.797   1.714  1.00  0.00    -0.624 OA
HETATM   22  O4  UNL     1       9.458  23.046   2.811  1.00  0.00    -0.624 OA
BRANCH  20  23
HETATM   23  O5  UNL     1       9.740  22.420   0.685  1.00  0.00    -0.173 OA
BRANCH  23  24
HETATM   24  P2  UNL     1       8.476  23.261   0.432  1.00  0.00     0.431 P 
HETATM   25  O6  UNL     1       7.991  22.094  -0.663  1.00  0.00    -0.616 OA
HETATM   26  O7  UNL     1       9.230  24.565  -0.097  1.00  0.00    -0.616 OA
HETATM   27  O8  UNL     1       7.035  23.821   0.390  1.00  0.00    -0.616 OA
ENDBRANCH  23  24
ENDBRANCH  20  23
ENDBRANCH  19  20
ENDBRANCH  18  19
ENDBRANCH   4  18
TORSDOF 7
ENDMDL
