MODEL 3
REMARK VINA RESULT: -9.276511974      1.372      2.164
REMARK  7 active torsions:
REMARK  status: ('A' for Active; 'I' for Inactive)
REMARK    1  A    between atoms: N1_4  and  C4_5 
REMARK    2  A    between atoms: C6_7  and  O1_8 
REMARK    3  A    between atoms: C7_10  and  C8_11 
REMARK    4  A    between atoms: C8_11  and  O2_12 
REMARK    5  A    between atoms: O2_12  and  P1_13 
REMARK    6  A    between atoms: P1_13  and  O5_16 
REMARK    7  A    between atoms: O5_16  and  P2_17 
ROOT
HETATM    1  C4  UNL     1       8.293  24.110  -0.118  1.00  0.00     0.235 C 
HETATM    2  C5  UNL     1       7.592  24.335   1.195  1.00  0.00     0.088 C 
HETATM    3  C6  UNL     1       8.546  23.637   2.164  1.00  0.00     0.153 C 
HETATM    4  C7  UNL     1       9.860  23.919   1.439  1.00  0.00     0.177 C 
HETATM    5  O9  UNL     1       9.522  23.558   0.137  1.00  0.00    -0.356 OA
ENDROOT
BRANCH   1   6
HETATM    6  N1  UNL     1       7.451  23.245  -0.919  1.00  0.00    -0.282 N 
HETATM    7  C3  UNL     1       7.659  21.919  -1.011  1.00  0.00     0.110 A 
HETATM    8  C2  UNL     1       6.819  21.125  -1.795  1.00  0.00     0.022 A 
HETATM    9  C1  UNL     1       7.014  19.673  -1.920  1.00  0.00     0.056 C 
HETATM   10  C10 UNL     1       5.775  21.744  -2.472  1.00  0.00     0.256 A 
HETATM   11  N2  UNL     1       5.594  23.065  -2.362  1.00  0.00    -0.275 N 
HETATM   12  O11 UNL     1       5.030  21.003  -3.176  1.00  0.00    -0.267 OA
HETATM   13  C9  UNL     1       6.426  23.781  -1.596  1.00  0.00     0.331 A 
ATOM     14  H2  UNL     1       4.829  23.522  -2.857  1.00  0.00     0.173 HD
HETATM   15  O10 UNL     1       6.262  25.041  -1.485  1.00  0.00    -0.246 OA
ENDBRANCH   1   6
BRANCH   3  16
HETATM   16  O1  UNL     1       8.515  24.211   3.418  1.00  0.00    -0.393 OA
ATOM     17  H1  UNL     1       8.989  23.691   4.057  1.00  0.00     0.210 HD
ENDBRANCH   3  16
BRANCH   4  18
HETATM   18  C8  UNL     1      10.999  23.142   1.988  1.00  0.00     0.216 C 
BRANCH  18  19
HETATM   19  O2  UNL     1      10.447  22.033   2.613  1.00  0.00    -0.287 OA
BRANCH  19  20
HETATM   20  P1  UNL     1      11.109  21.590   3.948  1.00  0.00     0.418 P 
HETATM   21  O3  UNL     1      10.795  20.028   3.452  1.00  0.00    -0.624 OA
HETATM   22  O4  UNL     1      12.489  22.344   3.513  1.00  0.00    -0.624 OA
BRANCH  20  23
HETATM   23  O5  UNL     1      11.787  21.028   5.176  1.00  0.00    -0.173 OA
BRANCH  23  24
HETATM   24  P2  UNL     1      11.395  21.211   6.653  1.00  0.00     0.431 P 
HETATM   25  O6  UNL     1      12.098  19.726   6.963  1.00  0.00    -0.616 OA
HETATM   26  O7  UNL     1       9.818  21.295   6.411  1.00  0.00    -0.616 OA
HETATM   27  O8  UNL     1      11.386  21.464   8.179  1.00  0.00    -0.616 OA
ENDBRANCH  23  24
ENDBRANCH  20  23
ENDBRANCH  19  20
ENDBRANCH  18  19
ENDBRANCH   4  18
TORSDOF 7
ENDMDL
