MODEL 1
REMARK VINA RESULT: -9.307477641      0.000      0.000
REMARK  7 active torsions:
REMARK  status: ('A' for Active; 'I' for Inactive)
REMARK    1  A    between atoms: N1_4  and  C4_5 
REMARK    2  A    between atoms: C6_7  and  O1_8 
REMARK    3  A    between atoms: C7_10  and  C8_11 
REMARK    4  A    between atoms: C8_11  and  O2_12 
REMARK    5  A    between atoms: O2_12  and  P1_13 
REMARK    6  A    between atoms: P1_13  and  O5_16 
REMARK    7  A    between atoms: O5_16  and  P2_17 
ROOT
HETATM    1  C4  UNL     1       8.297  24.097  -0.122  1.00  0.00     0.235 C 
HETATM    2  C5  UNL     1       7.574  24.360   1.172  1.00  0.00     0.088 C 
HETATM    3  C6  UNL     1       8.497  23.668   2.174  1.00  0.00     0.153 C 
HETATM    4  C7  UNL     1       9.830  23.914   1.470  1.00  0.00     0.177 C 
HETATM    5  O9  UNL     1       9.511  23.531   0.170  1.00  0.00    -0.356 OA
ENDROOT
BRANCH   1   6
HETATM    6  N1  UNL     1       7.458  23.229  -0.921  1.00  0.00    -0.282 N 
HETATM    7  C3  UNL     1       7.668  21.904  -1.012  1.00  0.00     0.110 A 
HETATM    8  C2  UNL     1       6.831  21.107  -1.796  1.00  0.00     0.022 A 
HETATM    9  C1  UNL     1       7.030  19.656  -1.920  1.00  0.00     0.056 C 
HETATM   10  C10 UNL     1       5.785  21.722  -2.473  1.00  0.00     0.256 A 
HETATM   11  N2  UNL     1       5.600  23.043  -2.363  1.00  0.00    -0.275 N 
HETATM   12  O11 UNL     1       5.041  20.979  -3.176  1.00  0.00    -0.267 OA
HETATM   13  C9  UNL     1       6.430  23.762  -1.599  1.00  0.00     0.331 A 
ATOM     14  H2  UNL     1       4.834  23.498  -2.858  1.00  0.00     0.173 HD
HETATM   15  O10 UNL     1       6.262  25.022  -1.488  1.00  0.00    -0.246 OA
ENDBRANCH   1   6
BRANCH   3  16
HETATM   16  O1  UNL     1       8.450  24.268   3.415  1.00  0.00    -0.393 OA
ATOM     17  H1  UNL     1       8.308  23.635   4.109  1.00  0.00     0.210 HD
ENDBRANCH   3  16
BRANCH   4  18
HETATM   18  C8  UNL     1      10.944  23.130   2.057  1.00  0.00     0.216 C 
BRANCH  18  19
HETATM   19  O2  UNL     1      10.385  22.348   3.057  1.00  0.00    -0.287 OA
BRANCH  19  20
HETATM   20  P1  UNL     1      11.259  21.179   3.592  1.00  0.00     0.418 P 
HETATM   21  O3  UNL     1      10.214  21.146   4.893  1.00  0.00    -0.624 OA
HETATM   22  O4  UNL     1      10.938  20.322   2.241  1.00  0.00    -0.624 OA
BRANCH  20  23
HETATM   23  O5  UNL     1      11.984  19.994   4.189  1.00  0.00    -0.173 OA
BRANCH  23  24
HETATM   24  P2  UNL     1      13.087  19.130   3.552  1.00  0.00     0.431 P 
HETATM   25  O6  UNL     1      12.331  17.789   4.207  1.00  0.00    -0.616 OA
HETATM   26  O7  UNL     1      14.311  19.796   4.332  1.00  0.00    -0.616 OA
HETATM   27  O8  UNL     1      13.906  18.165   2.663  1.00  0.00    -0.616 OA
ENDBRANCH  23  24
ENDBRANCH  20  23
ENDBRANCH  19  20
ENDBRANCH  18  19
ENDBRANCH   4  18
TORSDOF 7
ENDMDL
