MODEL 5
REMARK VINA RESULT: -8.899885094      0.987      1.163
REMARK  7 active torsions:
REMARK  status: ('A' for Active; 'I' for Inactive)
REMARK    1  A    between atoms: N1_4  and  C4_5 
REMARK    2  A    between atoms: C6_7  and  O1_8 
REMARK    3  A    between atoms: C7_10  and  C8_11 
REMARK    4  A    between atoms: C8_11  and  O2_12 
REMARK    5  A    between atoms: O2_12  and  P1_13 
REMARK    6  A    between atoms: P1_13  and  O5_16 
REMARK    7  A    between atoms: O5_16  and  P2_17 
ROOT
HETATM    1  C4  UNL     1       8.291  24.064  -0.101  1.00  0.00     0.235 C 
HETATM    2  C5  UNL     1       7.552  24.350   1.179  1.00  0.00     0.088 C 
HETATM    3  C6  UNL     1       8.446  23.648   2.201  1.00  0.00     0.153 C 
HETATM    4  C7  UNL     1       9.794  23.863   1.516  1.00  0.00     0.177 C 
HETATM    5  O9  UNL     1       9.489  23.476   0.214  1.00  0.00    -0.356 OA
ENDROOT
BRANCH   1   6
HETATM    6  N1  UNL     1       7.447  23.206  -0.907  1.00  0.00    -0.282 N 
HETATM    7  C3  UNL     1       7.647  21.879  -1.002  1.00  0.00     0.110 A 
HETATM    8  C2  UNL     1       6.806  21.093  -1.792  1.00  0.00     0.022 A 
HETATM    9  C1  UNL     1       6.992  19.639  -1.920  1.00  0.00     0.056 C 
HETATM   10  C10 UNL     1       5.769  21.719  -2.472  1.00  0.00     0.256 A 
HETATM   11  N2  UNL     1       5.596  23.042  -2.360  1.00  0.00    -0.275 N 
HETATM   12  O11 UNL     1       5.022  20.985  -3.181  1.00  0.00    -0.267 OA
HETATM   13  C9  UNL     1       6.429  23.750  -1.588  1.00  0.00     0.331 A 
ATOM     14  H2  UNL     1       4.836  23.505  -2.857  1.00  0.00     0.173 HD
HETATM   15  O10 UNL     1       6.272  25.011  -1.475  1.00  0.00    -0.246 OA
ENDBRANCH   1   6
BRANCH   3  16
HETATM   16  O1  UNL     1       8.391  24.258   3.436  1.00  0.00    -0.393 OA
ATOM     17  H1  UNL     1       9.166  24.076   3.956  1.00  0.00     0.210 HD
ENDBRANCH   3  16
BRANCH   4  18
HETATM   18  C8  UNL     1      10.884  23.062   2.127  1.00  0.00     0.216 C 
BRANCH  18  19
HETATM   19  O2  UNL     1      10.306  22.345   3.164  1.00  0.00    -0.287 OA
BRANCH  19  20
HETATM   20  P1  UNL     1      11.173  21.221   3.797  1.00  0.00     0.418 P 
HETATM   21  O3  UNL     1      10.053  21.211   5.034  1.00  0.00    -0.624 OA
HETATM   22  O4  UNL     1      10.955  20.305   2.465  1.00  0.00    -0.624 OA
BRANCH  20  23
HETATM   23  O5  UNL     1      11.889  20.080   4.483  1.00  0.00    -0.173 OA
BRANCH  23  24
HETATM   24  P2  UNL     1      13.176  20.128   5.325  1.00  0.00     0.431 P 
HETATM   25  O6  UNL     1      12.257  19.678   6.647  1.00  0.00    -0.616 OA
HETATM   26  O7  UNL     1      13.493  21.674   5.082  1.00  0.00    -0.616 OA
HETATM   27  O8  UNL     1      14.436  19.783   6.153  1.00  0.00    -0.616 OA
ENDBRANCH  23  24
ENDBRANCH  20  23
ENDBRANCH  19  20
ENDBRANCH  18  19
ENDBRANCH   4  18
TORSDOF 7
ENDMDL
