MODEL 13
REMARK VINA RESULT: -8.262857477      1.987      6.059
REMARK  0 active torsions:
REMARK  status: ('A' for Active; 'I' for Inactive)
ROOT
HETATM    1  N1  UNL     1       4.268  -7.524  10.778  1.00  0.00    -0.102 NA
HETATM    2  C1  UNL     1       5.523  -7.267  10.194  1.00  0.00     0.048 A 
HETATM    3  C2  UNL     1       5.678  -6.812   8.895  1.00  0.00     0.027 A 
HETATM    4  C3  UNL     1       6.941  -6.580   8.389  1.00  0.00     0.015 A 
HETATM    5  C4  UNL     1       8.090  -6.788   9.134  1.00  0.00    -0.009 A 
HETATM    6  C5  UNL     1       9.332  -6.543   8.584  1.00  0.00     0.027 A 
HETATM    7  C6  UNL     1      10.464  -6.754   9.340  1.00  0.00    -0.009 A 
HETATM    8  C7  UNL     1      11.736  -6.531   8.857  1.00  0.00     0.015 A 
HETATM    9  C8  UNL     1      12.824  -6.765   9.673  1.00  0.00     0.027 A 
HETATM   10  C9  UNL     1      12.692  -7.219  10.971  1.00  0.00     0.048 A 
HETATM   11  N2  UNL     1      13.813  -7.460  11.809  1.00  0.00    -0.102 NA
HETATM   12  C10 UNL     1      11.411  -7.432  11.421  1.00  0.00     0.056 A 
HETATM   13  C11 UNL     1      10.295  -7.207  10.631  1.00  0.00     0.044 A 
HETATM   14  N3  UNL     1       9.052  -7.442  11.148  1.00  0.00    -0.355 N 
ATOM     15  H3  UNL     1       8.969  -7.778  12.108  1.00  0.00     0.166 HD
HETATM   16  C12 UNL     1       7.935  -7.241  10.428  1.00  0.00     0.044 A 
HETATM   17  C13 UNL     1       6.671  -7.471  10.933  1.00  0.00     0.056 A 
ENDROOT
TORSDOF 0
ENDMDL
