MODEL 14
REMARK VINA RESULT: -8.186544577      2.427      3.981
REMARK  0 active torsions:
REMARK  status: ('A' for Active; 'I' for Inactive)
ROOT
HETATM    1  N1  UNL     1       9.007  -8.230  10.952  1.00  0.00    -0.102 NA
HETATM    2  C1  UNL     1       8.206  -7.601   9.980  1.00  0.00     0.048 A 
HETATM    3  C2  UNL     1       6.830  -7.742   9.922  1.00  0.00     0.027 A 
HETATM    4  C3  UNL     1       6.109  -7.093   8.940  1.00  0.00     0.015 A 
HETATM    5  C4  UNL     1       6.710  -6.288   7.986  1.00  0.00    -0.009 A 
HETATM    6  C5  UNL     1       5.946  -5.660   7.022  1.00  0.00     0.027 A 
HETATM    7  C6  UNL     1       6.561  -4.863   6.081  1.00  0.00    -0.009 A 
HETATM    8  C7  UNL     1       5.863  -4.206   5.091  1.00  0.00     0.015 A 
HETATM    9  C8  UNL     1       6.546  -3.424   4.182  1.00  0.00     0.027 A 
HETATM   10  C9  UNL     1       7.918  -3.270   4.222  1.00  0.00     0.048 A 
HETATM   11  N2  UNL     1       8.619  -2.465   3.286  1.00  0.00    -0.102 NA
HETATM   12  C10 UNL     1       8.584  -3.939   5.221  1.00  0.00     0.056 A 
HETATM   13  C11 UNL     1       7.931  -4.732   6.151  1.00  0.00     0.044 A 
HETATM   14  N3  UNL     1       8.661  -5.367   7.117  1.00  0.00    -0.355 N 
ATOM     15  H3  UNL     1       9.673  -5.245   7.134  1.00  0.00     0.166 HD
HETATM   16  C12 UNL     1       8.081  -6.148   8.044  1.00  0.00     0.044 A 
HETATM   17  C13 UNL     1       8.801  -6.797   9.028  1.00  0.00     0.056 A 
ENDROOT
TORSDOF 0
ENDMDL
