MODEL 12
REMARK VINA RESULT: -8.314438297      1.736      2.520
REMARK  0 active torsions:
REMARK  status: ('A' for Active; 'I' for Inactive)
ROOT
HETATM    1  N1  UNL     1      13.806  -7.600  11.797  1.00  0.00    -0.102 NA
HETATM    2  C1  UNL     1      12.776  -7.280  10.891  1.00  0.00     0.048 A 
HETATM    3  C2  UNL     1      13.010  -6.811   9.610  1.00  0.00     0.027 A 
HETATM    4  C3  UNL     1      11.949  -6.518   8.776  1.00  0.00     0.015 A 
HETATM    5  C4  UNL     1      10.631  -6.673   9.169  1.00  0.00    -0.009 A 
HETATM    6  C5  UNL     1       9.603  -6.366   8.299  1.00  0.00     0.027 A 
HETATM    7  C6  UNL     1       8.297  -6.527   8.707  1.00  0.00    -0.009 A 
HETATM    8  C7  UNL     1       7.221  -6.241   7.894  1.00  0.00     0.015 A 
HETATM    9  C8  UNL     1       5.940  -6.427   8.370  1.00  0.00     0.027 A 
HETATM   10  C9  UNL     1       5.685  -6.893   9.645  1.00  0.00     0.048 A 
HETATM   11  N2  UNL     1       4.365  -7.084  10.134  1.00  0.00    -0.102 NA
HETATM   12  C10 UNL     1       6.779  -7.168  10.430  1.00  0.00     0.056 A 
HETATM   13  C11 UNL     1       8.079  -6.995   9.985  1.00  0.00     0.044 A 
HETATM   14  N3  UNL     1       9.117  -7.290  10.824  1.00  0.00    -0.355 N 
ATOM     15  H3  UNL     1       8.914  -7.633  11.763  1.00  0.00     0.166 HD
HETATM   16  C12 UNL     1      10.399  -7.141  10.446  1.00  0.00     0.044 A 
HETATM   17  C13 UNL     1      11.460  -7.434  11.279  1.00  0.00     0.056 A 
ENDROOT
TORSDOF 0
ENDMDL
