MODEL 9
REMARK VINA RESULT: -8.362655905      1.340      6.004
REMARK  0 active torsions:
REMARK  status: ('A' for Active; 'I' for Inactive)
ROOT
HETATM    1  N1  UNL     1       3.960  -6.311   8.930  1.00  0.00    -0.102 NA
HETATM    2  C1  UNL     1       5.314  -6.200   8.557  1.00  0.00     0.048 A 
HETATM    3  C2  UNL     1       5.726  -5.663   7.349  1.00  0.00     0.027 A 
HETATM    4  C3  UNL     1       7.072  -5.585   7.050  1.00  0.00     0.015 A 
HETATM    5  C4  UNL     1       8.053  -6.032   7.920  1.00  0.00    -0.009 A 
HETATM    6  C5  UNL     1       9.387  -5.934   7.576  1.00  0.00     0.027 A 
HETATM    7  C6  UNL     1      10.349  -6.382   8.454  1.00  0.00    -0.009 A 
HETATM    8  C7  UNL     1      11.698  -6.317   8.178  1.00  0.00     0.015 A 
HETATM    9  C8  UNL     1      12.605  -6.786   9.106  1.00  0.00     0.027 A 
HETATM   10  C9  UNL     1      12.215  -7.326  10.315  1.00  0.00     0.048 A 
HETATM   11  N2  UNL     1      13.150  -7.809  11.269  1.00  0.00    -0.102 NA
HETATM   12  C10 UNL     1      10.863  -7.378  10.559  1.00  0.00     0.056 A 
HETATM   13  C11 UNL     1       9.923  -6.915   9.651  1.00  0.00     0.044 A 
HETATM   14  N3  UNL     1       8.596  -7.000   9.964  1.00  0.00    -0.355 N 
ATOM     15  H3  UNL     1       8.321  -7.401  10.860  1.00  0.00     0.166 HD
HETATM   16  C12 UNL     1       7.641  -6.567   9.123  1.00  0.00     0.044 A 
HETATM   17  C13 UNL     1       6.294  -6.643   9.421  1.00  0.00     0.056 A 
ENDROOT
TORSDOF 0
ENDMDL
