MODEL 10
REMARK VINA RESULT: -8.357559534      2.189      5.576
REMARK  0 active torsions:
REMARK  status: ('A' for Active; 'I' for Inactive)
ROOT
HETATM    1  N1  UNL     1       8.561  -2.508   3.240  1.00  0.00    -0.102 NA
HETATM    2  C1  UNL     1       8.034  -3.316   4.267  1.00  0.00     0.048 A 
HETATM    3  C2  UNL     1       6.678  -3.542   4.434  1.00  0.00     0.027 A 
HETATM    4  C3  UNL     1       6.233  -4.347   5.464  1.00  0.00     0.015 A 
HETATM    5  C4  UNL     1       7.098  -4.953   6.360  1.00  0.00    -0.009 A 
HETATM    6  C5  UNL     1       6.605  -5.750   7.374  1.00  0.00     0.027 A 
HETATM    7  C6  UNL     1       7.480  -6.345   8.256  1.00  0.00    -0.009 A 
HETATM    8  C7  UNL     1       7.060  -7.152   9.292  1.00  0.00     0.015 A 
HETATM    9  C8  UNL     1       7.994  -7.715  10.137  1.00  0.00     0.027 A 
HETATM   10  C9  UNL     1       9.351  -7.502   9.988  1.00  0.00     0.048 A 
HETATM   11  N2  UNL     1      10.311  -8.083  10.858  1.00  0.00    -0.102 NA
HETATM   12  C10 UNL     1       9.736  -6.693   8.946  1.00  0.00     0.056 A 
HETATM   13  C11 UNL     1       8.826  -6.111   8.077  1.00  0.00     0.044 A 
HETATM   14  N3  UNL     1       9.285  -5.317   7.064  1.00  0.00    -0.355 N 
ATOM     15  H3  UNL     1      10.289  -5.168   6.966  1.00  0.00     0.166 HD
HETATM   16  C12 UNL     1       8.448  -4.727   6.192  1.00  0.00     0.044 A 
HETATM   17  C13 UNL     1       8.892  -3.923   5.161  1.00  0.00     0.056 A 
ENDROOT
TORSDOF 0
ENDMDL
