MODEL 3
REMARK VINA RESULT: -6.183595246      2.905      6.410
REMARK  1 active torsions:
REMARK  status: ('A' for Active; 'I' for Inactive)
REMARK    1  A    between atoms: C5_8  and  C6_9 
ROOT
HETATM    1  N1  UNL     1      11.369 -17.344  24.556  1.00  0.00    -0.063 NA
HETATM    2  C1  UNL     1      10.109 -17.989  24.740  1.00  0.00     0.193 A 
HETATM    3  N2  UNL     1       9.362 -17.757  25.841  1.00  0.00    -0.340 N 
ATOM      4  H2  UNL     1       9.731 -17.104  26.533  1.00  0.00     0.167 HD
HETATM    5  C2  UNL     1       8.173 -18.318  26.092  1.00  0.00     0.106 A 
HETATM    6  C3  UNL     1       7.667 -19.206  25.154  1.00  0.00     0.025 A 
HETATM    7  C4  UNL     1       6.445 -19.801  25.384  1.00  0.00     0.032 A 
HETATM    8  C5  UNL     1       5.991 -20.676  24.417  1.00  0.00     0.019 A 
HETATM    9  C12 UNL     1       6.728 -20.935  23.284  1.00  0.00     0.129 A 
HETATM   10  N3  UNL     1       6.282 -21.842  22.255  1.00  0.00    -0.082 NA
HETATM   11  N4  UNL     1       7.911 -20.321  23.123  1.00  0.00    -0.329 N 
ATOM     12  H4  UNL     1       8.449 -20.521  22.280  1.00  0.00     0.168 HD
HETATM   13  C13 UNL     1       8.430 -19.445  24.029  1.00  0.00     0.120 A 
HETATM   14  N5  UNL     1       9.616 -18.851  23.833  1.00  0.00    -0.316 N 
ATOM     15  H5  UNL     1      10.150 -19.056  22.987  1.00  0.00     0.170 HD
ENDROOT
BRANCH   8  16
HETATM   16  C6  UNL     1       4.722 -21.331  24.596  1.00  0.00     0.012 A 
HETATM   17  C7  UNL     1       4.712 -22.650  24.991  1.00  0.00     0.023 A 
HETATM   18 BR1  UNL     1       6.351 -23.618  25.304  1.00  0.00    -0.050 Br
HETATM   19  C8  UNL     1       3.493 -23.272  25.161  1.00  0.00     0.020 A 
HETATM   20  C9  UNL     1       2.307 -22.598  24.943  1.00  0.00     0.003 A 
HETATM   21  C10 UNL     1       2.359 -21.273  24.546  1.00  0.00     0.020 A 
HETATM   22  C11 UNL     1       3.561 -20.625  24.369  1.00  0.00     0.023 A 
HETATM   23 BR2  UNL     1       3.614 -18.776  23.815  1.00  0.00    -0.050 Br
ENDBRANCH   8  16
TORSDOF 1
ENDMDL
