MODEL 7
REMARK VINA RESULT: -6.004839532      2.544      6.070
REMARK  1 active torsions:
REMARK  status: ('A' for Active; 'I' for Inactive)
REMARK    1  A    between atoms: C5_8  and  C6_9 
ROOT
HETATM    1  N1  UNL     1       8.649 -17.503  25.108  1.00  0.00    -0.063 NA
HETATM    2  C1  UNL     1       7.793 -18.636  25.255  1.00  0.00     0.193 A 
HETATM    3  N2  UNL     1       7.956 -19.504  26.276  1.00  0.00    -0.340 N 
ATOM      4  H2  UNL     1       8.710 -19.320  26.938  1.00  0.00     0.167 HD
HETATM    5  C2  UNL     1       7.199 -20.588  26.486  1.00  0.00     0.106 A 
HETATM    6  C3  UNL     1       6.172 -20.843  25.590  1.00  0.00     0.025 A 
HETATM    7  C4  UNL     1       5.376 -21.953  25.779  1.00  0.00     0.032 A 
HETATM    8  C5  UNL     1       4.370 -22.157  24.856  1.00  0.00     0.019 A 
HETATM    9  C12 UNL     1       4.178 -21.291  23.804  1.00  0.00     0.129 A 
HETATM   10  N3  UNL     1       3.136 -21.475  22.823  1.00  0.00    -0.082 NA
HETATM   11  N4  UNL     1       4.990 -20.229  23.678  1.00  0.00    -0.329 N 
ATOM     12  H4  UNL     1       4.840 -19.594  22.894  1.00  0.00     0.168 HD
HETATM   13  C13 UNL     1       6.006 -19.957  24.545  1.00  0.00     0.120 A 
HETATM   14  N5  UNL     1       6.797 -18.886  24.386  1.00  0.00    -0.316 N 
ATOM     15  H5  UNL     1       6.641 -18.255  23.600  1.00  0.00     0.170 HD
ENDROOT
BRANCH   8  16
HETATM   16  C6  UNL     1       3.502 -23.297  24.996  1.00  0.00     0.012 A 
HETATM   17  C7  UNL     1       3.937 -24.516  24.526  1.00  0.00     0.023 A 
HETATM   18 BR1  UNL     1       5.666 -24.714  23.693  1.00  0.00    -0.050 Br
HETATM   19  C8  UNL     1       3.103 -25.605  24.663  1.00  0.00     0.020 A 
HETATM   20  C9  UNL     1       1.860 -25.486  25.255  1.00  0.00     0.003 A 
HETATM   21  C10 UNL     1       1.459 -24.244  25.715  1.00  0.00     0.020 A 
HETATM   22  C11 UNL     1       2.271 -23.138  25.593  1.00  0.00     0.023 A 
HETATM   23 BR2  UNL     1       1.696 -21.413  26.241  1.00  0.00    -0.050 Br
ENDBRANCH   8  16
TORSDOF 1
ENDMDL
