MODEL 1
REMARK VINA RESULT: -7.667896584      0.000      0.000
REMARK  1 active torsions:
REMARK  status: ('A' for Active; 'I' for Inactive)
REMARK    1  A    between atoms: C5_8  and  C6_9 
ROOT
HETATM    1  N1  UNL     1       1.075 -26.787  24.762  1.00  0.00    -0.063 NA
HETATM    2  C1  UNL     1       1.801 -25.573  24.948  1.00  0.00     0.193 A 
HETATM    3  N2  UNL     1       1.571 -24.781  26.018  1.00  0.00    -0.340 N 
ATOM      4  H2  UNL     1       0.862 -25.083  26.686  1.00  0.00     0.167 HD
HETATM    5  C2  UNL     1       2.206 -23.630  26.268  1.00  0.00     0.106 A 
HETATM    6  C3  UNL     1       3.171 -23.214  25.363  1.00  0.00     0.025 A 
HETATM    7  C4  UNL     1       3.842 -22.031  25.593  1.00  0.00     0.032 A 
HETATM    8  C5  UNL     1       4.792 -21.667  24.659  1.00  0.00     0.019 A 
HETATM    9  C12 UNL     1       5.049 -22.452  23.558  1.00  0.00     0.129 A 
HETATM   10  N3  UNL     1       6.035 -22.100  22.565  1.00  0.00    -0.082 NA
HETATM   11  N4  UNL     1       4.359 -23.592  23.395  1.00  0.00    -0.329 N 
ATOM     12  H4  UNL     1       4.558 -24.165  22.575  1.00  0.00     0.168 HD
HETATM   13  C13 UNL     1       3.406 -24.021  24.270  1.00  0.00     0.120 A 
HETATM   14  N5  UNL     1       2.737 -25.167  24.072  1.00  0.00    -0.316 N 
ATOM     15  H5  UNL     1       2.940 -25.735  23.249  1.00  0.00     0.170 HD
ENDROOT
BRANCH   8  16
HETATM   16  C6  UNL     1       5.528 -20.444  24.840  1.00  0.00     0.012 A 
HETATM   17  C7  UNL     1       6.778 -20.507  25.416  1.00  0.00     0.023 A 
HETATM   18 BR1  UNL     1       7.543 -22.188  25.974  1.00  0.00    -0.050 Br
HETATM   19  C8  UNL     1       7.479 -19.333  25.586  1.00  0.00     0.020 A 
HETATM   20  C9  UNL     1       6.951 -18.118  25.194  1.00  0.00     0.003 A 
HETATM   21  C10 UNL     1       5.692 -18.096  24.620  1.00  0.00     0.020 A 
HETATM   22  C11 UNL     1       4.967 -19.253  24.436  1.00  0.00     0.023 A 
HETATM   23 BR2  UNL     1       3.213 -19.203  23.633  1.00  0.00    -0.050 Br
ENDBRANCH   8  16
TORSDOF 1
ENDMDL
