MODEL 4
REMARK VINA RESULT: -6.172924852      2.919      6.726
REMARK  1 active torsions:
REMARK  status: ('A' for Active; 'I' for Inactive)
REMARK    1  A    between atoms: C5_8  and  C6_9 
ROOT
HETATM    1  N1  UNL     1      11.370 -17.302  24.576  1.00  0.00    -0.063 NA
HETATM    2  C1  UNL     1      10.115 -17.955  24.763  1.00  0.00     0.193 A 
HETATM    3  N2  UNL     1       9.376 -17.741  25.873  1.00  0.00    -0.340 N 
ATOM      4  H2  UNL     1       9.748 -17.096  26.571  1.00  0.00     0.167 HD
HETATM    5  C2  UNL     1       8.193 -18.311  26.126  1.00  0.00     0.106 A 
HETATM    6  C3  UNL     1       7.683 -19.189  25.180  1.00  0.00     0.025 A 
HETATM    7  C4  UNL     1       6.465 -19.792  25.413  1.00  0.00     0.032 A 
HETATM    8  C5  UNL     1       6.007 -20.656  24.437  1.00  0.00     0.019 A 
HETATM    9  C12 UNL     1       6.736 -20.896  23.295  1.00  0.00     0.129 A 
HETATM   10  N3  UNL     1       6.286 -21.792  22.257  1.00  0.00    -0.082 NA
HETATM   11  N4  UNL     1       7.915 -20.275  23.132  1.00  0.00    -0.329 N 
ATOM     12  H4  UNL     1       8.447 -20.461  22.282  1.00  0.00     0.168 HD
HETATM   13  C13 UNL     1       8.437 -19.409  24.046  1.00  0.00     0.120 A 
HETATM   14  N5  UNL     1       9.619 -18.807  23.848  1.00  0.00    -0.316 N 
ATOM     15  H5  UNL     1      10.146 -18.998  22.995  1.00  0.00     0.170 HD
ENDROOT
BRANCH   8  16
HETATM   16  C6  UNL     1       4.743 -21.319  24.618  1.00  0.00     0.012 A 
HETATM   17  C7  UNL     1       3.587 -20.606  24.388  1.00  0.00     0.023 A 
HETATM   18 BR1  UNL     1       3.640 -18.758  23.836  1.00  0.00    -0.050 Br
HETATM   19  C8  UNL     1       2.378 -21.245  24.562  1.00  0.00     0.020 A 
HETATM   20  C9  UNL     1       2.317 -22.568  24.957  1.00  0.00     0.003 A 
HETATM   21  C10 UNL     1       3.500 -23.251  25.178  1.00  0.00     0.020 A 
HETATM   22  C11 UNL     1       4.723 -22.639  25.012  1.00  0.00     0.023 A 
HETATM   23 BR2  UNL     1       6.363 -23.607  25.325  1.00  0.00    -0.050 Br
ENDBRANCH   8  16
TORSDOF 1
ENDMDL
