MODEL 2
REMARK VINA RESULT: -7.653863279      0.013      2.112
REMARK  1 active torsions:
REMARK  status: ('A' for Active; 'I' for Inactive)
REMARK    1  A    between atoms: C5_8  and  C6_9 
ROOT
HETATM    1  N1  UNL     1       1.061 -26.780  24.760  1.00  0.00    -0.063 NA
HETATM    2  C1  UNL     1       1.790 -25.568  24.948  1.00  0.00     0.193 A 
HETATM    3  N2  UNL     1       1.563 -24.776  26.019  1.00  0.00    -0.340 N 
ATOM      4  H2  UNL     1       0.853 -25.078  26.687  1.00  0.00     0.167 HD
HETATM    5  C2  UNL     1       2.201 -23.627  26.270  1.00  0.00     0.106 A 
HETATM    6  C3  UNL     1       3.167 -23.213  25.365  1.00  0.00     0.025 A 
HETATM    7  C4  UNL     1       3.841 -22.032  25.596  1.00  0.00     0.032 A 
HETATM    8  C5  UNL     1       4.791 -21.670  24.662  1.00  0.00     0.019 A 
HETATM    9  C12 UNL     1       5.046 -22.454  23.560  1.00  0.00     0.129 A 
HETATM   10  N3  UNL     1       6.033 -22.104  22.567  1.00  0.00    -0.082 NA
HETATM   11  N4  UNL     1       4.353 -23.592  23.396  1.00  0.00    -0.329 N 
ATOM     12  H4  UNL     1       4.550 -24.164  22.575  1.00  0.00     0.168 HD
HETATM   13  C13 UNL     1       3.399 -24.020  24.271  1.00  0.00     0.120 A 
HETATM   14  N5  UNL     1       2.727 -25.163  24.072  1.00  0.00    -0.316 N 
ATOM     15  H5  UNL     1       2.929 -25.731  23.248  1.00  0.00     0.170 HD
ENDROOT
BRANCH   8  16
HETATM   16  C6  UNL     1       5.531 -20.449  24.844  1.00  0.00     0.012 A 
HETATM   17  C7  UNL     1       4.958 -19.265  24.436  1.00  0.00     0.023 A 
HETATM   18 BR1  UNL     1       3.203 -19.222  23.636  1.00  0.00    -0.050 Br
HETATM   19  C8  UNL     1       5.670 -18.098  24.613  1.00  0.00     0.020 A 
HETATM   20  C9  UNL     1       6.929 -18.106  25.184  1.00  0.00     0.003 A 
HETATM   21  C10 UNL     1       7.471 -19.316  25.581  1.00  0.00     0.020 A 
HETATM   22  C11 UNL     1       6.782 -20.498  25.418  1.00  0.00     0.023 A 
HETATM   23 BR2  UNL     1       7.554 -22.176  25.978  1.00  0.00    -0.050 Br
ENDBRANCH   8  16
TORSDOF 1
ENDMDL
