MODEL 4
REMARK VINA RESULT: -6.540477740      4.320      7.702
REMARK  3 active torsions:
REMARK  status: ('A' for Active; 'I' for Inactive)
REMARK    1  A    between atoms: O1_2  and  C2_3 
REMARK    2  A    between atoms: C6_7  and  O2_8 
REMARK    3  A    between atoms: C8_10  and  C9_11 
ROOT
HETATM    1  C9  UNL     1       8.493 -19.361  24.305  1.00  0.00     0.022 A 
HETATM    2  C10 UNL     1       9.335 -19.402  23.189  1.00  0.00     0.032 A 
HETATM    3  C11 UNL     1      10.460 -18.619  23.110  1.00  0.00     0.025 A 
HETATM    4  C12 UNL     1      11.324 -18.617  22.039  1.00  0.00     0.106 A 
HETATM    5  N1  UNL     1      12.415 -17.828  22.012  1.00  0.00    -0.340 N 
ATOM      6  H1  UNL     1      13.032 -17.852  21.201  1.00  0.00     0.167 HD
HETATM    7  C13 UNL     1      12.704 -17.005  23.039  1.00  0.00     0.193 A 
HETATM    8  N2  UNL     1      13.866 -16.168  23.005  1.00  0.00    -0.063 NA
HETATM    9  N3  UNL     1      11.861 -17.005  24.087  1.00  0.00    -0.316 N 
ATOM     10  H3  UNL     1      12.068 -16.388  24.872  1.00  0.00     0.170 HD
HETATM   11  C14 UNL     1      10.760 -17.775  24.159  1.00  0.00     0.120 A 
HETATM   12  N4  UNL     1       9.935 -17.741  25.241  1.00  0.00    -0.329 N 
ATOM     13  H4  UNL     1      10.163 -17.114  26.013  1.00  0.00     0.168 HD
HETATM   14  C15 UNL     1       8.831 -18.503  25.330  1.00  0.00     0.129 A 
HETATM   15  N5  UNL     1       7.967 -18.464  26.471  1.00  0.00    -0.082 NA
ENDROOT
BRANCH   1  16
HETATM   16  C8  UNL     1       7.293 -20.198  24.386  1.00  0.00     0.044 A 
HETATM   17  C2  UNL     1       7.363 -21.573  24.544  1.00  0.00     0.082 A 
HETATM   18  C3  UNL     1       6.193 -22.331  24.616  1.00  0.00     0.038 A 
HETATM   19  C4  UNL     1       4.952 -21.744  24.535  1.00  0.00     0.005 A 
HETATM   20  C5  UNL     1       4.901 -20.370  24.379  1.00  0.00     0.038 A 
HETATM   21  C6  UNL     1       6.035 -19.593  24.303  1.00  0.00     0.082 A 
BRANCH  17  22
HETATM   22  O1  UNL     1       8.616 -22.163  24.625  1.00  0.00    -0.355 OA
HETATM   23  C1  UNL     1       9.127 -22.808  23.454  1.00  0.00     0.210 C 
ENDBRANCH  17  22
BRANCH  21  24
HETATM   24  O2  UNL     1       6.005 -18.213  24.146  1.00  0.00    -0.355 OA
HETATM   25  C7  UNL     1       4.733 -17.582  24.157  1.00  0.00     0.210 C 
ENDBRANCH  21  24
ENDBRANCH   1  16
TORSDOF 3
ENDMDL
