MODEL 1
REMARK VINA RESULT: -7.518460965      0.000      0.000
REMARK  3 active torsions:
REMARK  status: ('A' for Active; 'I' for Inactive)
REMARK    1  A    between atoms: O1_2  and  C2_3 
REMARK    2  A    between atoms: C6_7  and  O2_8 
REMARK    3  A    between atoms: C8_10  and  C9_11 
ROOT
HETATM    1  C9  UNL     1       5.083 -21.483  24.459  1.00  0.00     0.022 A 
HETATM    2  C10 UNL     1       4.099 -21.832  25.389  1.00  0.00     0.032 A 
HETATM    3  C11 UNL     1       3.285 -22.921  25.198  1.00  0.00     0.025 A 
HETATM    4  C12 UNL     1       2.300 -23.312  26.078  1.00  0.00     0.106 A 
HETATM    5  N1  UNL     1       1.529 -24.389  25.842  1.00  0.00    -0.340 N 
ATOM      6  H1  UNL     1       0.809 -24.648  26.516  1.00  0.00     0.167 HD
HETATM    7  C13 UNL     1       1.692 -25.132  24.729  1.00  0.00     0.193 A 
HETATM    8  N2  UNL     1       0.868 -26.278  24.484  1.00  0.00    -0.063 NA
HETATM    9  N3  UNL     1       2.653 -24.752  23.869  1.00  0.00    -0.316 N 
ATOM     10  H3  UNL     1       2.788 -25.306  23.023  1.00  0.00     0.170 HD
HETATM   11  C14 UNL     1       3.448 -23.684  24.061  1.00  0.00     0.120 A 
HETATM   12  N4  UNL     1       4.408 -23.337  23.161  1.00  0.00    -0.329 N 
ATOM     13  H4  UNL     1       4.523 -23.906  22.322  1.00  0.00     0.168 HD
HETATM   14  C15 UNL     1       5.211 -22.274  23.336  1.00  0.00     0.129 A 
HETATM   15  N5  UNL     1       6.220 -21.914  22.387  1.00  0.00    -0.082 NA
ENDROOT
BRANCH   1  16
HETATM   16  C8  UNL     1       5.950 -20.320  24.666  1.00  0.00     0.044 A 
HETATM   17  C2  UNL     1       7.258 -20.445  25.106  1.00  0.00     0.082 A 
HETATM   18  C3  UNL     1       8.048 -19.309  25.290  1.00  0.00     0.038 A 
HETATM   19  C4  UNL     1       7.558 -18.047  25.042  1.00  0.00     0.005 A 
HETATM   20  C5  UNL     1       6.250 -17.942  24.602  1.00  0.00     0.038 A 
HETATM   21  C6  UNL     1       5.444 -19.042  24.412  1.00  0.00     0.082 A 
BRANCH  17  22
HETATM   22  O1  UNL     1       7.750 -21.718  25.355  1.00  0.00    -0.355 OA
HETATM   23  C1  UNL     1       8.899 -22.146  24.617  1.00  0.00     0.210 C 
ENDBRANCH  17  22
BRANCH  21  24
HETATM   24  O2  UNL     1       4.129 -18.956  23.972  1.00  0.00    -0.355 OA
HETATM   25  C7  UNL     1       3.552 -17.662  23.886  1.00  0.00     0.210 C 
ENDBRANCH  21  24
ENDBRANCH   1  16
TORSDOF 3
ENDMDL
