MODEL 3
REMARK VINA RESULT: -6.690720044      4.409      8.189
REMARK  3 active torsions:
REMARK  status: ('A' for Active; 'I' for Inactive)
REMARK    1  A    between atoms: O1_2  and  C2_3 
REMARK    2  A    between atoms: C6_7  and  O2_8 
REMARK    3  A    between atoms: C8_10  and  C9_11 
ROOT
HETATM    1  C9  UNL     1       8.577 -19.315  24.321  1.00  0.00     0.022 A 
HETATM    2  C10 UNL     1       9.371 -19.390  23.173  1.00  0.00     0.032 A 
HETATM    3  C11 UNL     1      10.508 -18.633  23.036  1.00  0.00     0.025 A 
HETATM    4  C12 UNL     1      11.327 -18.666  21.929  1.00  0.00     0.106 A 
HETATM    5  N1  UNL     1      12.432 -17.902  21.846  1.00  0.00    -0.340 N 
ATOM      6  H1  UNL     1      13.015 -17.951  21.010  1.00  0.00     0.167 HD
HETATM    7  C13 UNL     1      12.782 -17.071  22.848  1.00  0.00     0.193 A 
HETATM    8  N2  UNL     1      13.960 -16.261  22.753  1.00  0.00    -0.063 NA
HETATM    9  N3  UNL     1      11.984 -17.038  23.930  1.00  0.00    -0.316 N 
ATOM     10  H3  UNL     1      12.236 -16.414  24.696  1.00  0.00     0.170 HD
HETATM   11  C14 UNL     1      10.870 -17.782  24.059  1.00  0.00     0.120 A 
HETATM   12  N4  UNL     1      10.092 -17.715  25.173  1.00  0.00    -0.329 N 
ATOM     13  H4  UNL     1      10.365 -17.082  25.926  1.00  0.00     0.168 HD
HETATM   14  C15 UNL     1       8.976 -18.450  25.319  1.00  0.00     0.129 A 
HETATM   15  N5  UNL     1       8.161 -18.376  26.493  1.00  0.00    -0.082 NA
ENDROOT
BRANCH   1  16
HETATM   16  C8  UNL     1       7.363 -20.124  24.464  1.00  0.00     0.044 A 
HETATM   17  C2  UNL     1       6.096 -19.580  24.337  1.00  0.00     0.082 A 
HETATM   18  C3  UNL     1       4.967 -20.389  24.481  1.00  0.00     0.038 A 
HETATM   19  C4  UNL     1       5.079 -21.733  24.750  1.00  0.00     0.005 A 
HETATM   20  C5  UNL     1       6.353 -22.260  24.872  1.00  0.00     0.038 A 
HETATM   21  C6  UNL     1       7.486 -21.490  24.736  1.00  0.00     0.082 A 
BRANCH  17  22
HETATM   22  O1  UNL     1       5.986 -18.224  24.066  1.00  0.00    -0.355 OA
HETATM   23  C1  UNL     1       4.704 -17.610  24.239  1.00  0.00     0.210 C 
ENDBRANCH  17  22
BRANCH  21  24
HETATM   24  O2  UNL     1       8.773 -21.999  24.857  1.00  0.00    -0.355 OA
HETATM   25  C7  UNL     1       9.279 -22.761  23.770  1.00  0.00     0.210 C 
ENDBRANCH  21  24
ENDBRANCH   1  16
TORSDOF 3
ENDMDL
