MODEL 5
REMARK VINA RESULT: -6.446533145      2.713      6.472
REMARK  3 active torsions:
REMARK  status: ('A' for Active; 'I' for Inactive)
REMARK    1  A    between atoms: O1_2  and  C2_3 
REMARK    2  A    between atoms: C6_7  and  O2_8 
REMARK    3  A    between atoms: C8_10  and  C9_11 
ROOT
HETATM    1  C9  UNL     1       4.315 -21.798  24.547  1.00  0.00     0.022 A 
HETATM    2  C10 UNL     1       5.543 -21.808  25.214  1.00  0.00     0.032 A 
HETATM    3  C11 UNL     1       6.388 -20.726  25.178  1.00  0.00     0.025 A 
HETATM    4  C12 UNL     1       7.608 -20.679  25.815  1.00  0.00     0.106 A 
HETATM    5  N1  UNL     1       8.399 -19.591  25.746  1.00  0.00    -0.340 N 
ATOM      6  H1  UNL     1       9.297 -19.593  26.229  1.00  0.00     0.167 HD
HETATM    7  C13 UNL     1       8.024 -18.500  25.049  1.00  0.00     0.193 A 
HETATM    8  N2  UNL     1       8.870 -17.346  24.981  1.00  0.00    -0.063 NA
HETATM    9  N3  UNL     1       6.832 -18.544  24.427  1.00  0.00    -0.316 N 
ATOM     10  H3  UNL     1       6.536 -17.725  23.896  1.00  0.00     0.170 HD
HETATM   11  C14 UNL     1       6.009 -19.607  24.466  1.00  0.00     0.120 A 
HETATM   12  N4  UNL     1       4.811 -19.606  23.819  1.00  0.00    -0.329 N 
ATOM     13  H4  UNL     1       4.537 -18.775  23.294  1.00  0.00     0.168 HD
HETATM   14  C15 UNL     1       3.976 -20.659  23.847  1.00  0.00     0.129 A 
HETATM   15  N5  UNL     1       2.717 -20.652  23.166  1.00  0.00    -0.082 NA
ENDROOT
BRANCH   1  16
HETATM   16  C8  UNL     1       3.415 -22.954  24.588  1.00  0.00     0.044 A 
HETATM   17  C2  UNL     1       2.403 -23.068  25.527  1.00  0.00     0.082 A 
HETATM   18  C3  UNL     1       1.570 -24.188  25.528  1.00  0.00     0.038 A 
HETATM   19  C4  UNL     1       1.726 -25.199  24.609  1.00  0.00     0.005 A 
HETATM   20  C5  UNL     1       2.741 -25.068  23.677  1.00  0.00     0.038 A 
HETATM   21  C6  UNL     1       3.581 -23.977  23.649  1.00  0.00     0.082 A 
BRANCH  17  22
HETATM   22  O1  UNL     1       2.248 -22.048  26.453  1.00  0.00    -0.355 OA
HETATM   23  C1  UNL     1       1.150 -21.146  26.276  1.00  0.00     0.210 C 
ENDBRANCH  17  22
BRANCH  21  24
HETATM   24  O2  UNL     1       4.606 -23.828  22.723  1.00  0.00    -0.355 OA
HETATM   25  C7  UNL     1       5.911 -24.216  23.125  1.00  0.00     0.210 C 
ENDBRANCH  21  24
ENDBRANCH   1  16
TORSDOF 3
ENDMDL
