MODEL 2
REMARK VINA RESULT: -7.441084618      0.111      2.750
REMARK  3 active torsions:
REMARK  status: ('A' for Active; 'I' for Inactive)
REMARK    1  A    between atoms: O1_2  and  C2_3 
REMARK    2  A    between atoms: C6_7  and  O2_8 
REMARK    3  A    between atoms: C8_10  and  C9_11 
ROOT
HETATM    1  C9  UNL     1       5.081 -21.445  24.491  1.00  0.00     0.022 A 
HETATM    2  C10 UNL     1       4.103 -21.811  25.421  1.00  0.00     0.032 A 
HETATM    3  C11 UNL     1       3.295 -22.903  25.221  1.00  0.00     0.025 A 
HETATM    4  C12 UNL     1       2.318 -23.310  26.101  1.00  0.00     0.106 A 
HETATM    5  N1  UNL     1       1.552 -24.390  25.855  1.00  0.00    -0.340 N 
ATOM      6  H1  UNL     1       0.836 -24.661  26.529  1.00  0.00     0.167 HD
HETATM    7  C13 UNL     1       1.714 -25.118  24.733  1.00  0.00     0.193 A 
HETATM    8  N2  UNL     1       0.896 -26.267  24.478  1.00  0.00    -0.063 NA
HETATM    9  N3  UNL     1       2.669 -24.722  23.873  1.00  0.00    -0.316 N 
ATOM     10  H3  UNL     1       2.803 -25.265  23.019  1.00  0.00     0.170 HD
HETATM   11  C14 UNL     1       3.458 -23.651  24.074  1.00  0.00     0.120 A 
HETATM   12  N4  UNL     1       4.412 -23.288  23.174  1.00  0.00    -0.329 N 
ATOM     13  H4  UNL     1       4.526 -23.846  22.327  1.00  0.00     0.168 HD
HETATM   14  C15 UNL     1       5.208 -22.221  23.358  1.00  0.00     0.129 A 
HETATM   15  N5  UNL     1       6.211 -21.844  22.409  1.00  0.00    -0.082 NA
ENDROOT
BRANCH   1  16
HETATM   16  C8  UNL     1       5.941 -20.279  24.708  1.00  0.00     0.044 A 
HETATM   17  C2  UNL     1       5.513 -18.988  24.444  1.00  0.00     0.082 A 
HETATM   18  C3  UNL     1       6.368 -17.906  24.666  1.00  0.00     0.038 A 
HETATM   19  C4  UNL     1       7.643 -18.087  25.147  1.00  0.00     0.005 A 
HETATM   20  C5  UNL     1       8.053 -19.384  25.406  1.00  0.00     0.038 A 
HETATM   21  C6  UNL     1       7.237 -20.472  25.198  1.00  0.00     0.082 A 
BRANCH  17  22
HETATM   22  O1  UNL     1       4.226 -18.807  23.959  1.00  0.00    -0.355 OA
HETATM   23  C1  UNL     1       3.704 -17.475  23.929  1.00  0.00     0.210 C 
ENDBRANCH  17  22
BRANCH  21  24
HETATM   24  O2  UNL     1       7.630 -21.780  25.450  1.00  0.00    -0.355 OA
HETATM   25  C7  UNL     1       8.768 -22.266  24.754  1.00  0.00     0.210 C 
ENDBRANCH  21  24
ENDBRANCH   1  16
TORSDOF 3
ENDMDL
