MODEL 18
REMARK VINA RESULT: -3.296890755      6.719      8.069
REMARK  6 active torsions:
REMARK  status: ('A' for Active; 'I' for Inactive)
REMARK    1  A    between atoms: O1_1  and  C1_3 
REMARK    2  A    between atoms: C1_3  and  C2_4 
REMARK    3  A    between atoms: C3_6  and  O3_7 
REMARK    4  A    between atoms: C4_9  and  O4_10 
REMARK    5  A    between atoms: C5_12  and  O5_13 
REMARK    6  A    between atoms: C6_15  and  O6_16 
ROOT
HETATM    1  C2  UNL     1      16.071   2.966  26.823  1.00  0.00     0.179 C 
HETATM    2  O2  UNL     1      16.154   4.186  26.236  1.00  0.00    -0.349 OA
HETATM    3  C3  UNL     1      17.218   4.978  26.591  1.00  0.00     0.288 C 
HETATM    4  C4  UNL     1      18.557   4.328  26.453  1.00  0.00     0.204 C 
HETATM    5  C5  UNL     1      18.363   2.872  26.091  1.00  0.00     0.183 C 
HETATM    6  C6  UNL     1      17.410   2.338  27.153  1.00  0.00     0.180 C 
ENDROOT
BRANCH   1   7
HETATM    7  C1  UNL     1      15.132   2.920  28.010  1.00  0.00     0.198 C 
BRANCH   7   8
HETATM    8  O1  UNL     1      13.912   2.363  27.628  1.00  0.00    -0.398 OA
ATOM      9  H1  UNL     1      13.821   2.401  26.683  1.00  0.00     0.209 HD
ENDBRANCH   7   8
ENDBRANCH   1   7
BRANCH   6  10
HETATM   10  O6  UNL     1      17.802   2.850  28.390  1.00  0.00    -0.390 OA
ATOM     11  H6  UNL     1      18.324   2.178  28.812  1.00  0.00     0.210 HD
ENDBRANCH   6  10
BRANCH   3  12
HETATM   12  O3  UNL     1      17.023   5.514  27.883  1.00  0.00    -0.369 OA
ATOM     13  H3  UNL     1      17.471   6.347  27.967  1.00  0.00     0.212 HD
ENDBRANCH   3  12
BRANCH   5  14
HETATM   14  O5  UNL     1      19.543   2.162  26.044  1.00  0.00    -0.390 OA
ATOM     15  H5  UNL     1      19.956   2.178  25.189  1.00  0.00     0.210 HD
ENDBRANCH   5  14
BRANCH   4  16
HETATM   16  O4  UNL     1      19.413   4.980  25.591  1.00  0.00    -0.388 OA
ATOM     17  H4  UNL     1      20.099   5.472  26.026  1.00  0.00     0.210 HD
ENDBRANCH   4  16
TORSDOF 6
ENDMDL
