MODEL 2
REMARK VINA RESULT: -3.962261779      1.058      1.113
REMARK  6 active torsions:
REMARK  status: ('A' for Active; 'I' for Inactive)
REMARK    1  A    between atoms: O1_1  and  C1_3 
REMARK    2  A    between atoms: C1_3  and  C2_4 
REMARK    3  A    between atoms: C3_6  and  O3_7 
REMARK    4  A    between atoms: C4_9  and  O4_10 
REMARK    5  A    between atoms: C5_12  and  O5_13 
REMARK    6  A    between atoms: C6_15  and  O6_16 
ROOT
HETATM    1  C2  UNL     1      10.199   9.705  25.619  1.00  0.00     0.179 C 
HETATM    2  O2  UNL     1      10.436   9.082  26.801  1.00  0.00    -0.349 OA
HETATM    3  C3  UNL     1      10.407   7.710  26.799  1.00  0.00     0.288 C 
HETATM    4  C4  UNL     1      11.286   7.066  25.775  1.00  0.00     0.204 C 
HETATM    5  C5  UNL     1      11.874   8.139  24.886  1.00  0.00     0.183 C 
HETATM    6  C6  UNL     1      10.670   8.936  24.401  1.00  0.00     0.180 C 
ENDROOT
BRANCH   1   7
HETATM    7  C1  UNL     1       8.771  10.182  25.453  1.00  0.00     0.198 C 
BRANCH   7   8
HETATM    8  O1  UNL     1       8.542  10.537  24.124  1.00  0.00    -0.398 OA
ATOM      9  H1  UNL     1       9.355  10.501  23.635  1.00  0.00     0.209 HD
ENDBRANCH   7   8
ENDBRANCH   1   7
BRANCH   6  10
HETATM   10  O6  UNL     1       9.654   8.038  24.073  1.00  0.00    -0.390 OA
ATOM     11  H6  UNL     1      10.076   7.226  23.821  1.00  0.00     0.210 HD
ENDBRANCH   6  10
BRANCH   3  12
HETATM   12  O3  UNL     1       9.075   7.245  26.718  1.00  0.00    -0.369 OA
ATOM     13  H3  UNL     1       8.466   7.957  26.870  1.00  0.00     0.212 HD
ENDBRANCH   3  12
BRANCH   5  14
HETATM   14  O5  UNL     1      12.619   7.632  23.843  1.00  0.00    -0.390 OA
ATOM     15  H5  UNL     1      12.998   8.306  23.291  1.00  0.00     0.210 HD
ENDBRANCH   5  14
BRANCH   4  16
HETATM   16  O4  UNL     1      12.245   6.229  26.304  1.00  0.00    -0.388 OA
ATOM     17  H4  UNL     1      12.804   6.641  26.952  1.00  0.00     0.210 HD
ENDBRANCH   4  16
TORSDOF 6
ENDMDL
