MODEL 1
REMARK VINA RESULT: -4.309187910      0.000      0.000
REMARK  6 active torsions:
REMARK  status: ('A' for Active; 'I' for Inactive)
REMARK    1  A    between atoms: O1_1  and  C1_3 
REMARK    2  A    between atoms: C1_3  and  C2_4 
REMARK    3  A    between atoms: C3_6  and  O3_7 
REMARK    4  A    between atoms: C4_9  and  O4_10 
REMARK    5  A    between atoms: C5_12  and  O5_13 
REMARK    6  A    between atoms: C6_15  and  O6_16 
ROOT
HETATM    1  C2  UNL     1      10.764   9.096  25.095  1.00  0.00     0.179 C 
HETATM    2  O2  UNL     1      10.749   8.816  26.422  1.00  0.00    -0.349 OA
HETATM    3  C3  UNL     1      10.798   7.493  26.780  1.00  0.00     0.288 C 
HETATM    4  C4  UNL     1      11.927   6.721  26.177  1.00  0.00     0.204 C 
HETATM    5  C5  UNL     1      12.649   7.602  25.181  1.00  0.00     0.183 C 
HETATM    6  C6  UNL     1      11.551   8.110  24.256  1.00  0.00     0.180 C 
ENDROOT
BRANCH   1   7
HETATM    7  C1  UNL     1       9.392   9.350  24.506  1.00  0.00     0.198 C 
BRANCH   7   8
HETATM    8  O1  UNL     1       9.493   9.528  23.127  1.00  0.00    -0.398 OA
ATOM      9  H1  UNL     1       9.090   8.795  22.677  1.00  0.00     0.209 HD
ENDBRANCH   7   8
ENDBRANCH   1   7
BRANCH   6  10
HETATM   10  O6  UNL     1      10.692   7.048  23.970  1.00  0.00    -0.390 OA
ATOM     11  H6  UNL     1      11.238   6.285  23.825  1.00  0.00     0.210 HD
ENDBRANCH   6  10
BRANCH   3  12
HETATM   12  O3  UNL     1       9.551   6.872  26.544  1.00  0.00    -0.369 OA
ATOM     13  H3  UNL     1       9.365   6.233  27.222  1.00  0.00     0.212 HD
ENDBRANCH   3  12
BRANCH   5  14
HETATM   14  O5  UNL     1      13.645   6.941  24.495  1.00  0.00    -0.390 OA
ATOM     15  H5  UNL     1      13.568   7.024  23.551  1.00  0.00     0.210 HD
ENDBRANCH   5  14
BRANCH   4  16
HETATM   16  O4  UNL     1      12.780   6.157  27.102  1.00  0.00    -0.388 OA
ATOM     17  H4  UNL     1      13.684   6.434  27.016  1.00  0.00     0.210 HD
ENDBRANCH   4  16
TORSDOF 6
ENDMDL
