MODEL 4
REMARK VINA RESULT: -7.124194458      2.109      3.046
REMARK  10 active torsions:
REMARK  status: ('A' for Active; 'I' for Inactive)
REMARK    1  A    between atoms: C2_2  and  C3_3 
REMARK    2  A    between atoms: C2_2  and  C12_18 
REMARK    3  A    between atoms: C3_3  and  C4_4 
REMARK    4  A    between atoms: C4_4  and  C5_5 
REMARK    5  A    between atoms: C4_4  and  C11_15 
REMARK    6  A    between atoms: C5_5  and  C6_6 
REMARK    7  A    between atoms: C6_6  and  C7_7 
REMARK    8  A    between atoms: C6_6  and  C10_12 
REMARK    9  A    between atoms: C7_7  and  C8_8 
REMARK   10  A    between atoms: C8_8  and  C9_9 
ROOT
HETATM    1  C4  UNL     1     115.145  42.447  49.682  1.00  0.00     0.088 C 
ENDROOT
BRANCH   1   2
HETATM    2  C3  UNL     1     114.984  43.866  50.241  1.00  0.00     0.030 C 
BRANCH   2   3
HETATM    3  C2  UNL     1     114.857  43.937  51.706  1.00  0.00     0.083 C 
HETATM    4  C1  UNL     1     113.620  44.658  52.192  1.00  0.00     0.021 C 
BRANCH   3   5
HETATM    5  C12 UNL     1     116.058  44.392  52.400  1.00  0.00     0.176 C 
HETATM    6  O7  UNL     1     116.992  43.613  52.717  1.00  0.00    -0.648 OA
HETATM    7  O8  UNL     1     116.196  45.726  52.732  1.00  0.00    -0.648 OA
ENDBRANCH   3   5
ENDBRANCH   2   3
ENDBRANCH   1   2
BRANCH   1   8
HETATM    8  C5  UNL     1     116.002  42.621  48.464  1.00  0.00     0.031 C 
BRANCH   8   9
HETATM    9  C6  UNL     1     115.804  41.742  47.303  1.00  0.00     0.088 C 
BRANCH   9  10
HETATM   10  C7  UNL     1     115.969  42.315  45.956  1.00  0.00     0.026 C 
BRANCH  10  11
HETATM   11  C8  UNL     1     114.794  42.084  45.015  1.00  0.00     0.114 C 
BRANCH  11  12
HETATM   12  C9  UNL     1     115.139  41.324  43.811  1.00  0.00     0.172 C 
HETATM   13  O1  UNL     1     114.182  40.973  43.064  1.00  0.00    -0.648 OA
HETATM   14  O2  UNL     1     116.399  40.968  43.436  1.00  0.00    -0.648 OA
ENDBRANCH  11  12
ENDBRANCH  10  11
ENDBRANCH   9  10
BRANCH   9  15
HETATM   15  C10 UNL     1     116.641  40.509  47.504  1.00  0.00     0.177 C 
HETATM   16  O3  UNL     1     117.309  40.033  46.566  1.00  0.00    -0.648 OA
HETATM   17  O4  UNL     1     116.683  39.883  48.738  1.00  0.00    -0.648 OA
ENDBRANCH   9  15
ENDBRANCH   8   9
ENDBRANCH   1   8
BRANCH   1  18
HETATM   18  C11 UNL     1     113.843  41.894  49.307  1.00  0.00     0.177 C 
HETATM   19  O5  UNL     1     113.645  40.643  49.384  1.00  0.00    -0.648 OA
HETATM   20  O6  UNL     1     112.830  42.693  48.875  1.00  0.00    -0.648 OA
ENDBRANCH   1  18
TORSDOF 10
ENDMDL
