MODEL 10
REMARK VINA RESULT: -6.914629449      1.627      6.764
REMARK  10 active torsions:
REMARK  status: ('A' for Active; 'I' for Inactive)
REMARK    1  A    between atoms: C2_2  and  C3_3 
REMARK    2  A    between atoms: C2_2  and  C12_18 
REMARK    3  A    between atoms: C3_3  and  C4_4 
REMARK    4  A    between atoms: C4_4  and  C5_5 
REMARK    5  A    between atoms: C4_4  and  C11_15 
REMARK    6  A    between atoms: C5_5  and  C6_6 
REMARK    7  A    between atoms: C6_6  and  C7_7 
REMARK    8  A    between atoms: C6_6  and  C10_12 
REMARK    9  A    between atoms: C7_7  and  C8_8 
REMARK   10  A    between atoms: C8_8  and  C9_9 
ROOT
HETATM    1  C4  UNL     1     115.860  41.691  47.123  1.00  0.00     0.088 C 
ENDROOT
BRANCH   1   2
HETATM    2  C3  UNL     1     116.633  42.370  45.987  1.00  0.00     0.030 C 
BRANCH   2   3
HETATM    3  C2  UNL     1     115.998  42.263  44.663  1.00  0.00     0.083 C 
HETATM    4  C1  UNL     1     114.487  42.333  44.688  1.00  0.00     0.021 C 
BRANCH   3   5
HETATM    5  C12 UNL     1     116.476  41.151  43.847  1.00  0.00     0.176 C 
HETATM    6  O7  UNL     1     117.506  40.493  44.138  1.00  0.00    -0.648 OA
HETATM    7  O8  UNL     1     115.786  40.790  42.705  1.00  0.00    -0.648 OA
ENDBRANCH   3   5
ENDBRANCH   2   3
ENDBRANCH   1   2
BRANCH   1   8
HETATM    8  C5  UNL     1     115.919  42.673  48.255  1.00  0.00     0.031 C 
BRANCH   8   9
HETATM    9  C6  UNL     1     115.238  42.367  49.521  1.00  0.00     0.088 C 
BRANCH   9  10
HETATM   10  C7  UNL     1     115.198  43.408  50.562  1.00  0.00     0.026 C 
BRANCH  10  11
HETATM   11  C8  UNL     1     114.449  43.016  51.829  1.00  0.00     0.114 C 
BRANCH  11  12
HETATM   12  C9  UNL     1     115.109  41.966  52.608  1.00  0.00     0.172 C 
HETATM   13  O1  UNL     1     114.373  41.048  53.068  1.00  0.00    -0.648 OA
HETATM   14  O2  UNL     1     116.443  41.901  52.874  1.00  0.00    -0.648 OA
ENDBRANCH  11  12
ENDBRANCH  10  11
ENDBRANCH   9  10
BRANCH   9  15
HETATM   15  C10 UNL     1     113.871  41.831  49.197  1.00  0.00     0.177 C 
HETATM   16  O3  UNL     1     113.601  40.628  49.374  1.00  0.00    -0.648 OA
HETATM   17  O4  UNL     1     112.889  42.669  48.697  1.00  0.00    -0.648 OA
ENDBRANCH   9  15
ENDBRANCH   8   9
ENDBRANCH   1   8
BRANCH   1  18
HETATM   18  C11 UNL     1     116.512  40.439  47.510  1.00  0.00     0.177 C 
HETATM   19  O5  UNL     1     117.771  40.407  47.669  1.00  0.00    -0.648 OA
HETATM   20  O6  UNL     1     115.798  39.298  47.707  1.00  0.00    -0.648 OA
ENDBRANCH   1  18
TORSDOF 10
ENDMDL
