MODEL 2
REMARK VINA RESULT: -7.211170433      1.721      2.705
REMARK  10 active torsions:
REMARK  status: ('A' for Active; 'I' for Inactive)
REMARK    1  A    between atoms: C2_2  and  C3_3 
REMARK    2  A    between atoms: C2_2  and  C12_18 
REMARK    3  A    between atoms: C3_3  and  C4_4 
REMARK    4  A    between atoms: C4_4  and  C5_5 
REMARK    5  A    between atoms: C4_4  and  C11_15 
REMARK    6  A    between atoms: C5_5  and  C6_6 
REMARK    7  A    between atoms: C6_6  and  C7_7 
REMARK    8  A    between atoms: C6_6  and  C10_12 
REMARK    9  A    between atoms: C7_7  and  C8_8 
REMARK   10  A    between atoms: C8_8  and  C9_9 
ROOT
HETATM    1  C4  UNL     1     115.210  42.214  49.524  1.00  0.00     0.088 C 
ENDROOT
BRANCH   1   2
HETATM    2  C3  UNL     1     115.158  43.515  50.332  1.00  0.00     0.030 C 
BRANCH   2   3
HETATM    3  C2  UNL     1     114.479  43.401  51.634  1.00  0.00     0.083 C 
HETATM    4  C1  UNL     1     114.236  44.722  52.330  1.00  0.00     0.021 C 
BRANCH   3   5
HETATM    5  C12 UNL     1     115.056  42.410  52.537  1.00  0.00     0.176 C 
HETATM    6  O7  UNL     1     116.253  42.458  52.916  1.00  0.00    -0.648 OA
HETATM    7  O8  UNL     1     114.276  41.372  53.008  1.00  0.00    -0.648 OA
ENDBRANCH   3   5
ENDBRANCH   2   3
ENDBRANCH   1   2
BRANCH   1   8
HETATM    8  C5  UNL     1     115.967  42.576  48.281  1.00  0.00     0.031 C 
BRANCH   8   9
HETATM    9  C6  UNL     1     115.798  41.769  47.064  1.00  0.00     0.088 C 
BRANCH   9  10
HETATM   10  C7  UNL     1     116.079  42.399  45.763  1.00  0.00     0.026 C 
BRANCH  10  11
HETATM   11  C8  UNL     1     114.940  42.318  44.755  1.00  0.00     0.114 C 
BRANCH  11  12
HETATM   12  C9  UNL     1     115.159  41.336  43.690  1.00  0.00     0.172 C 
HETATM   13  O1  UNL     1     116.349  40.964  43.493  1.00  0.00    -0.648 OA
HETATM   14  O2  UNL     1     114.188  40.797  42.902  1.00  0.00    -0.648 OA
ENDBRANCH  11  12
ENDBRANCH  10  11
ENDBRANCH   9  10
BRANCH   9  15
HETATM   15  C10 UNL     1     116.556  40.483  47.250  1.00  0.00     0.177 C 
HETATM   16  O3  UNL     1     117.775  40.421  47.000  1.00  0.00    -0.648 OA
HETATM   17  O4  UNL     1     115.910  39.347  47.705  1.00  0.00    -0.648 OA
ENDBRANCH   9  15
ENDBRANCH   8   9
ENDBRANCH   1   8
BRANCH   1  18
HETATM   18  C11 UNL     1     113.859  41.769  49.179  1.00  0.00     0.177 C 
HETATM   19  O5  UNL     1     113.548  40.546  49.304  1.00  0.00    -0.648 OA
HETATM   20  O6  UNL     1     112.919  42.642  48.726  1.00  0.00    -0.648 OA
ENDBRANCH   1  18
TORSDOF 10
ENDMDL
