MODEL 3
REMARK VINA RESULT: -7.167123460      1.750      2.676
REMARK  10 active torsions:
REMARK  status: ('A' for Active; 'I' for Inactive)
REMARK    1  A    between atoms: C2_2  and  C3_3 
REMARK    2  A    between atoms: C2_2  and  C12_18 
REMARK    3  A    between atoms: C3_3  and  C4_4 
REMARK    4  A    between atoms: C4_4  and  C5_5 
REMARK    5  A    between atoms: C4_4  and  C11_15 
REMARK    6  A    between atoms: C5_5  and  C6_6 
REMARK    7  A    between atoms: C6_6  and  C7_7 
REMARK    8  A    between atoms: C6_6  and  C10_12 
REMARK    9  A    between atoms: C7_7  and  C8_8 
REMARK   10  A    between atoms: C8_8  and  C9_9 
ROOT
HETATM    1  C4  UNL     1     115.099  42.269  49.608  1.00  0.00     0.088 C 
ENDROOT
BRANCH   1   2
HETATM    2  C3  UNL     1     114.883  43.596  50.344  1.00  0.00     0.030 C 
BRANCH   2   3
HETATM    3  C2  UNL     1     114.338  43.461  51.705  1.00  0.00     0.083 C 
HETATM    4  C1  UNL     1     114.206  44.767  52.458  1.00  0.00     0.021 C 
BRANCH   3   5
HETATM    5  C12 UNL     1     114.977  42.429  52.517  1.00  0.00     0.176 C 
HETATM    6  O7  UNL     1     116.185  42.489  52.858  1.00  0.00    -0.648 OA
HETATM    7  O8  UNL     1     114.246  41.336  52.940  1.00  0.00    -0.648 OA
ENDBRANCH   3   5
ENDBRANCH   2   3
ENDBRANCH   1   2
BRANCH   1   8
HETATM    8  C5  UNL     1     116.033  42.612  48.486  1.00  0.00     0.031 C 
BRANCH   8   9
HETATM    9  C6  UNL     1     115.992  41.832  47.241  1.00  0.00     0.088 C 
BRANCH   9  10
HETATM   10  C7  UNL     1     116.397  42.494  45.989  1.00  0.00     0.026 C 
BRANCH  10  11
HETATM   11  C8  UNL     1     115.304  42.585  44.932  1.00  0.00     0.114 C 
BRANCH  11  12
HETATM   12  C9  UNL     1     115.384  41.543  43.904  1.00  0.00     0.172 C 
HETATM   13  O1  UNL     1     114.294  41.165  43.390  1.00  0.00    -0.648 OA
HETATM   14  O2  UNL     1     116.531  40.955  43.464  1.00  0.00    -0.648 OA
ENDBRANCH  11  12
ENDBRANCH  10  11
ENDBRANCH   9  10
BRANCH   9  15
HETATM   15  C10 UNL     1     116.737  40.546  47.473  1.00  0.00     0.177 C 
HETATM   16  O3  UNL     1     116.785  40.035  48.608  1.00  0.00    -0.648 OA
HETATM   17  O4  UNL     1     117.379  39.908  46.425  1.00  0.00    -0.648 OA
ENDBRANCH   9  15
ENDBRANCH   8   9
ENDBRANCH   1   8
BRANCH   1  18
HETATM   18  C11 UNL     1     113.832  41.769  49.073  1.00  0.00     0.177 C 
HETATM   19  O5  UNL     1     112.905  42.585  48.781  1.00  0.00    -0.648 OA
HETATM   20  O6  UNL     1     113.620  40.439  48.876  1.00  0.00    -0.648 OA
ENDBRANCH   1  18
TORSDOF 10
ENDMDL
