MODEL 5
REMARK VINA RESULT: -7.045570541      1.653      6.770
REMARK  10 active torsions:
REMARK  status: ('A' for Active; 'I' for Inactive)
REMARK    1  A    between atoms: C2_2  and  C3_3 
REMARK    2  A    between atoms: C2_2  and  C12_18 
REMARK    3  A    between atoms: C3_3  and  C4_4 
REMARK    4  A    between atoms: C4_4  and  C5_5 
REMARK    5  A    between atoms: C4_4  and  C11_15 
REMARK    6  A    between atoms: C5_5  and  C6_6 
REMARK    7  A    between atoms: C6_6  and  C7_7 
REMARK    8  A    between atoms: C6_6  and  C10_12 
REMARK    9  A    between atoms: C7_7  and  C8_8 
REMARK   10  A    between atoms: C8_8  and  C9_9 
ROOT
HETATM    1  C4  UNL     1     115.513  41.684  47.526  1.00  0.00     0.088 C 
ENDROOT
BRANCH   1   2
HETATM    2  C3  UNL     1     116.140  42.365  46.305  1.00  0.00     0.030 C 
BRANCH   2   3
HETATM    3  C2  UNL     1     115.990  41.621  45.043  1.00  0.00     0.083 C 
HETATM    4  C1  UNL     1     117.247  41.553  44.204  1.00  0.00     0.021 C 
BRANCH   3   5
HETATM    5  C12 UNL     1     114.826  42.000  44.248  1.00  0.00     0.176 C 
HETATM    6  O7  UNL     1     114.251  43.110  44.378  1.00  0.00    -0.648 OA
HETATM    7  O8  UNL     1     114.319  41.122  43.309  1.00  0.00    -0.648 OA
ENDBRANCH   3   5
ENDBRANCH   2   3
ENDBRANCH   1   2
BRANCH   1   8
HETATM    8  C5  UNL     1     115.797  42.620  48.663  1.00  0.00     0.031 C 
BRANCH   8   9
HETATM    9  C6  UNL     1     115.028  42.505  49.911  1.00  0.00     0.088 C 
BRANCH   9  10
HETATM   10  C7  UNL     1     114.957  43.678  50.798  1.00  0.00     0.026 C 
BRANCH  10  11
HETATM   11  C8  UNL     1     114.547  43.371  52.233  1.00  0.00     0.114 C 
BRANCH  11  12
HETATM   12  C9  UNL     1     115.234  42.213  52.811  1.00  0.00     0.172 C 
HETATM   13  O1  UNL     1     116.472  42.335  53.031  1.00  0.00    -0.648 OA
HETATM   14  O2  UNL     1     114.648  41.025  53.127  1.00  0.00    -0.648 OA
ENDBRANCH  11  12
ENDBRANCH  10  11
ENDBRANCH   9  10
BRANCH   9  15
HETATM   15  C10 UNL     1     113.667  41.964  49.570  1.00  0.00     0.177 C 
HETATM   16  O3  UNL     1     113.370  40.781  49.822  1.00  0.00    -0.648 OA
HETATM   17  O4  UNL     1     112.719  42.776  48.971  1.00  0.00    -0.648 OA
ENDBRANCH   9  15
ENDBRANCH   8   9
ENDBRANCH   1   8
BRANCH   1  18
HETATM   18  C11 UNL     1     116.146  40.387  47.772  1.00  0.00     0.177 C 
HETATM   19  O5  UNL     1     117.383  40.333  48.048  1.00  0.00    -0.648 OA
HETATM   20  O6  UNL     1     115.436  39.228  47.714  1.00  0.00    -0.648 OA
ENDBRANCH   1  18
TORSDOF 10
ENDMDL
