MODEL 9
REMARK VINA RESULT: -6.951829141      2.187      6.979
REMARK  10 active torsions:
REMARK  status: ('A' for Active; 'I' for Inactive)
REMARK    1  A    between atoms: C2_2  and  C3_3 
REMARK    2  A    between atoms: C2_2  and  C12_18 
REMARK    3  A    between atoms: C3_3  and  C4_4 
REMARK    4  A    between atoms: C4_4  and  C5_5 
REMARK    5  A    between atoms: C4_4  and  C11_15 
REMARK    6  A    between atoms: C5_5  and  C6_6 
REMARK    7  A    between atoms: C6_6  and  C7_7 
REMARK    8  A    between atoms: C6_6  and  C10_12 
REMARK    9  A    between atoms: C7_7  and  C8_8 
REMARK   10  A    between atoms: C8_8  and  C9_9 
ROOT
HETATM    1  C4  UNL     1     115.509  41.723  47.681  1.00  0.00     0.088 C 
ENDROOT
BRANCH   1   2
HETATM    2  C3  UNL     1     116.046  42.477  46.460  1.00  0.00     0.030 C 
BRANCH   2   3
HETATM    3  C2  UNL     1     115.960  41.732  45.193  1.00  0.00     0.083 C 
HETATM    4  C1  UNL     1     117.246  41.707  44.395  1.00  0.00     0.021 C 
BRANCH   3   5
HETATM    5  C12 UNL     1     114.812  42.077  44.360  1.00  0.00     0.176 C 
HETATM    6  O7  UNL     1     114.253  43.202  44.412  1.00  0.00    -0.648 OA
HETATM    7  O8  UNL     1     114.302  41.149  43.473  1.00  0.00    -0.648 OA
ENDBRANCH   3   5
ENDBRANCH   2   3
ENDBRANCH   1   2
BRANCH   1   8
HETATM    8  C5  UNL     1     115.894  42.580  48.850  1.00  0.00     0.031 C 
BRANCH   8   9
HETATM    9  C6  UNL     1     114.925  42.819  49.929  1.00  0.00     0.088 C 
BRANCH   9  10
HETATM   10  C7  UNL     1     114.674  44.209  50.347  1.00  0.00     0.026 C 
BRANCH  10  11
HETATM   11  C8  UNL     1     113.997  44.356  51.704  1.00  0.00     0.114 C 
BRANCH  11  12
HETATM   12  C9  UNL     1     114.750  45.174  52.658  1.00  0.00     0.172 C 
HETATM   13  O1  UNL     1     115.377  46.165  52.189  1.00  0.00    -0.648 OA
HETATM   14  O2  UNL     1     114.827  44.952  53.999  1.00  0.00    -0.648 OA
ENDBRANCH  11  12
ENDBRANCH  10  11
ENDBRANCH   9  10
BRANCH   9  15
HETATM   15  C10 UNL     1     113.656  42.090  49.585  1.00  0.00     0.177 C 
HETATM   16  O3  UNL     1     113.485  40.908  49.941  1.00  0.00    -0.648 OA
HETATM   17  O4  UNL     1     112.656  42.721  48.866  1.00  0.00    -0.648 OA
ENDBRANCH   9  15
ENDBRANCH   8   9
ENDBRANCH   1   8
BRANCH   1  18
HETATM   18  C11 UNL     1     116.143  40.408  47.792  1.00  0.00     0.177 C 
HETATM   19  O5  UNL     1     117.399  40.326  47.949  1.00  0.00    -0.648 OA
HETATM   20  O6  UNL     1     115.414  39.261  47.731  1.00  0.00    -0.648 OA
ENDBRANCH   1  18
TORSDOF 10
ENDMDL
