MODEL 8
REMARK VINA RESULT: -6.954815450      1.575      2.131
REMARK  10 active torsions:
REMARK  status: ('A' for Active; 'I' for Inactive)
REMARK    1  A    between atoms: C2_2  and  C3_3 
REMARK    2  A    between atoms: C2_2  and  C12_18 
REMARK    3  A    between atoms: C3_3  and  C4_4 
REMARK    4  A    between atoms: C4_4  and  C5_5 
REMARK    5  A    between atoms: C4_4  and  C11_15 
REMARK    6  A    between atoms: C5_5  and  C6_6 
REMARK    7  A    between atoms: C6_6  and  C7_7 
REMARK    8  A    between atoms: C6_6  and  C10_12 
REMARK    9  A    between atoms: C7_7  and  C8_8 
REMARK   10  A    between atoms: C8_8  and  C9_9 
ROOT
HETATM    1  C4  UNL     1     115.633  42.119  48.965  1.00  0.00     0.088 C 
ENDROOT
BRANCH   1   2
HETATM    2  C3  UNL     1     115.150  43.312  49.797  1.00  0.00     0.030 C 
BRANCH   2   3
HETATM    3  C2  UNL     1     114.428  42.949  51.027  1.00  0.00     0.083 C 
HETATM    4  C1  UNL     1     113.581  44.062  51.605  1.00  0.00     0.021 C 
BRANCH   3   5
HETATM    5  C12 UNL     1     115.248  42.306  52.049  1.00  0.00     0.176 C 
HETATM    6  O7  UNL     1     115.030  41.136  52.453  1.00  0.00    -0.648 OA
HETATM    7  O8  UNL     1     116.312  42.989  52.608  1.00  0.00    -0.648 OA
ENDBRANCH   3   5
ENDBRANCH   2   3
ENDBRANCH   1   2
BRANCH   1   8
HETATM    8  C5  UNL     1     116.261  42.739  47.752  1.00  0.00     0.031 C 
BRANCH   8   9
HETATM    9  C6  UNL     1     116.220  42.027  46.466  1.00  0.00     0.088 C 
BRANCH   9  10
HETATM   10  C7  UNL     1     116.031  42.815  45.237  1.00  0.00     0.026 C 
BRANCH  10  11
HETATM   11  C8  UNL     1     116.524  42.142  43.963  1.00  0.00     0.114 C 
BRANCH  11  12
HETATM   12  C9  UNL     1     115.535  41.262  43.336  1.00  0.00     0.172 C 
HETATM   13  O1  UNL     1     115.969  40.420  42.500  1.00  0.00    -0.648 OA
HETATM   14  O2  UNL     1     114.195  41.280  43.580  1.00  0.00    -0.648 OA
ENDBRANCH  11  12
ENDBRANCH  10  11
ENDBRANCH   9  10
BRANCH   9  15
HETATM   15  C10 UNL     1     117.427  41.133  46.391  1.00  0.00     0.177 C 
HETATM   16  O3  UNL     1     118.571  41.616  46.283  1.00  0.00    -0.648 OA
HETATM   17  O4  UNL     1     117.286  39.757  46.441  1.00  0.00    -0.648 OA
ENDBRANCH   9  15
ENDBRANCH   8   9
ENDBRANCH   1   8
BRANCH   1  18
HETATM   18  C11 UNL     1     114.502  41.278  48.571  1.00  0.00     0.177 C 
HETATM   19  O5  UNL     1     113.414  41.817  48.204  1.00  0.00    -0.648 OA
HETATM   20  O6  UNL     1     114.588  39.920  48.587  1.00  0.00    -0.648 OA
ENDBRANCH   1  18
TORSDOF 10
ENDMDL
