MODEL 3
REMARK VINA RESULT: -8.309442979      6.370      8.228
REMARK  6 active torsions:
REMARK  status: ('A' for Active; 'I' for Inactive)
REMARK    1  A    between atoms: O1_2  and  C2_3 
REMARK    2  A    between atoms: C2_3  and  C3_4 
REMARK    3  A    between atoms: C2_3  and  C21_33 
REMARK       I    between atoms: C3_4  and  N1_6 
REMARK    4  A    between atoms: C6_13  and  N4_14 
REMARK       I    between atoms: N4_14  and  C7_16 
REMARK    5  A    between atoms: C7_16  and  C8_18 
REMARK    6  A    between atoms: C11_21  and  N5_22 
ROOT
HETATM    1  C3  UNL     1     -42.602 -48.619  -9.097  1.00  0.00     0.254 C 
HETATM    2  O2  UNL     1     -42.751 -49.812  -9.449  1.00  0.00    -0.270 OA
HETATM    3  N1  UNL     1     -42.880 -48.215  -7.790  1.00  0.00    -0.340 N 
HETATM    4  C4  UNL     1     -42.780 -46.883  -7.259  1.00  0.00     0.185 C 
HETATM    5  C5  UNL     1     -44.009 -46.807  -6.395  1.00  0.00     0.055 A 
HETATM    6  N2  UNL     1     -44.926 -46.028  -5.808  1.00  0.00    -0.301 N 
ATOM      7  H2  UNL     1     -44.963 -45.011  -5.869  1.00  0.00     0.186 HD
HETATM    8  N3  UNL     1     -45.787 -46.796  -5.129  1.00  0.00    -0.285 N 
ATOM      9  H3  UNL     1     -46.584 -46.460  -4.588  1.00  0.00     0.188 HD
HETATM   10  C6  UNL     1     -45.424 -48.101  -5.278  1.00  0.00     0.132 A 
HETATM   11  C19 UNL     1     -44.320 -48.115  -6.063  1.00  0.00     0.031 A 
HETATM   12  C20 UNL     1     -43.325 -49.050  -6.698  1.00  0.00     0.171 C 
ENDROOT
BRANCH  10  13
HETATM   13  N4  UNL     1     -46.148 -49.161  -4.668  1.00  0.00    -0.307 N 
HETATM   14  C7  UNL     1     -46.412 -49.243  -3.295  1.00  0.00     0.257 C 
HETATM   15  O3  UNL     1     -45.977 -48.306  -2.563  1.00  0.00    -0.267 OA
ATOM     16  H4  UNL     1     -46.496 -49.909  -5.268  1.00  0.00     0.170 HD
BRANCH  14  17
HETATM   17  C8  UNL     1     -47.150 -50.328  -2.662  1.00  0.00     0.032 A 
HETATM   18  C9  UNL     1     -46.901 -51.641  -2.980  1.00  0.00     0.019 A 
HETATM   19  C10 UNL     1     -47.577 -52.698  -2.410  1.00  0.00     0.030 A 
HETATM   20  C11 UNL     1     -48.567 -52.449  -1.460  1.00  0.00     0.030 A 
HETATM   21  C17 UNL     1     -48.833 -51.157  -1.129  1.00  0.00     0.030 A 
HETATM   22  C18 UNL     1     -48.131 -50.103  -1.722  1.00  0.00     0.019 A 
BRANCH  20  23
HETATM   23  N5  UNL     1     -49.256 -53.555  -0.901  1.00  0.00    -0.378 N 
HETATM   24  C12 UNL     1     -50.622 -53.895  -1.241  1.00  0.00     0.153 C 
HETATM   25  C13 UNL     1     -50.531 -55.139  -2.125  1.00  0.00     0.291 C 
HETATM   26  N6  UNL     1     -49.401 -55.936  -1.682  1.00  0.00     0.087 N 
HETATM   27  C14 UNL     1     -49.494 -57.305  -2.121  1.00  0.00     0.310 C 
HETATM   28  C15 UNL     1     -49.258 -55.833  -0.221  1.00  0.00     0.291 C 
HETATM   29  C16 UNL     1     -48.623 -54.464   0.071  1.00  0.00     0.153 C 
ENDBRANCH  20  23
ENDBRANCH  14  17
ENDBRANCH  10  13
BRANCH   1  30
HETATM   30  C2  UNL     1     -42.127 -47.654 -10.115  1.00  0.00     0.245 C 
BRANCH  30  31
HETATM   31  O1  UNL     1     -43.136 -46.818 -10.595  1.00  0.00    -0.377 OA
HETATM   32  C1  UNL     1     -42.755 -45.500 -10.714  1.00  0.00     0.203 C 
ENDBRANCH  30  31
BRANCH  30  33
HETATM   33  C21 UNL     1     -41.494 -48.374 -11.254  1.00  0.00    -0.020 A 
HETATM   34  C22 UNL     1     -42.213 -49.302 -11.970  1.00  0.00     0.010 A 
HETATM   35  C23 UNL     1     -41.654 -50.014 -13.021  1.00  0.00     0.001 A 
HETATM   36  C24 UNL     1     -40.345 -49.805 -13.380  1.00  0.00     0.000 A 
HETATM   37  C25 UNL     1     -39.618 -48.877 -12.668  1.00  0.00     0.001 A 
HETATM   38  C26 UNL     1     -40.185 -48.169 -11.616  1.00  0.00     0.010 A 
ENDBRANCH  30  33
ENDBRANCH   1  30
TORSDOF 6
ENDMDL
