MODEL 2
REMARK VINA RESULT: -8.382352745      3.088     11.450
REMARK  6 active torsions:
REMARK  status: ('A' for Active; 'I' for Inactive)
REMARK    1  A    between atoms: O1_2  and  C2_3 
REMARK    2  A    between atoms: C2_3  and  C3_4 
REMARK    3  A    between atoms: C2_3  and  C21_33 
REMARK       I    between atoms: C3_4  and  N1_6 
REMARK    4  A    between atoms: C6_13  and  N4_14 
REMARK       I    between atoms: N4_14  and  C7_16 
REMARK    5  A    between atoms: C7_16  and  C8_18 
REMARK    6  A    between atoms: C11_21  and  N5_22 
ROOT
HETATM    1  C3  UNL     1     -44.283 -57.493  -9.856  1.00  0.00     0.254 C 
HETATM    2  O2  UNL     1     -43.601 -57.071  -8.893  1.00  0.00    -0.270 OA
HETATM    3  N1  UNL     1     -44.333 -56.791 -11.062  1.00  0.00    -0.340 N 
HETATM    4  C4  UNL     1     -45.089 -57.141 -12.233  1.00  0.00     0.185 C 
HETATM    5  C5  UNL     1     -45.604 -55.798 -12.676  1.00  0.00     0.055 A 
HETATM    6  N2  UNL     1     -46.539 -55.117 -13.349  1.00  0.00    -0.301 N 
ATOM      7  H2  UNL     1     -47.332 -55.531 -13.840  1.00  0.00     0.186 HD
HETATM    8  N3  UNL     1     -46.270 -53.808 -13.275  1.00  0.00    -0.285 N 
ATOM      9  H3  UNL     1     -46.821 -53.064 -13.701  1.00  0.00     0.188 HD
HETATM   10  C6  UNL     1     -45.138 -53.633 -12.539  1.00  0.00     0.132 A 
HETATM   11  C19 UNL     1     -44.718 -54.866 -12.163  1.00  0.00     0.031 A 
HETATM   12  C20 UNL     1     -43.636 -55.567 -11.386  1.00  0.00     0.171 C 
ENDROOT
BRANCH  10  13
HETATM   13  N4  UNL     1     -44.592 -52.345 -12.284  1.00  0.00    -0.307 N 
HETATM   14  C7  UNL     1     -43.298 -51.956 -12.649  1.00  0.00     0.257 C 
HETATM   15  O3  UNL     1     -42.579 -52.812 -13.244  1.00  0.00    -0.267 OA
ATOM     16  H4  UNL     1     -45.181 -51.663 -11.806  1.00  0.00     0.170 HD
BRANCH  14  17
HETATM   17  C8  UNL     1     -42.730 -50.640 -12.389  1.00  0.00     0.032 A 
HETATM   18  C9  UNL     1     -43.458 -49.660 -11.759  1.00  0.00     0.019 A 
HETATM   19  C10 UNL     1     -42.963 -48.401 -11.496  1.00  0.00     0.030 A 
HETATM   20  C11 UNL     1     -41.661 -48.080 -11.880  1.00  0.00     0.030 A 
HETATM   21  C17 UNL     1     -40.920 -49.033 -12.505  1.00  0.00     0.030 A 
HETATM   22  C18 UNL     1     -41.447 -50.303 -12.759  1.00  0.00     0.019 A 
BRANCH  20  23
HETATM   23  N5  UNL     1     -41.184 -46.773 -11.609  1.00  0.00    -0.378 N 
HETATM   24  C12 UNL     1     -42.053 -45.623 -11.464  1.00  0.00     0.153 C 
HETATM   25  C13 UNL     1     -42.067 -45.301  -9.970  1.00  0.00     0.291 C 
HETATM   26  N6  UNL     1     -40.762 -45.622  -9.419  1.00  0.00     0.087 N 
HETATM   27  C14 UNL     1     -40.519 -44.950  -8.168  1.00  0.00     0.310 C 
HETATM   28  C15 UNL     1     -39.715 -45.337 -10.412  1.00  0.00     0.291 C 
HETATM   29  C16 UNL     1     -39.749 -46.480 -11.440  1.00  0.00     0.153 C 
ENDBRANCH  20  23
ENDBRANCH  14  17
ENDBRANCH  10  13
BRANCH   1  30
HETATM   30  C2  UNL     1     -45.034 -58.755  -9.671  1.00  0.00     0.245 C 
BRANCH  30  31
HETATM   31  O1  UNL     1     -45.409 -58.984  -8.346  1.00  0.00    -0.377 OA
HETATM   32  C1  UNL     1     -46.739 -58.736  -8.094  1.00  0.00     0.203 C 
ENDBRANCH  30  31
BRANCH  30  33
HETATM   33  C21 UNL     1     -44.236 -59.909 -10.168  1.00  0.00    -0.020 A 
HETATM   34  C22 UNL     1     -44.867 -61.006 -10.706  1.00  0.00     0.010 A 
HETATM   35  C23 UNL     1     -44.163 -62.112 -11.157  1.00  0.00     0.001 A 
HETATM   36  C24 UNL     1     -42.792 -62.140 -11.076  1.00  0.00     0.000 A 
HETATM   37  C25 UNL     1     -42.152 -61.046 -10.539  1.00  0.00     0.001 A 
HETATM   38  C26 UNL     1     -42.865 -59.942 -10.089  1.00  0.00     0.010 A 
ENDBRANCH  30  33
ENDBRANCH   1  30
TORSDOF 6
ENDMDL
