MODEL 4
REMARK VINA RESULT: -8.262773314      4.535     12.222
REMARK  6 active torsions:
REMARK  status: ('A' for Active; 'I' for Inactive)
REMARK    1  A    between atoms: O1_2  and  C2_3 
REMARK    2  A    between atoms: C2_3  and  C3_4 
REMARK    3  A    between atoms: C2_3  and  C21_33 
REMARK       I    between atoms: C3_4  and  N1_6 
REMARK    4  A    between atoms: C6_13  and  N4_14 
REMARK       I    between atoms: N4_14  and  C7_16 
REMARK    5  A    between atoms: C7_16  and  C8_18 
REMARK    6  A    between atoms: C11_21  and  N5_22 
ROOT
HETATM    1  C3  UNL     1     -41.947 -56.877 -17.548  1.00  0.00     0.254 C 
HETATM    2  O2  UNL     1     -41.251 -56.112 -18.256  1.00  0.00    -0.270 OA
HETATM    3  N1  UNL     1     -42.737 -56.375 -16.513  1.00  0.00    -0.340 N 
HETATM    4  C4  UNL     1     -43.559 -57.134 -15.610  1.00  0.00     0.185 C 
HETATM    5  C5  UNL     1     -43.303 -56.434 -14.304  1.00  0.00     0.055 A 
HETATM    6  N2  UNL     1     -43.293 -56.512 -12.967  1.00  0.00    -0.301 N 
ATOM      7  H2  UNL     1     -43.537 -57.339 -12.422  1.00  0.00     0.186 HD
HETATM    8  N3  UNL     1     -42.914 -55.333 -12.460  1.00  0.00    -0.285 N 
ATOM      9  H3  UNL     1     -42.822 -55.116 -11.467  1.00  0.00     0.188 HD
HETATM   10  C6  UNL     1     -42.670 -54.471 -13.485  1.00  0.00     0.132 A 
HETATM   11  C19 UNL     1     -42.911 -55.148 -14.634  1.00  0.00     0.031 A 
HETATM   12  C20 UNL     1     -42.896 -54.991 -16.131  1.00  0.00     0.171 C 
ENDROOT
BRANCH  10  13
HETATM   13  N4  UNL     1     -42.251 -53.131 -13.263  1.00  0.00    -0.307 N 
HETATM   14  C7  UNL     1     -42.922 -52.226 -12.431  1.00  0.00     0.257 C 
HETATM   15  O3  UNL     1     -43.965 -52.641 -11.844  1.00  0.00    -0.267 OA
ATOM     16  H4  UNL     1     -41.408 -52.809 -13.740  1.00  0.00     0.170 HD
BRANCH  14  17
HETATM   17  C8  UNL     1     -42.501 -50.851 -12.201  1.00  0.00     0.032 A 
HETATM   18  C9  UNL     1     -43.386 -49.898 -11.758  1.00  0.00     0.019 A 
HETATM   19  C10 UNL     1     -43.032 -48.586 -11.532  1.00  0.00     0.030 A 
HETATM   20  C11 UNL     1     -41.717 -48.179 -11.757  1.00  0.00     0.030 A 
HETATM   21  C17 UNL     1     -40.823 -49.104 -12.197  1.00  0.00     0.030 A 
HETATM   22  C18 UNL     1     -41.208 -50.429 -12.418  1.00  0.00     0.019 A 
BRANCH  20  23
HETATM   23  N5  UNL     1     -41.386 -46.819 -11.529  1.00  0.00    -0.378 N 
HETATM   24  C12 UNL     1     -42.376 -45.786 -11.308  1.00  0.00     0.153 C 
HETATM   25  C13 UNL     1     -42.300 -45.452  -9.818  1.00  0.00     0.291 C 
HETATM   26  N6  UNL     1     -40.922 -45.602  -9.384  1.00  0.00     0.087 N 
HETATM   27  C14 UNL     1     -40.657 -44.892  -8.159  1.00  0.00     0.310 C 
HETATM   28  C15 UNL     1     -40.010 -45.199 -10.465  1.00  0.00     0.291 C 
HETATM   29  C16 UNL     1     -39.990 -46.348 -11.486  1.00  0.00     0.153 C 
ENDBRANCH  20  23
ENDBRANCH  14  17
ENDBRANCH  10  13
BRANCH   1  30
HETATM   30  C2  UNL     1     -41.898 -58.327 -17.844  1.00  0.00     0.245 C 
BRANCH  30  31
HETATM   31  O1  UNL     1     -43.150 -58.941 -17.801  1.00  0.00    -0.377 OA
HETATM   32  C1  UNL     1     -43.854 -58.850 -18.981  1.00  0.00     0.203 C 
ENDBRANCH  30  31
BRANCH  30  33
HETATM   33  C21 UNL     1     -40.974 -59.015 -16.900  1.00  0.00    -0.020 A 
HETATM   34  C22 UNL     1     -39.663 -58.613 -16.798  1.00  0.00     0.010 A 
HETATM   35  C23 UNL     1     -38.765 -59.244 -15.951  1.00  0.00     0.001 A 
HETATM   36  C24 UNL     1     -39.169 -60.305 -15.178  1.00  0.00     0.000 A 
HETATM   37  C25 UNL     1     -40.481 -60.714 -15.274  1.00  0.00     0.001 A 
HETATM   38  C26 UNL     1     -41.374 -60.077 -16.126  1.00  0.00     0.010 A 
ENDBRANCH  30  33
ENDBRANCH   1  30
TORSDOF 6
ENDMDL
