MODEL 6
REMARK VINA RESULT: -7.914056827      2.602      7.924
REMARK  10 active torsions:
REMARK  status: ('A' for Active; 'I' for Inactive)
REMARK    1  A    between atoms: N5_13  and  C6_14 
REMARK    2  A    between atoms: C7_16  and  C8_17 
REMARK    3  A    between atoms: C8_17  and  S1_18 
REMARK    4  A    between atoms: S1_18  and  C9_19 
REMARK    5  A    between atoms: C9_19  and  C10_20 
REMARK    6  A    between atoms: C10_20  and  C11_21 
REMARK    7  A    between atoms: C11_21  and  N6_22 
REMARK    8  A    between atoms: C11_21  and  C12_26 
REMARK    9  A    between atoms: C13_29  and  O4_30 
REMARK   10  A    between atoms: C14_32  and  O5_33 
ROOT
HETATM    1  C6  UNL     1      38.711  11.668  68.814  1.00  0.00     0.262 C 
HETATM    2  O1  UNL     1      39.458  11.572  67.637  1.00  0.00    -0.355 OA
HETATM    3  C7  UNL     1      40.802  11.501  68.072  1.00  0.00     0.165 C 
HETATM    4  C13 UNL     1      40.672  10.443  69.148  1.00  0.00     0.180 C 
HETATM    5  C14 UNL     1      39.482  11.017  69.905  1.00  0.00     0.198 C 
ENDROOT
BRANCH   1   6
HETATM    6  N5  UNL     1      37.371  11.201  68.642  1.00  0.00    -0.297 N 
HETATM    7  C3  UNL     1      36.306  11.798  68.075  1.00  0.00     0.142 A 
HETATM    8  N3  UNL     1      36.219  13.013  67.507  1.00  0.00    -0.336 N 
HETATM    9  C4  UNL     1      35.203  10.980  68.128  1.00  0.00     0.119 A 
HETATM   10  C2  UNL     1      35.028  13.382  67.005  1.00  0.00     0.183 A 
ATOM     11  H3  UNL     1      37.028  13.633  67.459  1.00  0.00     0.168 HD
HETATM   12  N2  UNL     1      33.930  12.586  67.050  1.00  0.00    -0.339 N 
HETATM   13  C1  UNL     1      33.975  11.368  67.607  1.00  0.00     0.148 A 
ATOM     14  H2  UNL     1      33.052  12.922  66.653  1.00  0.00     0.167 HD
HETATM   15  N1  UNL     1      32.882  10.479  67.695  1.00  0.00    -0.080 NA
HETATM   16  N4  UNL     1      35.616   9.849  68.749  1.00  0.00    -0.346 N 
HETATM   17  C5  UNL     1      36.918   9.983  69.059  1.00  0.00     0.188 A 
ATOM     18  H4  UNL     1      35.038   9.034  68.950  1.00  0.00     0.167 HD
ENDBRANCH   1   6
BRANCH   5  19
HETATM   19  O5  UNL     1      40.022  11.958  70.800  1.00  0.00    -0.388 OA
ATOM     20  H5  UNL     1      40.649  12.532  70.376  1.00  0.00     0.210 HD
ENDBRANCH   5  19
BRANCH   3  21
HETATM   21  C8  UNL     1      41.702  11.089  66.945  1.00  0.00     0.108 C 
BRANCH  21  22
HETATM   22  S1  UNL     1      40.614  10.424  65.628  1.00  0.00    -0.166 SA
BRANCH  22  23
HETATM   23  C9  UNL     1      41.422  10.727  64.016  1.00  0.00     0.076 C 
BRANCH  23  24
HETATM   24  C10 UNL     1      41.517   9.466  63.230  1.00  0.00     0.054 C 
BRANCH  24  25
HETATM   25  C11 UNL     1      42.909   9.188  62.732  1.00  0.00     0.284 C 
BRANCH  25  26
HETATM   26  N6  UNL     1      42.899   8.212  61.651  1.00  0.00    -0.065 N 
ATOM     27  H63 UNL     1      42.514   8.608  60.793  1.00  0.00     0.275 HD
ATOM     28  H62 UNL     1      43.842   8.009  61.321  1.00  0.00     0.275 HD
ATOM     29  H61 UNL     1      42.406   7.362  61.924  1.00  0.00     0.275 HD
ENDBRANCH  25  26
BRANCH  25  30
HETATM   30  C12 UNL     1      43.840   8.699  63.769  1.00  0.00     0.204 C 
HETATM   31  O2  UNL     1      43.804   9.176  64.957  1.00  0.00    -0.646 OA
HETATM   32  O3  UNL     1      44.797   7.722  63.567  1.00  0.00    -0.646 OA
ENDBRANCH  25  30
ENDBRANCH  24  25
ENDBRANCH  23  24
ENDBRANCH  22  23
ENDBRANCH  21  22
ENDBRANCH   3  21
BRANCH   4  33
HETATM   33  O4  UNL     1      41.804  10.388  69.956  1.00  0.00    -0.390 OA
ATOM     34  H4  UNL     1      42.339   9.628  69.760  1.00  0.00     0.210 HD
ENDBRANCH   4  33
TORSDOF 10
ENDMDL
