MODEL 2
REMARK VINA RESULT: -9.070610545      1.434      1.687
REMARK  10 active torsions:
REMARK  status: ('A' for Active; 'I' for Inactive)
REMARK    1  A    between atoms: N5_13  and  C6_14 
REMARK    2  A    between atoms: C7_16  and  C8_17 
REMARK    3  A    between atoms: C8_17  and  S1_18 
REMARK    4  A    between atoms: S1_18  and  C9_19 
REMARK    5  A    between atoms: C9_19  and  C10_20 
REMARK    6  A    between atoms: C10_20  and  C11_21 
REMARK    7  A    between atoms: C11_21  and  N6_22 
REMARK    8  A    between atoms: C11_21  and  C12_26 
REMARK    9  A    between atoms: C13_29  and  O4_30 
REMARK   10  A    between atoms: C14_32  and  O5_33 
ROOT
HETATM    1  C6  UNL     1      41.589  10.503  67.135  1.00  0.00     0.262 C 
HETATM    2  O1  UNL     1      40.430  10.094  67.800  1.00  0.00    -0.355 OA
HETATM    3  C7  UNL     1      40.381  10.900  68.962  1.00  0.00     0.165 C 
HETATM    4  C13 UNL     1      40.638  12.260  68.346  1.00  0.00     0.180 C 
HETATM    5  C14 UNL     1      41.861  11.916  67.508  1.00  0.00     0.198 C 
ENDROOT
BRANCH   1   6
HETATM    6  N5  UNL     1      41.530  10.234  65.733  1.00  0.00    -0.297 N 
HETATM    7  C3  UNL     1      42.406   9.602  64.929  1.00  0.00     0.142 A 
HETATM    8  N3  UNL     1      43.588   9.044  65.237  1.00  0.00    -0.336 N 
HETATM    9  C4  UNL     1      41.943   9.570  63.635  1.00  0.00     0.119 A 
HETATM   10  C2  UNL     1      44.283   8.466  64.242  1.00  0.00     0.183 A 
ATOM     11  H3  UNL     1      43.946   9.059  66.192  1.00  0.00     0.168 HD
HETATM   12  N2  UNL     1      43.840   8.427  62.959  1.00  0.00    -0.339 N 
HETATM   13  C1  UNL     1      42.666   8.971  62.611  1.00  0.00     0.148 A 
ATOM     14  H2  UNL     1      44.413   7.975  62.246  1.00  0.00     0.167 HD
HETATM   15  N1  UNL     1      42.133   8.974  61.303  1.00  0.00    -0.080 NA
HETATM   16  N4  UNL     1      40.746  10.206  63.659  1.00  0.00    -0.346 N 
HETATM   17  C5  UNL     1      40.500  10.605  64.918  1.00  0.00     0.188 A 
ATOM     18  H4  UNL     1      40.136  10.356  62.856  1.00  0.00     0.167 HD
ENDBRANCH   1   6
BRANCH   5  19
HETATM   19  O5  UNL     1      42.960  12.027  68.379  1.00  0.00    -0.388 OA
ATOM     20  H5  UNL     1      43.593  12.663  68.071  1.00  0.00     0.210 HD
ENDBRANCH   5  19
BRANCH   3  21
HETATM   21  C8  UNL     1      39.039  10.794  69.623  1.00  0.00     0.108 C 
BRANCH  21  22
HETATM   22  S1  UNL     1      37.815  11.438  68.420  1.00  0.00    -0.166 SA
BRANCH  22  23
HETATM   23  C9  UNL     1      36.162  10.829  68.909  1.00  0.00     0.076 C 
BRANCH  23  24
HETATM   24  C10 UNL     1      35.870   9.522  68.260  1.00  0.00     0.054 C 
BRANCH  24  25
HETATM   25  C11 UNL     1      35.774   9.618  66.762  1.00  0.00     0.284 C 
BRANCH  25  26
HETATM   26  N6  UNL     1      34.870  10.686  66.357  1.00  0.00    -0.065 N 
ATOM     27  H63 UNL     1      34.151  10.855  67.060  1.00  0.00     0.275 HD
ATOM     28  H62 UNL     1      35.330  11.595  66.381  1.00  0.00     0.275 HD
ATOM     29  H61 UNL     1      34.461  10.497  65.442  1.00  0.00     0.275 HD
ENDBRANCH  25  26
BRANCH  25  30
HETATM   30  C12 UNL     1      35.329   8.376  66.099  1.00  0.00     0.204 C 
HETATM   31  O2  UNL     1      34.881   7.393  66.786  1.00  0.00    -0.646 OA
HETATM   32  O3  UNL     1      35.349   8.165  64.733  1.00  0.00    -0.646 OA
ENDBRANCH  25  30
ENDBRANCH  24  25
ENDBRANCH  23  24
ENDBRANCH  22  23
ENDBRANCH  21  22
ENDBRANCH   3  21
BRANCH   4  33
HETATM   33  O4  UNL     1      40.942  13.213  69.313  1.00  0.00    -0.390 OA
ATOM     34  H4  UNL     1      41.333  13.990  68.931  1.00  0.00     0.210 HD
ENDBRANCH   4  33
TORSDOF 10
ENDMDL
