MODEL 3
REMARK VINA RESULT: -8.033146805      2.936      7.496
REMARK  10 active torsions:
REMARK  status: ('A' for Active; 'I' for Inactive)
REMARK    1  A    between atoms: N5_13  and  C6_14 
REMARK    2  A    between atoms: C7_16  and  C8_17 
REMARK    3  A    between atoms: C8_17  and  S1_18 
REMARK    4  A    between atoms: S1_18  and  C9_19 
REMARK    5  A    between atoms: C9_19  and  C10_20 
REMARK    6  A    between atoms: C10_20  and  C11_21 
REMARK    7  A    between atoms: C11_21  and  N6_22 
REMARK    8  A    between atoms: C11_21  and  C12_26 
REMARK    9  A    between atoms: C13_29  and  O4_30 
REMARK   10  A    between atoms: C14_32  and  O5_33 
ROOT
HETATM    1  C6  UNL     1      39.037  11.363  68.321  1.00  0.00     0.262 C 
HETATM    2  O1  UNL     1      40.100  11.429  67.417  1.00  0.00    -0.355 OA
HETATM    3  C7  UNL     1      41.221  11.777  68.206  1.00  0.00     0.165 C 
HETATM    4  C13 UNL     1      41.059  10.784  69.339  1.00  0.00     0.180 C 
HETATM    5  C14 UNL     1      39.590  11.024  69.659  1.00  0.00     0.198 C 
ENDROOT
BRANCH   1   6
HETATM    6  N5  UNL     1      37.983  10.517  67.855  1.00  0.00    -0.297 N 
HETATM    7  C3  UNL     1      36.652  10.605  68.034  1.00  0.00     0.142 A 
HETATM    8  N3  UNL     1      35.947  11.529  68.707  1.00  0.00    -0.336 N 
HETATM    9  C4  UNL     1      36.007   9.567  67.405  1.00  0.00     0.119 A 
HETATM   10  C2  UNL     1      34.610  11.393  68.737  1.00  0.00     0.183 A 
ATOM     11  H3  UNL     1      36.409  12.306  69.179  1.00  0.00     0.168 HD
HETATM   12  N2  UNL     1      33.958  10.373  68.123  1.00  0.00    -0.339 N 
HETATM   13  C1  UNL     1      34.625   9.432  67.440  1.00  0.00     0.148 A 
ATOM     14  H2  UNL     1      32.941  10.321  68.181  1.00  0.00     0.167 HD
HETATM   15  N1  UNL     1      34.026   8.340  66.773  1.00  0.00    -0.080 NA
HETATM   16  N4  UNL     1      36.984   8.826  66.827  1.00  0.00    -0.346 N 
HETATM   17  C5  UNL     1      38.170   9.397  67.099  1.00  0.00     0.188 A 
ATOM     18  H4  UNL     1      36.843   7.978  66.279  1.00  0.00     0.167 HD
ENDBRANCH   1   6
BRANCH   5  19
HETATM   19  O5  UNL     1      39.568  12.127  70.531  1.00  0.00    -0.388 OA
ATOM     20  H5  UNL     1      40.199  12.036  71.234  1.00  0.00     0.210 HD
ENDBRANCH   5  19
BRANCH   3  21
HETATM   21  C8  UNL     1      42.492  11.588  67.433  1.00  0.00     0.108 C 
BRANCH  21  22
HETATM   22  S1  UNL     1      42.224  10.143  66.337  1.00  0.00    -0.166 SA
BRANCH  22  23
HETATM   23  C9  UNL     1      41.560  10.753  64.745  1.00  0.00     0.076 C 
BRANCH  23  24
HETATM   24  C10 UNL     1      41.317   9.621  63.810  1.00  0.00     0.054 C 
BRANCH  24  25
HETATM   25  C11 UNL     1      42.331   9.547  62.701  1.00  0.00     0.284 C 
BRANCH  25  26
HETATM   26  N6  UNL     1      41.741   9.016  61.479  1.00  0.00    -0.065 N 
ATOM     27  H63 UNL     1      41.127   9.696  61.033  1.00  0.00     0.275 HD
ATOM     28  H62 UNL     1      42.436   8.922  60.739  1.00  0.00     0.275 HD
ATOM     29  H61 UNL     1      41.259   8.135  61.654  1.00  0.00     0.275 HD
ENDBRANCH  25  26
BRANCH  25  30
HETATM   30  C12 UNL     1      43.521   8.733  63.017  1.00  0.00     0.204 C 
HETATM   31  O2  UNL     1      43.731   7.621  62.417  1.00  0.00    -0.646 OA
HETATM   32  O3  UNL     1      44.483   9.077  63.948  1.00  0.00    -0.646 OA
ENDBRANCH  25  30
ENDBRANCH  24  25
ENDBRANCH  23  24
ENDBRANCH  22  23
ENDBRANCH  21  22
ENDBRANCH   3  21
BRANCH   4  33
HETATM   33  O4  UNL     1      41.869  11.105  70.424  1.00  0.00    -0.390 OA
ATOM     34  H4  UNL     1      41.742  10.503  71.148  1.00  0.00     0.210 HD
ENDBRANCH   4  33
TORSDOF 10
ENDMDL
