MODEL 1
REMARK VINA RESULT: -9.164218856      0.000      0.000
REMARK  10 active torsions:
REMARK  status: ('A' for Active; 'I' for Inactive)
REMARK    1  A    between atoms: N5_13  and  C6_14 
REMARK    2  A    between atoms: C7_16  and  C8_17 
REMARK    3  A    between atoms: C8_17  and  S1_18 
REMARK    4  A    between atoms: S1_18  and  C9_19 
REMARK    5  A    between atoms: C9_19  and  C10_20 
REMARK    6  A    between atoms: C10_20  and  C11_21 
REMARK    7  A    between atoms: C11_21  and  N6_22 
REMARK    8  A    between atoms: C11_21  and  C12_26 
REMARK    9  A    between atoms: C13_29  and  O4_30 
REMARK   10  A    between atoms: C14_32  and  O5_33 
ROOT
HETATM    1  C6  UNL     1      41.641  10.524  67.153  1.00  0.00     0.262 C 
HETATM    2  O1  UNL     1      40.506  10.081  67.837  1.00  0.00    -0.355 OA
HETATM    3  C7  UNL     1      40.448  10.890  68.996  1.00  0.00     0.165 C 
HETATM    4  C13 UNL     1      40.651  12.255  68.372  1.00  0.00     0.180 C 
HETATM    5  C14 UNL     1      41.872  11.947  67.517  1.00  0.00     0.198 C 
ENDROOT
BRANCH   1   6
HETATM    6  N5  UNL     1      41.569  10.248  65.752  1.00  0.00    -0.297 N 
HETATM    7  C3  UNL     1      42.437   9.611  64.944  1.00  0.00     0.142 A 
HETATM    8  N3  UNL     1      43.621   9.052  65.246  1.00  0.00    -0.336 N 
HETATM    9  C4  UNL     1      41.963   9.572  63.655  1.00  0.00     0.119 A 
HETATM   10  C2  UNL     1      44.307   8.468  64.248  1.00  0.00     0.183 A 
ATOM     11  H3  UNL     1      43.987   9.072  66.198  1.00  0.00     0.168 HD
HETATM   12  N2  UNL     1      43.853   8.423  62.969  1.00  0.00    -0.339 N 
HETATM   13  C1  UNL     1      42.677   8.967  62.628  1.00  0.00     0.148 A 
ATOM     14  H2  UNL     1      44.419   7.965  62.254  1.00  0.00     0.167 HD
HETATM   15  N1  UNL     1      42.133   8.964  61.325  1.00  0.00    -0.080 NA
HETATM   16  N4  UNL     1      40.768  10.210  63.685  1.00  0.00    -0.346 N 
HETATM   17  C5  UNL     1      40.532  10.616  64.945  1.00  0.00     0.188 A 
ATOM     18  H4  UNL     1      40.151  10.357  62.887  1.00  0.00     0.167 HD
ENDBRANCH   1   6
BRANCH   5  19
HETATM   19  O5  UNL     1      42.980  12.097  68.371  1.00  0.00    -0.388 OA
ATOM     20  H5  UNL     1      43.133  13.006  68.595  1.00  0.00     0.210 HD
ENDBRANCH   5  19
BRANCH   3  21
HETATM   21  C8  UNL     1      39.120  10.744  69.678  1.00  0.00     0.108 C 
BRANCH  21  22
HETATM   22  S1  UNL     1      37.857  10.691  68.350  1.00  0.00    -0.166 SA
BRANCH  22  23
HETATM   23  C9  UNL     1      36.312  11.418  69.005  1.00  0.00     0.076 C 
BRANCH  23  24
HETATM   24  C10 UNL     1      35.751  12.410  68.048  1.00  0.00     0.054 C 
BRANCH  24  25
HETATM   25  C11 UNL     1      34.643  11.847  67.201  1.00  0.00     0.284 C 
BRANCH  25  26
HETATM   26  N6  UNL     1      33.802  12.905  66.658  1.00  0.00    -0.065 N 
ATOM     27  H63 UNL     1      34.250  13.371  65.869  1.00  0.00     0.275 HD
ATOM     28  H62 UNL     1      32.988  12.526  66.175  1.00  0.00     0.275 HD
ATOM     29  H61 UNL     1      33.532  13.571  67.381  1.00  0.00     0.275 HD
ENDBRANCH  25  26
BRANCH  25  30
HETATM   30  C12 UNL     1      33.764  10.891  67.905  1.00  0.00     0.204 C 
HETATM   31  O2  UNL     1      33.763   9.650  67.591  1.00  0.00    -0.646 OA
HETATM   32  O3  UNL     1      32.897  11.229  68.927  1.00  0.00    -0.646 OA
ENDBRANCH  25  30
ENDBRANCH  24  25
ENDBRANCH  23  24
ENDBRANCH  22  23
ENDBRANCH  21  22
ENDBRANCH   3  21
BRANCH   4  33
HETATM   33  O4  UNL     1      40.939  13.222  69.331  1.00  0.00    -0.390 OA
ATOM     34  H4  UNL     1      41.869  13.264  69.520  1.00  0.00     0.210 HD
ENDBRANCH   4  33
TORSDOF 10
ENDMDL
