MODEL 5
REMARK VINA RESULT: -7.963205003      2.973      7.176
REMARK  10 active torsions:
REMARK  status: ('A' for Active; 'I' for Inactive)
REMARK    1  A    between atoms: N5_13  and  C6_14 
REMARK    2  A    between atoms: C7_16  and  C8_17 
REMARK    3  A    between atoms: C8_17  and  S1_18 
REMARK    4  A    between atoms: S1_18  and  C9_19 
REMARK    5  A    between atoms: C9_19  and  C10_20 
REMARK    6  A    between atoms: C10_20  and  C11_21 
REMARK    7  A    between atoms: C11_21  and  N6_22 
REMARK    8  A    between atoms: C11_21  and  C12_26 
REMARK    9  A    between atoms: C13_29  and  O4_30 
REMARK   10  A    between atoms: C14_32  and  O5_33 
ROOT
HETATM    1  C6  UNL     1      38.781  11.654  68.858  1.00  0.00     0.262 C 
HETATM    2  O1  UNL     1      39.602  11.704  67.728  1.00  0.00    -0.355 OA
HETATM    3  C7  UNL     1      40.920  11.699  68.243  1.00  0.00     0.165 C 
HETATM    4  C13 UNL     1      40.809  10.555  69.231  1.00  0.00     0.180 C 
HETATM    5  C14 UNL     1      39.535  10.981  69.947  1.00  0.00     0.198 C 
ENDROOT
BRANCH   1   6
HETATM    6  N5  UNL     1      37.494  11.104  68.566  1.00  0.00    -0.297 N 
HETATM    7  C3  UNL     1      37.138  10.124  67.714  1.00  0.00     0.142 A 
HETATM    8  N3  UNL     1      37.911   9.387  66.900  1.00  0.00    -0.336 N 
HETATM    9  C4  UNL     1      35.780   9.917  67.752  1.00  0.00     0.119 A 
HETATM   10  C2  UNL     1      37.307   8.458  66.139  1.00  0.00     0.183 A 
ATOM     11  H3  UNL     1      38.921   9.528  66.860  1.00  0.00     0.168 HD
HETATM   12  N2  UNL     1      35.967   8.242  66.163  1.00  0.00    -0.339 N 
HETATM   13  C1  UNL     1      35.162   8.956  66.963  1.00  0.00     0.148 A 
ATOM     14  H2  UNL     1      35.565   7.523  65.562  1.00  0.00     0.167 HD
HETATM   15  N1  UNL     1      33.761   8.795  67.049  1.00  0.00    -0.080 NA
HETATM   16  N4  UNL     1      35.299  10.804  68.657  1.00  0.00    -0.346 N 
HETATM   17  C5  UNL     1      36.329  11.517  69.144  1.00  0.00     0.188 A 
ATOM     18  H4  UNL     1      34.320  10.912  68.923  1.00  0.00     0.167 HD
ENDBRANCH   1   6
BRANCH   5  19
HETATM   19  O5  UNL     1      39.945  11.889  70.940  1.00  0.00    -0.388 OA
ATOM     20  H5  UNL     1      39.261  12.511  71.156  1.00  0.00     0.210 HD
ENDBRANCH   5  19
BRANCH   3  21
HETATM   21  C8  UNL     1      41.914  11.442  67.151  1.00  0.00     0.108 C 
BRANCH  21  22
HETATM   22  S1  UNL     1      41.213  10.102  66.115  1.00  0.00    -0.166 SA
BRANCH  22  23
HETATM   23  C9  UNL     1      41.107  10.711  64.393  1.00  0.00     0.076 C 
BRANCH  23  24
HETATM   24  C10 UNL     1      41.087   9.573  63.434  1.00  0.00     0.054 C 
BRANCH  24  25
HETATM   25  C11 UNL     1      42.316   9.511  62.570  1.00  0.00     0.284 C 
BRANCH  25  26
HETATM   26  N6  UNL     1      42.026   8.899  61.280  1.00  0.00    -0.065 N 
ATOM     27  H63 UNL     1      41.249   9.365  60.811  1.00  0.00     0.275 HD
ATOM     28  H62 UNL     1      42.760   9.094  60.600  1.00  0.00     0.275 HD
ATOM     29  H61 UNL     1      41.859   7.898  61.374  1.00  0.00     0.275 HD
ENDBRANCH  25  26
BRANCH  25  30
HETATM   30  C12 UNL     1      43.447   8.775  63.171  1.00  0.00     0.204 C 
HETATM   31  O2  UNL     1      43.861   7.678  62.658  1.00  0.00    -0.646 OA
HETATM   32  O3  UNL     1      44.138   9.183  64.297  1.00  0.00    -0.646 OA
ENDBRANCH  25  30
ENDBRANCH  24  25
ENDBRANCH  23  24
ENDBRANCH  22  23
ENDBRANCH  21  22
ENDBRANCH   3  21
BRANCH   4  33
HETATM   33  O4  UNL     1      41.891  10.523  70.105  1.00  0.00    -0.390 OA
ATOM     34  H4  UNL     1      41.945   9.696  70.568  1.00  0.00     0.210 HD
ENDBRANCH   4  33
TORSDOF 10
ENDMDL
