MODEL 4
REMARK VINA RESULT: -8.016160198      1.026      1.812
REMARK  10 active torsions:
REMARK  status: ('A' for Active; 'I' for Inactive)
REMARK    1  A    between atoms: N5_13  and  C6_14 
REMARK    2  A    between atoms: C7_16  and  C8_17 
REMARK    3  A    between atoms: C8_17  and  S1_18 
REMARK    4  A    between atoms: S1_18  and  C9_19 
REMARK    5  A    between atoms: C9_19  and  C10_20 
REMARK    6  A    between atoms: C10_20  and  C11_21 
REMARK    7  A    between atoms: C11_21  and  N6_22 
REMARK    8  A    between atoms: C11_21  and  C12_26 
REMARK    9  A    between atoms: C13_29  and  O4_30 
REMARK   10  A    between atoms: C14_32  and  O5_33 
ROOT
HETATM    1  C6  UNL     1      41.867  10.377  67.603  1.00  0.00     0.262 C 
HETATM    2  O1  UNL     1      40.544   9.993  67.839  1.00  0.00    -0.355 OA
HETATM    3  C7  UNL     1      40.029  10.994  68.696  1.00  0.00     0.165 C 
HETATM    4  C13 UNL     1      40.493  12.233  67.958  1.00  0.00     0.180 C 
HETATM    5  C14 UNL     1      41.952  11.853  67.748  1.00  0.00     0.198 C 
ENDROOT
BRANCH   1   6
HETATM    6  N5  UNL     1      42.372   9.846  66.376  1.00  0.00    -0.297 N 
HETATM    7  C3  UNL     1      41.863   9.892  65.131  1.00  0.00     0.142 A 
HETATM    8  N3  UNL     1      40.724  10.463  64.703  1.00  0.00    -0.336 N 
HETATM    9  C4  UNL     1      42.687   9.244  64.243  1.00  0.00     0.119 A 
HETATM   10  C2  UNL     1      40.435  10.370  63.393  1.00  0.00     0.183 A 
ATOM     11  H3  UNL     1      40.101  10.948  65.348  1.00  0.00     0.168 HD
HETATM   12  N2  UNL     1      41.238   9.733  62.504  1.00  0.00    -0.339 N 
HETATM   13  C1  UNL     1      42.383   9.152  62.891  1.00  0.00     0.148 A 
ATOM     14  H2  UNL     1      40.966   9.694  61.521  1.00  0.00     0.167 HD
HETATM   15  N1  UNL     1      43.273   8.470  62.033  1.00  0.00    -0.080 NA
HETATM   16  N4  UNL     1      43.731   8.789  64.978  1.00  0.00    -0.346 N 
HETATM   17  C5  UNL     1      43.541   9.150  66.259  1.00  0.00     0.188 A 
ATOM     18  H4  UNL     1      44.527   8.261  64.620  1.00  0.00     0.167 HD
ENDBRANCH   1   6
BRANCH   5  19
HETATM   19  O5  UNL     1      42.613  12.228  68.931  1.00  0.00    -0.388 OA
ATOM     20  H5  UNL     1      43.557  12.169  68.843  1.00  0.00     0.210 HD
ENDBRANCH   5  19
BRANCH   3  21
HETATM   21  C8  UNL     1      38.536  10.889  68.795  1.00  0.00     0.108 C 
BRANCH  21  22
HETATM   22  S1  UNL     1      37.984   9.934  67.330  1.00  0.00    -0.166 SA
BRANCH  22  23
HETATM   23  C9  UNL     1      36.932  11.023  66.305  1.00  0.00     0.076 C 
BRANCH  23  24
HETATM   24  C10 UNL     1      36.101  11.911  67.164  1.00  0.00     0.054 C 
BRANCH  24  25
HETATM   25  C11 UNL     1      34.630  11.608  67.072  1.00  0.00     0.284 C 
BRANCH  25  26
HETATM   26  N6  UNL     1      33.855  12.817  66.826  1.00  0.00    -0.065 N 
ATOM     27  H63 UNL     1      32.986  12.611  66.334  1.00  0.00     0.275 HD
ATOM     28  H62 UNL     1      33.462  13.192  67.689  1.00  0.00     0.275 HD
ATOM     29  H61 UNL     1      34.408  13.517  66.332  1.00  0.00     0.275 HD
ENDBRANCH  25  26
BRANCH  25  30
HETATM   30  C12 UNL     1      34.068  10.950  68.269  1.00  0.00     0.204 C 
HETATM   31  O2  UNL     1      34.643   9.930  68.784  1.00  0.00    -0.646 OA
HETATM   32  O3  UNL     1      32.918  11.357  68.920  1.00  0.00    -0.646 OA
ENDBRANCH  25  30
ENDBRANCH  24  25
ENDBRANCH  23  24
ENDBRANCH  22  23
ENDBRANCH  21  22
ENDBRANCH   3  21
BRANCH   4  33
HETATM   33  O4  UNL     1      40.377  13.375  68.745  1.00  0.00    -0.390 OA
ATOM     34  H4  UNL     1      39.567  13.379  69.241  1.00  0.00     0.210 HD
ENDBRANCH   4  33
TORSDOF 10
ENDMDL
