MODEL 8
REMARK VINA RESULT: -7.348427342      3.652      6.473
REMARK  6 active torsions:
REMARK  status: ('A' for Active; 'I' for Inactive)
REMARK    1  A    between atoms: N5_13  and  C6_14 
REMARK    2  A    between atoms: C7_16  and  C8_17 
REMARK    3  A    between atoms: C8_17  and  O2_18 
REMARK    4  A    between atoms: O2_18  and  P1_19 
REMARK    5  A    between atoms: C9_23  and  O6_24 
REMARK    6  A    between atoms: C10_26  and  O7_27 
ROOT
HETATM    1  C6  UNL     1      25.889  43.377  46.329  1.00  0.00     0.262 C 
HETATM    2  O1  UNL     1      26.712  42.719  47.193  1.00  0.00    -0.353 OA
HETATM    3  C7  UNL     1      27.509  41.844  46.493  1.00  0.00     0.180 C 
HETATM    4  C9  UNL     1      27.575  42.315  45.077  1.00  0.00     0.182 C 
HETATM    5  C10 UNL     1      26.311  43.092  44.924  1.00  0.00     0.198 C 
ENDROOT
BRANCH   1   6
HETATM    6  N5  UNL     1      25.855  44.805  46.599  1.00  0.00    -0.297 N 
HETATM    7  C3  UNL     1      26.443  45.492  47.605  1.00  0.00     0.142 A 
HETATM    8  N3  UNL     1      27.211  45.096  48.631  1.00  0.00    -0.336 N 
HETATM    9  C4  UNL     1      26.148  46.839  47.478  1.00  0.00     0.119 A 
HETATM   10  C2  UNL     1      27.688  45.978  49.520  1.00  0.00     0.183 A 
ATOM     11  H3  UNL     1      27.435  44.107  48.736  1.00  0.00     0.168 HD
HETATM   12  N2  UNL     1      27.388  47.279  49.376  1.00  0.00    -0.339 N 
HETATM   13  C1  UNL     1      26.630  47.773  48.385  1.00  0.00     0.148 A 
ATOM     14  H2  UNL     1      27.761  47.934  50.064  1.00  0.00     0.167 HD
HETATM   15  N1  UNL     1      26.346  49.160  48.282  1.00  0.00    -0.080 NA
HETATM   16  N4  UNL     1      25.384  46.954  46.394  1.00  0.00    -0.346 N 
HETATM   17  C5  UNL     1      25.208  45.731  45.867  1.00  0.00     0.188 A 
ATOM     18  H4  UNL     1      24.996  47.823  46.027  1.00  0.00     0.167 HD
ENDBRANCH   1   6
BRANCH   5  19
HETATM   19  O7  UNL     1      25.345  42.426  44.178  1.00  0.00    -0.388 OA
ATOM     20  H7  UNL     1      25.707  41.889  43.483  1.00  0.00     0.210 HD
ENDBRANCH   5  19
BRANCH   3  21
HETATM   21  C8  UNL     1      28.903  41.906  47.134  1.00  0.00     0.217 C 
BRANCH  21  22
HETATM   22  O2  UNL     1      28.822  42.778  48.220  1.00  0.00    -0.280 OA
BRANCH  22  23
HETATM   23  P1  UNL     1      30.051  42.540  49.326  1.00  0.00     0.422 P 
HETATM   24  O3  UNL     1      29.707  41.373  50.230  1.00  0.00    -0.617 OA
HETATM   25  O4  UNL     1      30.355  43.934  50.223  1.00  0.00    -0.617 OA
HETATM   26  O5  UNL     1      31.472  42.123  48.492  1.00  0.00    -0.617 OA
ENDBRANCH  22  23
ENDBRANCH  21  22
ENDBRANCH   3  21
BRANCH   4  27
HETATM   27  O6  UNL     1      27.563  41.274  44.155  1.00  0.00    -0.390 OA
ATOM     28  H6  UNL     1      28.406  40.844  44.068  1.00  0.00     0.210 HD
ENDBRANCH   4  27
TORSDOF 6
ENDMDL
