MODEL 10
REMARK VINA RESULT: -7.256159561      4.326      6.476
REMARK  6 active torsions:
REMARK  status: ('A' for Active; 'I' for Inactive)
REMARK    1  A    between atoms: N5_13  and  C6_14 
REMARK    2  A    between atoms: C7_16  and  C8_17 
REMARK    3  A    between atoms: C8_17  and  O2_18 
REMARK    4  A    between atoms: O2_18  and  P1_19 
REMARK    5  A    between atoms: C9_23  and  O6_24 
REMARK    6  A    between atoms: C10_26  and  O7_27 
ROOT
HETATM    1  C6  UNL     1      25.082  44.845  44.838  1.00  0.00     0.262 C 
HETATM    2  O1  UNL     1      25.484  45.696  45.823  1.00  0.00    -0.353 OA
HETATM    3  C7  UNL     1      25.350  45.081  47.046  1.00  0.00     0.180 C 
HETATM    4  C9  UNL     1      25.352  43.605  46.819  1.00  0.00     0.182 C 
HETATM    5  C10 UNL     1      24.874  43.481  45.411  1.00  0.00     0.198 C 
ENDROOT
BRANCH   1   6
HETATM    6  N5  UNL     1      26.024  44.821  43.729  1.00  0.00    -0.297 N 
HETATM    7  C3  UNL     1      25.769  44.788  42.401  1.00  0.00     0.142 A 
HETATM    8  N3  UNL     1      24.620  44.765  41.710  1.00  0.00    -0.336 N 
HETATM    9  C4  UNL     1      26.965  44.777  41.703  1.00  0.00     0.119 A 
HETATM   10  C2  UNL     1      24.619  44.732  40.370  1.00  0.00     0.183 A 
ATOM     11  H3  UNL     1      23.733  44.773  42.212  1.00  0.00     0.168 HD
HETATM   12  N2  UNL     1      25.791  44.721  39.715  1.00  0.00    -0.339 N 
HETATM   13  C1  UNL     1      26.991  44.743  40.316  1.00  0.00     0.148 A 
ATOM     14  H2  UNL     1      25.768  44.696  38.695  1.00  0.00     0.167 HD
HETATM   15  N1  UNL     1      28.199  44.730  39.571  1.00  0.00    -0.080 NA
HETATM   16  N4  UNL     1      27.932  44.804  42.617  1.00  0.00    -0.346 N 
HETATM   17  C5  UNL     1      27.365  44.831  43.835  1.00  0.00     0.188 A 
ATOM     18  H4  UNL     1      28.934  44.804  42.426  1.00  0.00     0.167 HD
ENDBRANCH   1   6
BRANCH   5  19
HETATM   19  O7  UNL     1      23.560  43.034  45.317  1.00  0.00    -0.388 OA
ATOM     20  H7  UNL     1      23.449  42.128  45.579  1.00  0.00     0.210 HD
ENDBRANCH   5  19
BRANCH   3  21
HETATM   21  C8  UNL     1      26.572  45.487  47.881  1.00  0.00     0.217 C 
BRANCH  21  22
HETATM   22  O2  UNL     1      26.103  46.215  48.975  1.00  0.00    -0.280 OA
BRANCH  22  23
HETATM   23  P1  UNL     1      26.126  47.864  48.705  1.00  0.00     0.422 P 
HETATM   24  O3  UNL     1      24.815  48.298  48.080  1.00  0.00    -0.617 OA
HETATM   25  O4  UNL     1      27.436  48.316  47.746  1.00  0.00    -0.617 OA
HETATM   26  O5  UNL     1      26.256  48.666  50.198  1.00  0.00    -0.617 OA
ENDBRANCH  22  23
ENDBRANCH  21  22
ENDBRANCH   3  21
BRANCH   4  27
HETATM   27  O6  UNL     1      24.463  42.925  47.645  1.00  0.00    -0.390 OA
ATOM     28  H6  UNL     1      24.383  43.315  48.507  1.00  0.00     0.210 HD
ENDBRANCH   4  27
TORSDOF 6
ENDMDL
