MODEL 15
REMARK VINA RESULT: -7.152012317      5.356      7.819
REMARK  6 active torsions:
REMARK  status: ('A' for Active; 'I' for Inactive)
REMARK    1  A    between atoms: N5_13  and  C6_14 
REMARK    2  A    between atoms: C7_16  and  C8_17 
REMARK    3  A    between atoms: C8_17  and  O2_18 
REMARK    4  A    between atoms: O2_18  and  P1_19 
REMARK    5  A    between atoms: C9_23  and  O6_24 
REMARK    6  A    between atoms: C10_26  and  O7_27 
ROOT
HETATM    1  C6  UNL     1      24.813  42.413  40.033  1.00  0.00     0.262 C 
HETATM    2  O1  UNL     1      25.886  43.142  40.450  1.00  0.00    -0.353 OA
HETATM    3  C7  UNL     1      25.620  44.482  40.293  1.00  0.00     0.180 C 
HETATM    4  C9  UNL     1      24.137  44.655  40.260  1.00  0.00     0.182 C 
HETATM    5  C10 UNL     1      23.656  43.325  39.788  1.00  0.00     0.198 C 
ENDROOT
BRANCH   1   6
HETATM    6  N5  UNL     1      24.475  41.362  40.980  1.00  0.00    -0.297 N 
HETATM    7  C3  UNL     1      24.478  41.406  42.332  1.00  0.00     0.142 A 
HETATM    8  N3  UNL     1      24.778  42.387  43.195  1.00  0.00    -0.336 N 
HETATM    9  C4  UNL     1      24.087  40.177  42.834  1.00  0.00     0.119 A 
HETATM   10  C2  UNL     1      24.706  42.191  44.519  1.00  0.00     0.183 A 
ATOM     11  H3  UNL     1      25.068  43.298  42.839  1.00  0.00     0.168 HD
HETATM   12  N2  UNL     1      24.325  40.990  44.983  1.00  0.00    -0.339 N 
HETATM   13  C1  UNL     1      24.004  39.948  44.201  1.00  0.00     0.148 A 
ATOM     14  H2  UNL     1      24.277  40.862  45.993  1.00  0.00     0.167 HD
HETATM   15  N1  UNL     1      23.607  38.699  44.747  1.00  0.00    -0.080 NA
HETATM   16  N4  UNL     1      23.852  39.399  41.779  1.00  0.00    -0.346 N 
HETATM   17  C5  UNL     1      24.086  40.113  40.665  1.00  0.00     0.188 A 
ATOM     18  H4  UNL     1      23.547  38.427  41.812  1.00  0.00     0.167 HD
ENDBRANCH   1   6
BRANCH   5  19
HETATM   19  O7  UNL     1      23.228  43.336  38.464  1.00  0.00    -0.388 OA
ATOM     20  H7  UNL     1      22.310  43.557  38.365  1.00  0.00     0.210 HD
ENDBRANCH   5  19
BRANCH   3  21
HETATM   21  C8  UNL     1      26.207  45.195  41.520  1.00  0.00     0.217 C 
BRANCH  21  22
HETATM   22  O2  UNL     1      25.139  45.541  42.348  1.00  0.00    -0.280 OA
BRANCH  22  23
HETATM   23  P1  UNL     1      25.637  46.006  43.874  1.00  0.00     0.422 P 
HETATM   24  O3  UNL     1      25.927  47.493  43.886  1.00  0.00    -0.617 OA
HETATM   25  O4  UNL     1      26.977  45.120  44.384  1.00  0.00    -0.617 OA
HETATM   26  O5  UNL     1      24.370  45.736  44.974  1.00  0.00    -0.617 OA
ENDBRANCH  22  23
ENDBRANCH  21  22
ENDBRANCH   3  21
BRANCH   4  27
HETATM   27  O6  UNL     1      23.721  45.621  39.350  1.00  0.00    -0.390 OA
ATOM     28  H6  UNL     1      24.348  46.326  39.242  1.00  0.00     0.210 HD
ENDBRANCH   4  27
TORSDOF 6
ENDMDL
