MODEL 8
REMARK VINA RESULT: -7.809464685      2.273      6.775
REMARK  5 active torsions:
REMARK  status: ('A' for Active; 'I' for Inactive)
REMARK    1  A    between atoms: C4_4  and  O1_5 
REMARK    2  A    between atoms: C19_22  and  O3_23 
REMARK    3  A    between atoms: C19_22  and  C20_25 
REMARK    4  A    between atoms: C20_25  and  C21_27 
REMARK    5  A    between atoms: C21_27  and  O5_28 
ROOT
HETATM    1  C1  UNL     1      47.810 -11.270   7.118  1.00  0.00     0.019 C 
HETATM    2  C2  UNL     1      48.850 -11.935   7.940  1.00  0.00     0.001 C 
HETATM    3  C3  UNL     1      50.182 -11.283   7.924  1.00  0.00     0.045 C 
HETATM    4  C4  UNL     1      50.756 -11.399   6.509  1.00  0.00     0.124 C 
HETATM    5  C5  UNL     1      50.961 -12.831   6.205  1.00  0.00     0.031 C 
HETATM    6  C6  UNL     1      49.639 -13.568   6.177  1.00  0.00    -0.002 C 
HETATM    7  C7  UNL     1      49.792 -15.052   5.948  1.00  0.00     0.010 C 
HETATM    8  C8  UNL     1      50.723 -15.415   4.829  1.00  0.00     0.035 C 
HETATM    9  C9  UNL     1      51.992 -14.624   5.027  1.00  0.00    -0.068 C 
HETATM   10  C10 UNL     1      53.124 -15.243   5.201  1.00  0.00     0.053 C 
HETATM   11  C11 UNL     1      54.339 -14.468   5.391  1.00  0.00     0.149 C 
HETATM   12  O2  UNL     1      55.445 -15.010   5.175  1.00  0.00    -0.293 OA
HETATM   13  C12 UNL     1      54.157 -13.060   5.838  1.00  0.00     0.084 C 
HETATM   14  C13 UNL     1      53.090 -12.467   4.941  1.00  0.00     0.022 C 
HETATM   15  C14 UNL     1      51.779 -13.154   4.999  1.00  0.00    -0.014 C 
HETATM   16  C15 UNL     1      51.060 -12.869   3.693  1.00  0.00     0.020 C 
HETATM   17  C16 UNL     1      49.039 -13.405   7.533  1.00  0.00     0.002 C 
HETATM   18  C17 UNL     1      47.636 -13.894   7.706  1.00  0.00     0.009 C 
HETATM   19  C18 UNL     1      47.200 -13.177   8.992  1.00  0.00     0.047 C 
HETATM   20  C19 UNL     1      48.320 -12.220   9.326  1.00  0.00     0.128 C 
ENDROOT
BRANCH  20  21
HETATM   21  O3  UNL     1      49.318 -13.007   9.943  1.00  0.00    -0.381 OA
ATOM     22  H3  UNL     1      49.051 -13.074  10.852  1.00  0.00     0.211 HD
ENDBRANCH  20  21
BRANCH  20  23
HETATM   23  C20 UNL     1      47.953 -11.071  10.130  1.00  0.00     0.184 C 
HETATM   24  O4  UNL     1      48.681 -10.067  10.004  1.00  0.00    -0.292 OA
BRANCH  23  25
HETATM   25  C21 UNL     1      46.843 -10.914  11.078  1.00  0.00     0.245 C 
BRANCH  25  26
HETATM   26  O5  UNL     1      47.086 -11.558  12.299  1.00  0.00    -0.393 OA
ATOM     27  H5  UNL     1      47.029 -10.965  13.039  1.00  0.00     0.209 HD
ENDBRANCH  25  26
ENDBRANCH  23  25
ENDBRANCH  20  23
BRANCH   4  28
HETATM   28  O1  UNL     1      50.032 -10.678   5.603  1.00  0.00    -0.395 OA
ATOM     29  H1  UNL     1      50.094 -11.042   4.727  1.00  0.00     0.210 HD
ENDBRANCH   4  28
TORSDOF 5
ENDMDL
