MODEL 2
REMARK VINA RESULT: -9.855849258      1.101      1.175
REMARK  5 active torsions:
REMARK  status: ('A' for Active; 'I' for Inactive)
REMARK    1  A    between atoms: C4_4  and  O1_5 
REMARK    2  A    between atoms: C19_22  and  O3_23 
REMARK    3  A    between atoms: C19_22  and  C20_25 
REMARK    4  A    between atoms: C20_25  and  C21_27 
REMARK    5  A    between atoms: C21_27  and  O5_28 
ROOT
HETATM    1  C1  UNL     1      48.125 -11.830   6.344  1.00  0.00     0.019 C 
HETATM    2  C2  UNL     1      49.177 -12.153   7.339  1.00  0.00     0.001 C 
HETATM    3  C3  UNL     1      49.301 -13.590   7.684  1.00  0.00     0.045 C 
HETATM    4  C4  UNL     1      48.022 -14.023   8.405  1.00  0.00     0.124 C 
HETATM    5  C5  UNL     1      47.924 -13.271   9.673  1.00  0.00     0.031 C 
HETATM    6  C6  UNL     1      47.769 -11.788   9.407  1.00  0.00    -0.002 C 
HETATM    7  C7  UNL     1      47.742 -10.959  10.668  1.00  0.00     0.010 C 
HETATM    8  C8  UNL     1      46.838 -11.489  11.742  1.00  0.00     0.035 C 
HETATM    9  C9  UNL     1      47.146 -12.958  11.901  1.00  0.00    -0.068 C 
HETATM   10  C10 UNL     1      47.573 -13.413  13.044  1.00  0.00     0.053 C 
HETATM   11  C11 UNL     1      47.867 -14.830  13.183  1.00  0.00     0.149 C 
HETATM   12  O2  UNL     1      47.898 -15.334  14.327  1.00  0.00    -0.293 OA
HETATM   13  C12 UNL     1      48.111 -15.578  11.919  1.00  0.00     0.084 C 
HETATM   14  C13 UNL     1      46.990 -15.191  10.977  1.00  0.00     0.022 C 
HETATM   15  C14 UNL     1      46.913 -13.745  10.663  1.00  0.00    -0.014 C 
HETATM   16  C15 UNL     1      45.484 -13.446  10.250  1.00  0.00     0.020 C 
HETATM   17  C16 UNL     1      48.980 -11.369   8.645  1.00  0.00     0.002 C 
HETATM   18  C17 UNL     1      48.978  -9.975   8.103  1.00  0.00     0.009 C 
HETATM   19  C18 UNL     1      50.084 -10.041   7.039  1.00  0.00     0.047 C 
HETATM   20  C19 UNL     1      50.483 -11.496   6.954  1.00  0.00     0.128 C 
ENDROOT
BRANCH  20  21
HETATM   21  O3  UNL     1      51.340 -11.719   8.053  1.00  0.00    -0.381 OA
ATOM     22  H3  UNL     1      51.583 -10.851   8.355  1.00  0.00     0.211 HD
ENDBRANCH  20  21
BRANCH  20  23
HETATM   23  C20 UNL     1      51.077 -11.917   5.700  1.00  0.00     0.184 C 
HETATM   24  O4  UNL     1      51.001 -11.098   4.763  1.00  0.00    -0.292 OA
BRANCH  23  25
HETATM   25  C21 UNL     1      51.759 -13.174   5.369  1.00  0.00     0.245 C 
BRANCH  25  26
HETATM   26  O5  UNL     1      52.655 -13.577   6.368  1.00  0.00    -0.393 OA
ATOM     27  H5  UNL     1      52.648 -14.517   6.504  1.00  0.00     0.209 HD
ENDBRANCH  25  26
ENDBRANCH  23  25
ENDBRANCH  20  23
BRANCH   4  28
HETATM   28  O1  UNL     1      46.932 -13.982   7.582  1.00  0.00    -0.395 OA
ATOM     29  H1  UNL     1      46.705 -14.842   7.250  1.00  0.00     0.210 HD
ENDBRANCH   4  28
TORSDOF 5
ENDMDL
