MODEL 9
REMARK VINA RESULT: -7.730702110      1.798      6.472
REMARK  5 active torsions:
REMARK  status: ('A' for Active; 'I' for Inactive)
REMARK    1  A    between atoms: C4_4  and  O1_5 
REMARK    2  A    between atoms: C19_22  and  O3_23 
REMARK    3  A    between atoms: C19_22  and  C20_25 
REMARK    4  A    between atoms: C20_25  and  C21_27 
REMARK    5  A    between atoms: C21_27  and  O5_28 
ROOT
HETATM    1  C1  UNL     1      46.684 -11.533   8.946  1.00  0.00     0.019 C 
HETATM    2  C2  UNL     1      47.842 -12.227   9.563  1.00  0.00     0.001 C 
HETATM    3  C3  UNL     1      49.082 -11.418   9.664  1.00  0.00     0.045 C 
HETATM    4  C4  UNL     1      49.586 -11.133   8.247  1.00  0.00     0.124 C 
HETATM    5  C5  UNL     1      49.946 -12.418   7.612  1.00  0.00     0.031 C 
HETATM    6  C6  UNL     1      48.724 -13.297   7.448  1.00  0.00    -0.002 C 
HETATM    7  C7  UNL     1      49.044 -14.656   6.875  1.00  0.00     0.010 C 
HETATM    8  C8  UNL     1      49.947 -14.630   5.678  1.00  0.00     0.035 C 
HETATM    9  C9  UNL     1      51.120 -13.744   6.022  1.00  0.00    -0.068 C 
HETATM   10  C10 UNL     1      52.327 -14.234   6.017  1.00  0.00     0.053 C 
HETATM   11  C11 UNL     1      53.447 -13.370   6.351  1.00  0.00     0.149 C 
HETATM   12  O2  UNL     1      54.597 -13.698   5.987  1.00  0.00    -0.293 OA
HETATM   13  C12 UNL     1      53.121 -12.136   7.119  1.00  0.00     0.084 C 
HETATM   14  C13 UNL     1      51.941 -11.501   6.413  1.00  0.00     0.022 C 
HETATM   15  C14 UNL     1      50.728 -12.348   6.343  1.00  0.00    -0.014 C 
HETATM   16  C15 UNL     1      49.909 -11.870   5.159  1.00  0.00     0.020 C 
HETATM   17  C16 UNL     1      48.185 -13.527   8.819  1.00  0.00     0.002 C 
HETATM   18  C17 UNL     1      46.864 -14.222   8.910  1.00  0.00     0.009 C 
HETATM   19  C18 UNL     1      46.416 -13.880  10.339  1.00  0.00     0.047 C 
HETATM   20  C19 UNL     1      47.429 -12.887  10.857  1.00  0.00     0.128 C 
ENDROOT
BRANCH  20  21
HETATM   21  O3  UNL     1      48.548 -13.655  11.247  1.00  0.00    -0.381 OA
ATOM     22  H3  UNL     1      48.781 -13.329  12.109  1.00  0.00     0.211 HD
ENDBRANCH  20  21
BRANCH  20  23
HETATM   23  C20 UNL     1      46.970 -12.010  11.916  1.00  0.00     0.184 C 
HETATM   24  O4  UNL     1      46.404 -10.962  11.545  1.00  0.00    -0.292 OA
BRANCH  23  25
HETATM   25  C21 UNL     1      47.074 -12.173  13.372  1.00  0.00     0.245 C 
BRANCH  25  26
HETATM   26  O5  UNL     1      47.432 -13.476  13.740  1.00  0.00    -0.393 OA
ATOM     27  H5  UNL     1      46.676 -14.029  13.902  1.00  0.00     0.209 HD
ENDBRANCH  25  26
ENDBRANCH  23  25
ENDBRANCH  20  23
BRANCH   4  28
HETATM   28  O1  UNL     1      48.731 -10.325   7.553  1.00  0.00    -0.395 OA
ATOM     29  H1  UNL     1      48.597 -10.631   6.663  1.00  0.00     0.210 HD
ENDBRANCH   4  28
TORSDOF 5
ENDMDL
