MODEL 10
REMARK VINA RESULT: -7.546549266      2.727      7.162
REMARK  5 active torsions:
REMARK  status: ('A' for Active; 'I' for Inactive)
REMARK    1  A    between atoms: C4_4  and  O1_5 
REMARK    2  A    between atoms: C19_22  and  O3_23 
REMARK    3  A    between atoms: C19_22  and  C20_25 
REMARK    4  A    between atoms: C20_25  and  C21_27 
REMARK    5  A    between atoms: C21_27  and  O5_28 
ROOT
HETATM    1  C1  UNL     1      48.012 -11.994   6.012  1.00  0.00     0.019 C 
HETATM    2  C2  UNL     1      49.083 -12.364   6.971  1.00  0.00     0.001 C 
HETATM    3  C3  UNL     1      50.280 -11.488   6.950  1.00  0.00     0.045 C 
HETATM    4  C4  UNL     1      50.976 -11.657   5.597  1.00  0.00     0.124 C 
HETATM    5  C5  UNL     1      51.448 -13.053   5.486  1.00  0.00     0.031 C 
HETATM    6  C6  UNL     1      50.279 -14.016   5.474  1.00  0.00    -0.002 C 
HETATM    7  C7  UNL     1      50.704 -15.464   5.441  1.00  0.00     0.010 C 
HETATM    8  C8  UNL     1      51.769 -15.777   4.432  1.00  0.00     0.035 C 
HETATM    9  C9  UNL     1      52.863 -14.751   4.604  1.00  0.00    -0.068 C 
HETATM   10  C10 UNL     1      54.068 -15.133   4.920  1.00  0.00     0.053 C 
HETATM   11  C11 UNL     1      55.111 -14.134   5.082  1.00  0.00     0.149 C 
HETATM   12  O2  UNL     1      56.308 -14.488   5.000  1.00  0.00    -0.293 OA
HETATM   13  C12 UNL     1      54.655 -12.741   5.338  1.00  0.00     0.084 C 
HETATM   14  C13 UNL     1      53.576 -12.456   4.314  1.00  0.00     0.022 C 
HETATM   15  C14 UNL     1      52.402 -13.357   4.380  1.00  0.00    -0.014 C 
HETATM   16  C15 UNL     1      51.751 -13.355   3.009  1.00  0.00     0.020 C 
HETATM   17  C16 UNL     1      49.554 -13.812   6.762  1.00  0.00     0.002 C 
HETATM   18  C17 UNL     1      48.248 -14.524   6.912  1.00  0.00     0.009 C 
HETATM   19  C18 UNL     1      47.593 -13.757   8.071  1.00  0.00     0.047 C 
HETATM   20  C19 UNL     1      48.502 -12.582   8.348  1.00  0.00     0.128 C 
ENDROOT
BRANCH  20  21
HETATM   21  O3  UNL     1      49.568 -13.101   9.115  1.00  0.00    -0.381 OA
ATOM     22  H3  UNL     1      49.409 -14.037   9.155  1.00  0.00     0.211 HD
ENDBRANCH  20  21
BRANCH  20  23
HETATM   23  C20 UNL     1      47.879 -11.436   8.979  1.00  0.00     0.184 C 
HETATM   24  O4  UNL     1      46.728 -11.160   8.587  1.00  0.00    -0.292 OA
BRANCH  23  25
HETATM   25  C21 UNL     1      48.407 -10.545  10.020  1.00  0.00     0.245 C 
BRANCH  25  26
HETATM   26  O5  UNL     1      47.564 -10.465  11.135  1.00  0.00    -0.393 OA
ATOM     27  H5  UNL     1      48.037 -10.547  11.955  1.00  0.00     0.209 HD
ENDBRANCH  25  26
ENDBRANCH  23  25
ENDBRANCH  20  23
BRANCH   4  28
HETATM   28  O1  UNL     1      50.213 -11.185   4.567  1.00  0.00    -0.395 OA
ATOM     29  H1  UNL     1      50.616 -10.438   4.139  1.00  0.00     0.210 HD
ENDBRANCH   4  28
TORSDOF 5
ENDMDL
