MODEL 1
REMARK VINA RESULT: -9.893277299      0.000      0.000
REMARK  5 active torsions:
REMARK  status: ('A' for Active; 'I' for Inactive)
REMARK    1  A    between atoms: C4_4  and  O1_5 
REMARK    2  A    between atoms: C19_22  and  O3_23 
REMARK    3  A    between atoms: C19_22  and  C20_25 
REMARK    4  A    between atoms: C20_25  and  C21_27 
REMARK    5  A    between atoms: C21_27  and  O5_28 
ROOT
HETATM    1  C1  UNL     1      48.874 -12.817   6.316  1.00  0.00     0.019 C 
HETATM    2  C2  UNL     1      49.561 -12.339   7.542  1.00  0.00     0.001 C 
HETATM    3  C3  UNL     1      50.082 -13.406   8.432  1.00  0.00     0.045 C 
HETATM    4  C4  UNL     1      48.890 -14.180   9.002  1.00  0.00     0.124 C 
HETATM    5  C5  UNL     1      48.092 -13.258   9.838  1.00  0.00     0.031 C 
HETATM    6  C6  UNL     1      47.500 -12.148   8.996  1.00  0.00    -0.002 C 
HETATM    7  C7  UNL     1      46.736 -11.130   9.808  1.00  0.00     0.010 C 
HETATM    8  C8  UNL     1      45.785 -11.719  10.807  1.00  0.00     0.035 C 
HETATM    9  C9  UNL     1      46.540 -12.775  11.576  1.00  0.00    -0.068 C 
HETATM   10  C10 UNL     1      46.685 -12.661  12.866  1.00  0.00     0.053 C 
HETATM   11  C11 UNL     1      47.416 -13.685  13.594  1.00  0.00     0.149 C 
HETATM   12  O2  UNL     1      47.237 -13.798  14.826  1.00  0.00    -0.293 OA
HETATM   13  C12 UNL     1      48.337 -14.534  12.790  1.00  0.00     0.084 C 
HETATM   14  C13 UNL     1      47.549 -14.976  11.574  1.00  0.00     0.022 C 
HETATM   15  C14 UNL     1      47.055 -13.872  10.718  1.00  0.00    -0.014 C 
HETATM   16  C15 UNL     1      45.852 -14.394   9.955  1.00  0.00     0.020 C 
HETATM   17  C16 UNL     1      48.652 -11.427   8.380  1.00  0.00     0.002 C 
HETATM   18  C17 UNL     1      48.320 -10.392   7.353  1.00  0.00     0.009 C 
HETATM   19  C18 UNL     1      49.664 -10.210   6.632  1.00  0.00     0.047 C 
HETATM   20  C19 UNL     1      50.576 -11.276   7.193  1.00  0.00     0.128 C 
ENDROOT
BRANCH  20  21
HETATM   21  O3  UNL     1      51.021 -10.776   8.437  1.00  0.00    -0.381 OA
ATOM     22  H3  UNL     1      51.951 -10.974   8.462  1.00  0.00     0.211 HD
ENDBRANCH  20  21
BRANCH  20  23
HETATM   23  C20 UNL     1      51.675 -11.682   6.340  1.00  0.00     0.184 C 
HETATM   24  O4  UNL     1      51.513 -11.488   5.119  1.00  0.00    -0.292 OA
BRANCH  23  25
HETATM   25  C21 UNL     1      52.959 -12.293   6.703  1.00  0.00     0.245 C 
BRANCH  25  26
HETATM   26  O5  UNL     1      53.459 -11.808   7.918  1.00  0.00    -0.393 OA
ATOM     27  H5  UNL     1      52.888 -11.159   8.313  1.00  0.00     0.209 HD
ENDBRANCH  25  26
ENDBRANCH  23  25
ENDBRANCH  20  23
BRANCH   4  28
HETATM   28  O1  UNL     1      48.217 -14.868   8.034  1.00  0.00    -0.395 OA
ATOM     29  H1  UNL     1      47.358 -14.497   7.866  1.00  0.00     0.210 HD
ENDBRANCH   4  28
TORSDOF 5
ENDMDL
