MODEL 3
REMARK VINA RESULT: -9.793621427      1.098      1.520
REMARK  5 active torsions:
REMARK  status: ('A' for Active; 'I' for Inactive)
REMARK    1  A    between atoms: C4_4  and  O1_5 
REMARK    2  A    between atoms: C19_22  and  O3_23 
REMARK    3  A    between atoms: C19_22  and  C20_25 
REMARK    4  A    between atoms: C20_25  and  C21_27 
REMARK    5  A    between atoms: C21_27  and  O5_28 
ROOT
HETATM    1  C1  UNL     1      48.285 -12.094   6.349  1.00  0.00     0.019 C 
HETATM    2  C2  UNL     1      49.302 -12.325   7.405  1.00  0.00     0.001 C 
HETATM    3  C3  UNL     1      49.400 -13.722   7.894  1.00  0.00     0.045 C 
HETATM    4  C4  UNL     1      48.094 -14.071   8.613  1.00  0.00     0.124 C 
HETATM    5  C5  UNL     1      47.965 -13.196   9.797  1.00  0.00     0.031 C 
HETATM    6  C6  UNL     1      47.833 -11.746   9.381  1.00  0.00    -0.002 C 
HETATM    7  C7  UNL     1      47.776 -10.796  10.552  1.00  0.00     0.010 C 
HETATM    8  C8  UNL     1      46.834 -11.210  11.643  1.00  0.00     0.035 C 
HETATM    9  C9  UNL     1      47.121 -12.658  11.956  1.00  0.00    -0.068 C 
HETATM   10  C10 UNL     1      47.507 -13.001  13.152  1.00  0.00     0.053 C 
HETATM   11  C11 UNL     1      47.781 -14.399  13.440  1.00  0.00     0.149 C 
HETATM   12  O2  UNL     1      47.771 -14.788  14.628  1.00  0.00    -0.293 OA
HETATM   13  C12 UNL     1      48.056 -15.271  12.265  1.00  0.00     0.084 C 
HETATM   14  C13 UNL     1      46.969 -14.970  11.253  1.00  0.00     0.022 C 
HETATM   15  C14 UNL     1      46.918 -13.562  10.796  1.00  0.00    -0.014 C 
HETATM   16  C15 UNL     1      45.506 -13.295  10.310  1.00  0.00     0.020 C 
HETATM   17  C16 UNL     1      49.073 -11.414   8.620  1.00  0.00     0.002 C 
HETATM   18  C17 UNL     1      49.103 -10.081   7.943  1.00  0.00     0.009 C 
HETATM   19  C18 UNL     1      50.241 -10.261   6.927  1.00  0.00     0.047 C 
HETATM   20  C19 UNL     1      50.626 -11.719   6.999  1.00  0.00     0.128 C 
ENDROOT
BRANCH  20  21
HETATM   21  O3  UNL     1      51.446 -11.839   8.142  1.00  0.00    -0.381 OA
ATOM     22  H3  UNL     1      51.326 -11.024   8.616  1.00  0.00     0.211 HD
ENDBRANCH  20  21
BRANCH  20  23
HETATM   23  C20 UNL     1      51.254 -12.268   5.813  1.00  0.00     0.184 C 
HETATM   24  O4  UNL     1      51.820 -13.369   5.960  1.00  0.00    -0.292 OA
BRANCH  23  25
HETATM   25  C21 UNL     1      51.325 -11.714   4.455  1.00  0.00     0.245 C 
BRANCH  25  26
HETATM   26  O5  UNL     1      50.402 -12.308   3.586  1.00  0.00    -0.393 OA
ATOM     27  H5  UNL     1      50.806 -12.618   2.783  1.00  0.00     0.209 HD
ENDBRANCH  25  26
ENDBRANCH  23  25
ENDBRANCH  20  23
BRANCH   4  28
HETATM   28  O1  UNL     1      47.031 -14.104   7.756  1.00  0.00    -0.395 OA
ATOM     29  H1  UNL     1      46.433 -13.381   7.904  1.00  0.00     0.210 HD
ENDBRANCH   4  28
TORSDOF 5
ENDMDL
