MODEL 6
REMARK VINA RESULT: -6.582655935      2.756      4.843
REMARK  3 active torsions:
REMARK  status: ('A' for Active; 'I' for Inactive)
REMARK    1  A    between atoms: C2_2  and  C3_3 
REMARK    2  A    between atoms: C5_5  and  C6_6 
REMARK    3  A    between atoms: C11_13  and  O2_14 
ROOT
HETATM    1  C6  UNL     1      39.834  72.032  59.511  1.00  0.00     0.079 C 
HETATM    2  C7  UNL     1      39.928  73.482  59.208  1.00  0.00     0.039 C 
HETATM    3  S1  UNL     1      41.574  71.400  59.360  1.00  0.00    -0.067 SA
HETATM    4  C8  UNL     1      41.072  69.869  58.560  1.00  0.00     0.218 C 
HETATM    5  O1  UNL     1      41.752  68.829  58.573  1.00  0.00    -0.280 OA
HETATM    6  C9  UNL     1      39.790  70.219  57.982  1.00  0.00     0.026 C 
HETATM    7  C10 UNL     1      39.174  69.374  56.875  1.00  0.00     0.056 C 
HETATM    8  C11 UNL     1      39.196  71.263  58.443  1.00  0.00     0.076 C 
ENDROOT
BRANCH   1   9
HETATM    9  C5  UNL     1      39.419  71.656  60.866  1.00  0.00     0.007 C 
HETATM   10  C3  UNL     1      39.771  72.232  61.999  1.00  0.00    -0.065 C 
HETATM   11  C4  UNL     1      40.664  73.385  62.001  1.00  0.00     0.048 C 
BRANCH  10  12
HETATM   12  C2  UNL     1      39.271  71.740  63.296  1.00  0.00    -0.004 C 
HETATM   13  C1  UNL     1      40.036  71.230  64.219  1.00  0.00     0.012 C 
ENDBRANCH  10  12
ENDBRANCH   1   9
BRANCH   8  14
HETATM   14  O2  UNL     1      37.922  71.710  57.948  1.00  0.00    -0.362 OA
ATOM     15  H2  UNL     1      37.163  71.157  58.091  1.00  0.00     0.217 HD
ENDBRANCH   8  14
TORSDOF 3
ENDMDL
