MODEL 5
REMARK VINA RESULT: -6.972262174      2.205      4.300
REMARK  3 active torsions:
REMARK  status: ('A' for Active; 'I' for Inactive)
REMARK    1  A    between atoms: C2_2  and  C3_3 
REMARK    2  A    between atoms: C5_5  and  C6_6 
REMARK    3  A    between atoms: C11_13  and  O2_14 
ROOT
HETATM    1  C6  UNL     1      39.719  71.835  59.664  1.00  0.00     0.079 C 
HETATM    2  C7  UNL     1      38.902  72.480  58.604  1.00  0.00     0.039 C 
HETATM    3  S1  UNL     1      38.507  70.840  60.660  1.00  0.00    -0.067 SA
HETATM    4  C8  UNL     1      39.278  71.257  62.230  1.00  0.00     0.218 C 
HETATM    5  O1  UNL     1      39.174  70.564  63.255  1.00  0.00    -0.280 OA
HETATM    6  C9  UNL     1      39.961  72.499  61.927  1.00  0.00     0.026 C 
HETATM    7  C10 UNL     1      40.415  73.435  63.041  1.00  0.00     0.056 C 
HETATM    8  C11 UNL     1      40.172  72.775  60.689  1.00  0.00     0.076 C 
ENDROOT
BRANCH   1   9
HETATM    9  C5  UNL     1      40.731  70.866  59.234  1.00  0.00     0.007 C 
HETATM   10  C3  UNL     1      40.578  69.880  58.371  1.00  0.00    -0.065 C 
HETATM   11  C4  UNL     1      39.294  69.657  57.716  1.00  0.00     0.048 C 
BRANCH  10  12
HETATM   12  C2  UNL     1      41.695  68.976  58.035  1.00  0.00    -0.004 C 
HETATM   13  C1  UNL     1      41.702  68.192  56.995  1.00  0.00     0.012 C 
ENDBRANCH  10  12
ENDBRANCH   1   9
BRANCH   8  14
HETATM   14  O2  UNL     1      40.837  73.977  60.266  1.00  0.00    -0.362 OA
ATOM     15  H2  UNL     1      40.342  74.615  59.765  1.00  0.00     0.217 HD
ENDBRANCH   8  14
TORSDOF 3
ENDMDL
