MODEL 7
REMARK VINA RESULT: -6.572947501      2.059      3.963
REMARK  3 active torsions:
REMARK  status: ('A' for Active; 'I' for Inactive)
REMARK    1  A    between atoms: C2_2  and  C3_3 
REMARK    2  A    between atoms: C5_5  and  C6_6 
REMARK    3  A    between atoms: C11_13  and  O2_14 
ROOT
HETATM    1  C6  UNL     1      40.094  72.531  60.184  1.00  0.00     0.079 C 
HETATM    2  C7  UNL     1      39.547  73.563  59.267  1.00  0.00     0.039 C 
HETATM    3  S1  UNL     1      38.683  72.102  61.314  1.00  0.00    -0.067 SA
HETATM    4  C8  UNL     1      39.731  71.991  62.771  1.00  0.00     0.218 C 
HETATM    5  O1  UNL     1      39.438  71.331  63.782  1.00  0.00    -0.280 OA
HETATM    6  C9  UNL     1      40.866  72.816  62.408  1.00  0.00     0.026 C 
HETATM    7  C10 UNL     1      41.818  73.348  63.472  1.00  0.00     0.056 C 
HETATM    8  C11 UNL     1      41.038  73.076  61.160  1.00  0.00     0.076 C 
ENDROOT
BRANCH   1   9
HETATM    9  C5  UNL     1      40.497  71.253  59.591  1.00  0.00     0.007 C 
HETATM   10  C3  UNL     1      39.911  70.610  58.600  1.00  0.00    -0.065 C 
HETATM   11  C4  UNL     1      38.725  71.163  57.954  1.00  0.00     0.048 C 
BRANCH  10  12
HETATM   12  C2  UNL     1      40.433  69.322  58.106  1.00  0.00    -0.004 C 
HETATM   13  C1  UNL     1      41.695  68.999  58.127  1.00  0.00     0.012 C 
ENDBRANCH  10  12
ENDBRANCH   1   9
BRANCH   8  14
HETATM   14  O2  UNL     1      42.125  73.884  60.680  1.00  0.00    -0.362 OA
ATOM     15  H2  UNL     1      42.550  73.632  59.869  1.00  0.00     0.217 HD
ENDBRANCH   8  14
TORSDOF 3
ENDMDL
