MODEL 4
REMARK VINA RESULT: -7.043697224      1.994      5.052
REMARK  3 active torsions:
REMARK  status: ('A' for Active; 'I' for Inactive)
REMARK    1  A    between atoms: C2_2  and  C3_3 
REMARK    2  A    between atoms: C5_5  and  C6_6 
REMARK    3  A    between atoms: C11_13  and  O2_14 
ROOT
HETATM    1  C6  UNL     1      40.549  72.522  60.446  1.00  0.00     0.079 C 
HETATM    2  C7  UNL     1      41.799  73.309  60.598  1.00  0.00     0.039 C 
HETATM    3  S1  UNL     1      40.963  71.202  59.207  1.00  0.00    -0.067 SA
HETATM    4  C8  UNL     1      39.371  71.318  58.378  1.00  0.00     0.218 C 
HETATM    5  O1  UNL     1      38.874  70.397  57.710  1.00  0.00    -0.280 OA
HETATM    6  C9  UNL     1      38.937  72.659  58.712  1.00  0.00     0.026 C 
HETATM    7  C10 UNL     1      37.842  73.350  57.910  1.00  0.00     0.056 C 
HETATM    8  C11 UNL     1      39.507  73.238  59.710  1.00  0.00     0.076 C 
ENDROOT
BRANCH   1   9
HETATM    9  C5  UNL     1      40.071  71.789  61.623  1.00  0.00     0.007 C 
HETATM   10  C3  UNL     1      40.008  72.226  62.866  1.00  0.00    -0.065 C 
HETATM   11  C4  UNL     1      40.433  73.581  63.200  1.00  0.00     0.048 C 
BRANCH  10  12
HETATM   12  C2  UNL     1      39.502  71.369  63.954  1.00  0.00    -0.004 C 
HETATM   13  C1  UNL     1      40.271  70.760  64.811  1.00  0.00     0.012 C 
ENDBRANCH  10  12
ENDBRANCH   1   9
BRANCH   8  14
HETATM   14  O2  UNL     1      39.163  74.568  60.134  1.00  0.00    -0.362 OA
ATOM     15  H2  UNL     1      39.859  75.208  60.219  1.00  0.00     0.217 HD
ENDBRANCH   8  14
TORSDOF 3
ENDMDL
