MODEL 8
REMARK VINA RESULT: -6.317436266      2.328      4.788
REMARK  3 active torsions:
REMARK  status: ('A' for Active; 'I' for Inactive)
REMARK    1  A    between atoms: C2_2  and  C3_3 
REMARK    2  A    between atoms: C5_5  and  C6_6 
REMARK    3  A    between atoms: C11_13  and  O2_14 
ROOT
HETATM    1  C6  UNL     1      39.369  71.758  60.865  1.00  0.00     0.079 C 
HETATM    2  C7  UNL     1      38.684  71.228  62.071  1.00  0.00     0.039 C 
HETATM    3  S1  UNL     1      38.258  73.110  60.242  1.00  0.00    -0.067 SA
HETATM    4  C8  UNL     1      38.507  72.678  58.514  1.00  0.00     0.218 C 
HETATM    5  O1  UNL     1      38.350  73.474  57.575  1.00  0.00    -0.280 OA
HETATM    6  C9  UNL     1      38.897  71.284  58.590  1.00  0.00     0.026 C 
HETATM    7  C10 UNL     1      38.821  70.382  57.364  1.00  0.00     0.056 C 
HETATM    8  C11 UNL     1      39.311  70.843  59.725  1.00  0.00     0.076 C 
ENDROOT
BRANCH   1   9
HETATM    9  C5  UNL     1      40.669  72.406  61.063  1.00  0.00     0.007 C 
HETATM   10  C3  UNL     1      41.072  73.081  62.122  1.00  0.00    -0.065 C 
HETATM   11  C4  UNL     1      40.197  73.247  63.277  1.00  0.00     0.048 C 
BRANCH  10  12
HETATM   12  C2  UNL     1      42.418  73.684  62.179  1.00  0.00    -0.004 C 
HETATM   13  C1  UNL     1      42.998  74.052  63.286  1.00  0.00     0.012 C 
ENDBRANCH  10  12
ENDBRANCH   1   9
BRANCH   8  14
HETATM   14  O2  UNL     1      39.723  69.480  59.923  1.00  0.00    -0.362 OA
ATOM     15  H2  UNL     1      39.716  68.894  59.175  1.00  0.00     0.217 HD
ENDBRANCH   8  14
TORSDOF 3
ENDMDL
