MODEL 3
REMARK VINA RESULT: -6.589300998      3.951      5.872
REMARK  3 active torsions:
REMARK  status: ('A' for Active; 'I' for Inactive)
REMARK    1  A    between atoms: C2_2  and  C3_4 
REMARK    2  A    between atoms: C4_6  and  N1_7 
REMARK    3  A    between atoms: N1_7  and  C5_9 
ROOT
HETATM    1  C3  UNL     1      45.608  74.743  60.006  1.00  0.00     0.076 A 
HETATM    2  S1  UNL     1      45.411  74.563  61.687  1.00  0.00    -0.048 SA
HETATM    3  C4  UNL     1      43.719  74.341  61.749  1.00  0.00     0.150 A 
HETATM    4  N2  UNL     1      43.396  74.420  60.451  1.00  0.00    -0.339 N 
ATOM      5  H2  UNL     1      42.423  74.323  60.161  1.00  0.00     0.168 HD
HETATM    6  C11 UNL     1      44.310  74.618  59.576  1.00  0.00     0.028 A 
HETATM    7  C12 UNL     1      44.000  74.716  58.083  1.00  0.00     0.070 C 
ENDROOT
BRANCH   3   8
HETATM    8  N1  UNL     1      42.820  74.123  62.834  1.00  0.00    -0.337 N 
ATOM      9  H1  UNL     1      42.447  74.940  63.316  1.00  0.00     0.168 HD
BRANCH   8  10
HETATM   10  C5  UNL     1      42.417  72.847  63.283  1.00  0.00     0.034 A 
HETATM   11  C6  UNL     1      41.133  72.381  63.316  1.00  0.00     0.029 A 
HETATM   12  C7  UNL     1      40.833  71.095  63.805  1.00  0.00     0.002 A 
HETATM   13  C8  UNL     1      41.803  70.243  64.273  1.00  0.00     0.000 A 
HETATM   14  C9  UNL     1      43.096  70.710  64.240  1.00  0.00     0.002 A 
HETATM   15  C10 UNL     1      43.398  71.958  63.766  1.00  0.00     0.029 A 
ENDBRANCH   8  10
ENDBRANCH   3   8
BRANCH   1  16
HETATM   16  C2  UNL     1      46.833  74.973  59.206  1.00  0.00     0.164 C 
HETATM   17  C1  UNL     1      47.275  76.347  58.905  1.00  0.00     0.097 C 
HETATM   18  O1  UNL     1      47.473  73.974  58.798  1.00  0.00    -0.292 OA
ENDBRANCH   1  16
TORSDOF 3
ENDMDL
