MODEL 1
REMARK VINA RESULT: -6.959784209      0.000      0.000
REMARK  3 active torsions:
REMARK  status: ('A' for Active; 'I' for Inactive)
REMARK    1  A    between atoms: C2_2  and  C3_4 
REMARK    2  A    between atoms: C4_6  and  N1_7 
REMARK    3  A    between atoms: N1_7  and  C5_9 
ROOT
HETATM    1  C3  UNL     1      41.726  72.282  63.043  1.00  0.00     0.076 A 
HETATM    2  S1  UNL     1      40.122  71.901  63.464  1.00  0.00    -0.048 SA
HETATM    3  C4  UNL     1      40.415  70.613  64.548  1.00  0.00     0.150 A 
HETATM    4  N2  UNL     1      41.753  70.549  64.523  1.00  0.00    -0.339 N 
ATOM      5  H2  UNL     1      42.240  69.854  65.088  1.00  0.00     0.168 HD
HETATM    6  C11 UNL     1      42.419  71.360  63.790  1.00  0.00     0.028 A 
HETATM    7  C12 UNL     1      43.945  71.332  63.722  1.00  0.00     0.070 C 
ENDROOT
BRANCH   3   8
HETATM    8  N1  UNL     1      39.540  69.786  65.311  1.00  0.00    -0.337 N 
ATOM      9  H1  UNL     1      38.648  70.180  65.608  1.00  0.00     0.168 HD
BRANCH   8  10
HETATM   10  C5  UNL     1      39.833  68.457  65.684  1.00  0.00     0.034 A 
HETATM   11  C6  UNL     1      40.890  67.716  65.238  1.00  0.00     0.029 A 
HETATM   12  C7  UNL     1      41.081  66.385  65.656  1.00  0.00     0.002 A 
HETATM   13  C8  UNL     1      40.223  65.760  66.527  1.00  0.00     0.000 A 
HETATM   14  C9  UNL     1      39.157  66.503  66.977  1.00  0.00     0.002 A 
HETATM   15  C10 UNL     1      38.964  67.798  66.578  1.00  0.00     0.029 A 
ENDBRANCH   8  10
ENDBRANCH   3   8
BRANCH   1  16
HETATM   16  C2  UNL     1      42.254  73.318  62.126  1.00  0.00     0.164 C 
HETATM   17  C1  UNL     1      42.604  72.970  60.737  1.00  0.00     0.097 C 
HETATM   18  O1  UNL     1      42.391  74.486  62.565  1.00  0.00    -0.292 OA
ENDBRANCH   1  16
TORSDOF 3
ENDMDL
