MODEL 2
REMARK VINA RESULT: -6.890955722      4.363      6.249
REMARK  3 active torsions:
REMARK  status: ('A' for Active; 'I' for Inactive)
REMARK    1  A    between atoms: C2_2  and  C3_4 
REMARK    2  A    between atoms: C4_6  and  N1_7 
REMARK    3  A    between atoms: N1_7  and  C5_9 
ROOT
HETATM    1  C3  UNL     1      42.875  73.804  61.988  1.00  0.00     0.076 A 
HETATM    2  S1  UNL     1      42.033  74.024  60.525  1.00  0.00    -0.048 SA
HETATM    3  C4  UNL     1      41.116  72.583  60.509  1.00  0.00     0.150 A 
HETATM    4  N2  UNL     1      41.516  72.006  61.649  1.00  0.00    -0.339 N 
ATOM      5  H2  UNL     1      41.132  71.102  61.925  1.00  0.00     0.168 HD
HETATM    6  C11 UNL     1      42.381  72.588  62.393  1.00  0.00     0.028 A 
HETATM    7  C12 UNL     1      42.873  71.976  63.703  1.00  0.00     0.070 C 
ENDROOT
BRANCH   3   8
HETATM    8  N1  UNL     1      40.164  72.064  59.584  1.00  0.00    -0.337 N 
ATOM      9  H1  UNL     1      39.208  72.412  59.636  1.00  0.00     0.168 HD
BRANCH   8  10
HETATM   10  C5  UNL     1      40.463  71.097  58.600  1.00  0.00     0.034 A 
HETATM   11  C6  UNL     1      39.610  70.654  57.629  1.00  0.00     0.029 A 
HETATM   12  C7  UNL     1      40.001  69.667  56.705  1.00  0.00     0.002 A 
HETATM   13  C8  UNL     1      41.250  69.097  56.725  1.00  0.00     0.000 A 
HETATM   14  C9  UNL     1      42.111  69.541  57.700  1.00  0.00     0.002 A 
HETATM   15  C10 UNL     1      41.741  70.502  58.603  1.00  0.00     0.029 A 
ENDBRANCH   8  10
ENDBRANCH   3   8
BRANCH   1  16
HETATM   16  C2  UNL     1      43.870  74.671  62.659  1.00  0.00     0.164 C 
HETATM   17  C1  UNL     1      45.304  74.529  62.351  1.00  0.00     0.097 C 
HETATM   18  O1  UNL     1      43.457  75.520  63.486  1.00  0.00    -0.292 OA
ENDBRANCH   1  16
TORSDOF 3
ENDMDL
