MODEL 4
REMARK VINA RESULT: -6.565111470      3.640      5.367
REMARK  3 active torsions:
REMARK  status: ('A' for Active; 'I' for Inactive)
REMARK    1  A    between atoms: C2_2  and  C3_4 
REMARK    2  A    between atoms: C4_6  and  N1_7 
REMARK    3  A    between atoms: N1_7  and  C5_9 
ROOT
HETATM    1  C3  UNL     1      45.336  74.602  60.468  1.00  0.00     0.076 A 
HETATM    2  S1  UNL     1      43.763  73.981  60.278  1.00  0.00    -0.048 SA
HETATM    3  C4  UNL     1      43.175  74.219  61.864  1.00  0.00     0.150 A 
HETATM    4  N2  UNL     1      44.240  74.771  62.459  1.00  0.00    -0.339 N 
ATOM      5  H2  UNL     1      44.195  75.034  63.444  1.00  0.00     0.168 HD
HETATM    6  C11 UNL     1      45.315  74.969  61.792  1.00  0.00     0.028 A 
HETATM    7  C12 UNL     1      46.560  75.596  62.418  1.00  0.00     0.070 C 
ENDROOT
BRANCH   3   8
HETATM    8  N1  UNL     1      41.915  73.940  62.471  1.00  0.00    -0.337 N 
ATOM      9  H1  UNL     1      41.188  74.652  62.409  1.00  0.00     0.168 HD
BRANCH   8  10
HETATM   10  C5  UNL     1      41.612  72.741  63.150  1.00  0.00     0.034 A 
HETATM   11  C6  UNL     1      40.369  72.343  63.552  1.00  0.00     0.029 A 
HETATM   12  C7  UNL     1      40.175  71.133  64.247  1.00  0.00     0.002 A 
HETATM   13  C8  UNL     1      41.215  70.291  64.557  1.00  0.00     0.000 A 
HETATM   14  C9  UNL     1      42.467  70.690  64.153  1.00  0.00     0.002 A 
HETATM   15  C10 UNL     1      42.665  71.864  63.477  1.00  0.00     0.029 A 
ENDBRANCH   8  10
ENDBRANCH   3   8
BRANCH   1  16
HETATM   16  C2  UNL     1      46.441  74.723  59.490  1.00  0.00     0.164 C 
HETATM   17  C1  UNL     1      46.557  75.927  58.647  1.00  0.00     0.097 C 
HETATM   18  O1  UNL     1      47.265  73.781  59.403  1.00  0.00    -0.292 OA
ENDBRANCH   1  16
TORSDOF 3
ENDMDL
