MODEL 8
REMARK VINA RESULT: -4.971002517      1.595      4.995
REMARK  5 active torsions:
REMARK  status: ('A' for Active; 'I' for Inactive)
REMARK       I    between atoms: C2_2  and  N1_4 
REMARK    1  A    between atoms: N1_4  and  C3_6 
REMARK    2  A    between atoms: C5_11  and  C6_12 
REMARK    3  A    between atoms: C6_12  and  O2_13 
REMARK    4  A    between atoms: C7_15  and  O3_16 
REMARK    5  A    between atoms: C8_18  and  O4_19 
ROOT
HETATM    1  C3  UNL     1      18.092  -4.175   8.090  1.00  0.00     0.141 C 
HETATM    2  C4  UNL     1      18.204  -2.839   8.726  1.00  0.00     0.260 C 
HETATM    3  N2  UNL     1      19.517  -2.265   8.707  1.00  0.00    -0.064 N 
ATOM      4  H21 UNL     1      19.518  -1.364   9.185  1.00  0.00     0.277 HD
ATOM      5  H22 UNL     1      19.760  -1.965   7.764  1.00  0.00     0.277 HD
HETATM    6  C5  UNL     1      20.542  -3.111   9.239  1.00  0.00     0.240 C 
HETATM    7  C7  UNL     1      20.213  -4.567   9.218  1.00  0.00     0.181 C 
HETATM    8  C8  UNL     1      19.388  -4.939   8.017  1.00  0.00     0.173 C 
ENDROOT
BRANCH   1   9
HETATM    9  N1  UNL     1      17.082  -4.937   8.822  1.00  0.00    -0.353 N 
HETATM   10  C2  UNL     1      16.273  -5.926   8.206  1.00  0.00     0.214 C 
HETATM   11  C1  UNL     1      15.267  -6.666   8.991  1.00  0.00     0.117 C 
HETATM   12  O1  UNL     1      16.453  -6.136   6.979  1.00  0.00    -0.274 OA
ATOM     13  H1  UNL     1      16.953  -4.749   9.817  1.00  0.00     0.163 HD
ENDBRANCH   1   9
BRANCH   8  14
HETATM   14  O4  UNL     1      20.069  -4.722   6.825  1.00  0.00    -0.391 OA
ATOM     15  H4  UNL     1      20.331  -5.531   6.402  1.00  0.00     0.210 HD
ENDBRANCH   8  14
BRANCH   7  16
HETATM   16  O3  UNL     1      19.552  -4.985  10.364  1.00  0.00    -0.391 OA
ATOM     17  H3  UNL     1      20.135  -5.095  11.106  1.00  0.00     0.210 HD
ENDBRANCH   7  16
BRANCH   6  18
HETATM   18  C6  UNL     1      21.813  -2.834   8.428  1.00  0.00     0.199 C 
BRANCH  18  19
HETATM   19  O2  UNL     1      21.458  -2.172   7.247  1.00  0.00    -0.399 OA
ATOM     20  H2  UNL     1      21.219  -2.819   6.594  1.00  0.00     0.209 HD
ENDBRANCH  18  19
ENDBRANCH   6  18
TORSDOF 5
ENDMDL
