MODEL 1
REMARK VINA RESULT: -6.771844123      0.000      0.000
REMARK  5 active torsions:
REMARK  status: ('A' for Active; 'I' for Inactive)
REMARK       I    between atoms: C2_2  and  N1_4 
REMARK    1  A    between atoms: N1_4  and  C3_6 
REMARK    2  A    between atoms: C5_11  and  C6_12 
REMARK    3  A    between atoms: C6_12  and  O2_13 
REMARK    4  A    between atoms: C7_15  and  O3_16 
REMARK    5  A    between atoms: C8_18  and  O4_19 
ROOT
HETATM    1  C3  UNL     1      18.367  -3.684   9.240  1.00  0.00     0.141 C 
HETATM    2  C4  UNL     1      17.055  -2.992   9.253  1.00  0.00     0.260 C 
HETATM    3  N2  UNL     1      15.923  -3.840   9.482  1.00  0.00    -0.064 N 
ATOM      4  H21 UNL     1      15.060  -3.298   9.451  1.00  0.00     0.277 HD
ATOM      5  H22 UNL     1      15.901  -4.149  10.454  1.00  0.00     0.277 HD
HETATM    6  C5  UNL     1      15.836  -4.964   8.602  1.00  0.00     0.240 C 
HETATM    7  C7  UNL     1      17.135  -5.371   7.990  1.00  0.00     0.181 C 
HETATM    8  C8  UNL     1      18.290  -5.156   8.929  1.00  0.00     0.173 C 
ENDROOT
BRANCH   1   9
HETATM    9  N1  UNL     1      19.227  -2.997   8.279  1.00  0.00    -0.353 N 
HETATM   10  C2  UNL     1      20.614  -2.794   8.499  1.00  0.00     0.214 C 
HETATM   11  C1  UNL     1      21.437  -2.092   7.496  1.00  0.00     0.117 C 
HETATM   12  O1  UNL     1      21.097  -3.233   9.574  1.00  0.00    -0.274 OA
ATOM     13  H1  UNL     1      18.813  -2.649   7.414  1.00  0.00     0.163 HD
ENDBRANCH   1   9
BRANCH   8  14
HETATM   14  O4  UNL     1      18.188  -5.939  10.074  1.00  0.00    -0.391 OA
ATOM     15  H4  UNL     1      17.287  -6.093  10.331  1.00  0.00     0.210 HD
ENDBRANCH   8  14
BRANCH   7  16
HETATM   16  O3  UNL     1      17.397  -4.711   6.798  1.00  0.00    -0.391 OA
ATOM     17  H3  UNL     1      18.298  -4.808   6.515  1.00  0.00     0.210 HD
ENDBRANCH   7  16
BRANCH   6  18
HETATM   18  C6  UNL     1      15.237  -6.120   9.412  1.00  0.00     0.199 C 
BRANCH  18  19
HETATM   19  O2  UNL     1      15.198  -7.263   8.605  1.00  0.00    -0.399 OA
ATOM     20  H2  UNL     1      14.296  -7.432   8.359  1.00  0.00     0.209 HD
ENDBRANCH  18  19
ENDBRANCH   6  18
TORSDOF 5
ENDMDL
