MODEL 2
REMARK VINA RESULT: -6.227633800      1.605      2.067
REMARK  5 active torsions:
REMARK  status: ('A' for Active; 'I' for Inactive)
REMARK       I    between atoms: C2_2  and  N1_4 
REMARK    1  A    between atoms: N1_4  and  C3_6 
REMARK    2  A    between atoms: C5_11  and  C6_12 
REMARK    3  A    between atoms: C6_12  and  O2_13 
REMARK    4  A    between atoms: C7_15  and  O3_16 
REMARK    5  A    between atoms: C8_18  and  O4_19 
ROOT
HETATM    1  C3  UNL     1      18.961  -4.721   8.364  1.00  0.00     0.141 C 
HETATM    2  C4  UNL     1      18.864  -5.309   9.723  1.00  0.00     0.260 C 
HETATM    3  N2  UNL     1      17.565  -5.792  10.085  1.00  0.00    -0.064 N 
ATOM      4  H21 UNL     1      17.574  -6.155  11.038  1.00  0.00     0.277 HD
ATOM      5  H22 UNL     1      17.348  -6.647   9.573  1.00  0.00     0.277 HD
HETATM    6  C5  UNL     1      16.512  -4.837   9.926  1.00  0.00     0.240 C 
HETATM    7  C7  UNL     1      16.808  -3.747   8.951  1.00  0.00     0.181 C 
HETATM    8  C8  UNL     1      17.650  -4.234   7.804  1.00  0.00     0.173 C 
ENDROOT
BRANCH   1   9
HETATM    9  N1  UNL     1      19.938  -3.635   8.413  1.00  0.00    -0.353 N 
HETATM   10  C2  UNL     1      21.339  -3.864   8.417  1.00  0.00     0.214 C 
HETATM   11  C1  UNL     1      22.282  -2.732   8.469  1.00  0.00     0.117 C 
HETATM   12  O1  UNL     1      21.727  -5.060   8.375  1.00  0.00    -0.274 OA
ATOM     13  H1  UNL     1      19.600  -2.674   8.447  1.00  0.00     0.163 HD
ENDBRANCH   1   9
BRANCH   8  14
HETATM   14  O4  UNL     1      16.999  -5.203   7.049  1.00  0.00    -0.391 OA
ATOM     15  H4  UNL     1      16.553  -5.846   7.587  1.00  0.00     0.210 HD
ENDBRANCH   8  14
BRANCH   7  16
HETATM   16  O3  UNL     1      17.436  -2.658   9.538  1.00  0.00    -0.391 OA
ATOM     17  H3  UNL     1      16.826  -2.065   9.959  1.00  0.00     0.210 HD
ENDBRANCH   7  16
BRANCH   6  18
HETATM   18  C6  UNL     1      15.264  -5.618   9.497  1.00  0.00     0.199 C 
BRANCH  18  19
HETATM   19  O2  UNL     1      15.663  -6.855   8.978  1.00  0.00    -0.399 OA
ATOM     20  H2  UNL     1      14.966  -7.485   9.120  1.00  0.00     0.209 HD
ENDBRANCH  18  19
ENDBRANCH   6  18
TORSDOF 5
ENDMDL
