MODEL 4
REMARK VINA RESULT: -5.600584146      1.625      2.167
REMARK  5 active torsions:
REMARK  status: ('A' for Active; 'I' for Inactive)
REMARK       I    between atoms: C2_2  and  N1_4 
REMARK    1  A    between atoms: N1_4  and  C3_6 
REMARK    2  A    between atoms: C5_11  and  C6_12 
REMARK    3  A    between atoms: C6_12  and  O2_13 
REMARK    4  A    between atoms: C7_15  and  O3_16 
REMARK    5  A    between atoms: C8_18  and  O4_19 
ROOT
HETATM    1  C3  UNL     1      18.052  -4.048   8.096  1.00  0.00     0.141 C 
HETATM    2  C4  UNL     1      17.744  -5.246   7.276  1.00  0.00     0.260 C 
HETATM    3  N2  UNL     1      16.445  -5.812   7.490  1.00  0.00    -0.064 N 
ATOM      4  H21 UNL     1      16.320  -6.643   6.913  1.00  0.00     0.277 HD
ATOM      5  H22 UNL     1      15.725  -5.210   7.091  1.00  0.00     0.277 HD
HETATM    6  C5  UNL     1      16.145  -6.107   8.857  1.00  0.00     0.240 C 
HETATM    7  C7  UNL     1      16.941  -5.323   9.848  1.00  0.00     0.181 C 
HETATM    8  C8  UNL     1      17.235  -3.933   9.357  1.00  0.00     0.173 C 
ENDROOT
BRANCH   1   9
HETATM    9  N1  UNL     1      19.480  -4.070   8.405  1.00  0.00    -0.353 N 
HETATM   10  C2  UNL     1      20.280  -2.898   8.418  1.00  0.00     0.214 C 
HETATM   11  C1  UNL     1      21.718  -2.977   8.735  1.00  0.00     0.117 C 
HETATM   12  O1  UNL     1      19.711  -1.809   8.149  1.00  0.00    -0.274 OA
ATOM     13  H1  UNL     1      19.920  -4.965   8.620  1.00  0.00     0.163 HD
ENDBRANCH   1   9
BRANCH   8  14
HETATM   14  O4  UNL     1      16.077  -3.184   9.176  1.00  0.00    -0.391 OA
ATOM     15  H4  UNL     1      16.259  -2.283   8.938  1.00  0.00     0.210 HD
ENDBRANCH   8  14
BRANCH   7  16
HETATM   16  O3  UNL     1      18.136  -5.942  10.185  1.00  0.00    -0.391 OA
ATOM     17  H3  UNL     1      18.285  -5.967  11.123  1.00  0.00     0.210 HD
ENDBRANCH   7  16
BRANCH   6  18
HETATM   18  C6  UNL     1      14.645  -5.850   9.049  1.00  0.00     0.199 C 
BRANCH  18  19
HETATM   19  O2  UNL     1      13.932  -6.664   8.161  1.00  0.00    -0.399 OA
ATOM     20  H2  UNL     1      14.488  -7.388   7.898  1.00  0.00     0.209 HD
ENDBRANCH  18  19
ENDBRANCH   6  18
TORSDOF 5
ENDMDL
