MODEL 4
REMARK VINA RESULT: -9.580171317      1.813      2.670
REMARK  5 active torsions:
REMARK  status: ('A' for Active; 'I' for Inactive)
REMARK    1  A    between atoms: C3_3  and  C4_4 
REMARK    2  A    between atoms: C5_5  and  C6_6 
REMARK    3  A    between atoms: C8_8  and  C9_9 
REMARK    4  A    between atoms: C10_10  and  C11_11 
REMARK    5  A    between atoms: C13_13  and  C14_14 
ROOT
HETATM    1  C4  UNL     1      44.346   1.287  10.461  1.00  0.00     0.009 C 
HETATM    2  C5  UNL     1      44.552   2.397  11.143  1.00  0.00     0.007 C 
ENDROOT
BRANCH   2   3
HETATM    3  C6  UNL     1      45.475   3.460  10.724  1.00  0.00    -0.062 C 
HETATM    4  C7  UNL     1      44.894   4.804  10.563  1.00  0.00     0.048 C 
HETATM    5  C8  UNL     1      46.736   3.247  10.497  1.00  0.00     0.007 C 
BRANCH   5   6
HETATM    6  C9  UNL     1      47.698   4.260  10.082  1.00  0.00     0.001 C 
HETATM    7  C10 UNL     1      48.690   4.567  10.900  1.00  0.00     0.007 C 
BRANCH   7   8
HETATM    8  C11 UNL     1      49.705   5.564  10.584  1.00  0.00    -0.056 C 
HETATM    9  C12 UNL     1      49.762   6.924  11.164  1.00  0.00     0.048 C 
HETATM   10  C13 UNL     1      50.678   5.266   9.709  1.00  0.00     0.091 C 
BRANCH  10  11
HETATM   11  C14 UNL     1      51.739   6.135   9.299  1.00  0.00     0.199 C 
HETATM   12  O1  UNL     1      52.879   6.101   9.814  1.00  0.00    -0.644 OA
HETATM   13  O2  UNL     1      51.534   7.060   8.298  1.00  0.00    -0.644 OA
ENDBRANCH  10  11
ENDBRANCH   7   8
ENDBRANCH   5   6
ENDBRANCH   2   3
BRANCH   1  14
HETATM   14  C3  UNL     1      43.431   0.223  10.869  1.00  0.00    -0.048 C 
HETATM   15  C2  UNL     1      42.150   0.417  10.606  1.00  0.00    -0.077 C 
HETATM   16  C1  UNL     1      41.698   1.669   9.926  1.00  0.00     0.044 C 
HETATM   17  C20 UNL     1      41.123  -0.579  10.969  1.00  0.00     0.034 C 
HETATM   18  C19 UNL     1      41.742  -1.935  10.896  1.00  0.00     0.005 C 
HETATM   19  C18 UNL     1      42.886  -1.973  11.882  1.00  0.00     0.014 C 
HETATM   20  C15 UNL     1      43.973  -0.983  11.537  1.00  0.00    -0.020 C 
HETATM   21  C16 UNL     1      44.925  -1.700  10.603  1.00  0.00     0.020 C 
HETATM   22  C17 UNL     1      44.618  -0.577  12.845  1.00  0.00     0.020 C 
ENDBRANCH   1  14
TORSDOF 5
ENDMDL
