MODEL 1
REMARK VINA RESULT: -11.084851101      0.000      0.000
REMARK  5 active torsions:
REMARK  status: ('A' for Active; 'I' for Inactive)
REMARK    1  A    between atoms: C3_3  and  C4_4 
REMARK    2  A    between atoms: C5_5  and  C6_6 
REMARK    3  A    between atoms: C8_8  and  C9_9 
REMARK    4  A    between atoms: C10_10  and  C11_11 
REMARK    5  A    between atoms: C13_13  and  C14_14 
ROOT
HETATM    1  C4  UNL     1      44.530   1.785  11.383  1.00  0.00     0.009 C 
HETATM    2  C5  UNL     1      45.570   2.266  10.732  1.00  0.00     0.007 C 
ENDROOT
BRANCH   2   3
HETATM    3  C6  UNL     1      45.846   3.698  10.565  1.00  0.00    -0.062 C 
HETATM    4  C7  UNL     1      44.674   4.590  10.535  1.00  0.00     0.048 C 
HETATM    5  C8  UNL     1      47.049   4.174  10.443  1.00  0.00     0.007 C 
BRANCH   5   6
HETATM    6  C9  UNL     1      47.383   5.583  10.277  1.00  0.00     0.001 C 
HETATM    7  C10 UNL     1      48.263   6.128  11.099  1.00  0.00     0.007 C 
BRANCH   7   8
HETATM    8  C11 UNL     1      48.669   7.526  11.021  1.00  0.00    -0.056 C 
HETATM    9  C12 UNL     1      48.011   8.637  11.743  1.00  0.00     0.048 C 
HETATM   10  C13 UNL     1      49.710   7.873  10.250  1.00  0.00     0.091 C 
BRANCH  10  11
HETATM   11  C14 UNL     1      50.224   9.197  10.072  1.00  0.00     0.199 C 
HETATM   12  O1  UNL     1      49.978   9.888   9.058  1.00  0.00    -0.644 OA
HETATM   13  O2  UNL     1      51.027   9.768  11.035  1.00  0.00    -0.644 OA
ENDBRANCH  10  11
ENDBRANCH   7   8
ENDBRANCH   5   6
ENDBRANCH   2   3
BRANCH   1  14
HETATM   14  C3  UNL     1      44.245   0.362  11.554  1.00  0.00    -0.048 C 
HETATM   15  C2  UNL     1      44.321  -0.109  12.787  1.00  0.00    -0.077 C 
HETATM   16  C1  UNL     1      44.681   0.796  13.921  1.00  0.00     0.044 C 
HETATM   17  C20 UNL     1      44.061  -1.528  13.095  1.00  0.00     0.034 C 
HETATM   18  C19 UNL     1      43.051  -2.038  12.122  1.00  0.00     0.005 C 
HETATM   19  C18 UNL     1      43.634  -1.897  10.735  1.00  0.00     0.014 C 
HETATM   20  C15 UNL     1      43.897  -0.456  10.368  1.00  0.00    -0.020 C 
HETATM   21  C16 UNL     1      42.620   0.068   9.745  1.00  0.00     0.020 C 
HETATM   22  C17 UNL     1      45.067  -0.462   9.409  1.00  0.00     0.020 C 
ENDBRANCH   1  14
TORSDOF 5
ENDMDL
