MODEL 5
REMARK VINA RESULT: -9.465410214      4.119      9.878
REMARK  5 active torsions:
REMARK  status: ('A' for Active; 'I' for Inactive)
REMARK    1  A    between atoms: C3_3  and  C4_4 
REMARK    2  A    between atoms: C5_5  and  C6_6 
REMARK    3  A    between atoms: C8_8  and  C9_9 
REMARK    4  A    between atoms: C10_10  and  C11_11 
REMARK    5  A    between atoms: C13_13  and  C14_14 
ROOT
HETATM    1  C4  UNL     1      49.431   7.101  11.110  1.00  0.00     0.009 C 
HETATM    2  C5  UNL     1      48.488   6.527  10.389  1.00  0.00     0.007 C 
ENDROOT
BRANCH   2   3
HETATM    3  C6  UNL     1      48.045   5.138  10.571  1.00  0.00    -0.062 C 
HETATM    4  C7  UNL     1      49.080   4.169  10.970  1.00  0.00     0.048 C 
HETATM    5  C8  UNL     1      46.815   4.763  10.389  1.00  0.00     0.007 C 
BRANCH   5   6
HETATM    6  C9  UNL     1      46.317   3.403  10.556  1.00  0.00     0.001 C 
HETATM    7  C10 UNL     1      45.058   3.227  10.915  1.00  0.00     0.007 C 
BRANCH   7   8
HETATM    8  C11 UNL     1      44.459   1.912  11.109  1.00  0.00    -0.056 C 
HETATM    9  C12 UNL     1      44.642   1.071  12.312  1.00  0.00     0.048 C 
HETATM   10  C13 UNL     1      43.678   1.391  10.151  1.00  0.00     0.091 C 
BRANCH  10  11
HETATM   11  C14 UNL     1      43.024   0.118  10.195  1.00  0.00     0.199 C 
HETATM   12  O1  UNL     1      41.857  -0.029  10.622  1.00  0.00    -0.644 OA
HETATM   13  O2  UNL     1      43.675  -1.015   9.757  1.00  0.00    -0.644 OA
ENDBRANCH  10  11
ENDBRANCH   7   8
ENDBRANCH   5   6
ENDBRANCH   2   3
BRANCH   1  14
HETATM   14  C3  UNL     1      49.880   8.481  10.936  1.00  0.00    -0.048 C 
HETATM   15  C2  UNL     1      50.874   8.673  10.086  1.00  0.00    -0.077 C 
HETATM   16  C1  UNL     1      51.482   7.517   9.359  1.00  0.00     0.044 C 
HETATM   17  C20 UNL     1      51.422  10.018   9.822  1.00  0.00     0.034 C 
HETATM   18  C19 UNL     1      50.318  11.009   9.974  1.00  0.00     0.005 C 
HETATM   19  C18 UNL     1      49.807  10.917  11.392  1.00  0.00     0.014 C 
HETATM   20  C15 UNL     1      49.215   9.562  11.701  1.00  0.00    -0.020 C 
HETATM   21  C16 UNL     1      47.752   9.635  11.315  1.00  0.00     0.020 C 
HETATM   22  C17 UNL     1      49.428   9.325  13.180  1.00  0.00     0.020 C 
ENDBRANCH   1  14
TORSDOF 5
ENDMDL
