MODEL 3
REMARK VINA RESULT: -9.769484787      4.468      9.537
REMARK  5 active torsions:
REMARK  status: ('A' for Active; 'I' for Inactive)
REMARK    1  A    between atoms: C3_3  and  C4_4 
REMARK    2  A    between atoms: C5_5  and  C6_6 
REMARK    3  A    between atoms: C8_8  and  C9_9 
REMARK    4  A    between atoms: C10_10  and  C11_11 
REMARK    5  A    between atoms: C13_13  and  C14_14 
ROOT
HETATM    1  C4  UNL     1      48.262   6.109  11.031  1.00  0.00     0.009 C 
HETATM    2  C5  UNL     1      47.440   5.596  10.137  1.00  0.00     0.007 C 
ENDROOT
BRANCH   2   3
HETATM    3  C6  UNL     1      46.343   4.676  10.461  1.00  0.00    -0.062 C 
HETATM    4  C7  UNL     1      44.991   5.260  10.502  1.00  0.00     0.048 C 
HETATM    5  C8  UNL     1      46.532   3.415  10.707  1.00  0.00     0.007 C 
BRANCH   5   6
HETATM    6  C9  UNL     1      45.484   2.455  11.032  1.00  0.00     0.001 C 
HETATM    7  C10 UNL     1      45.213   1.493  10.167  1.00  0.00     0.007 C 
BRANCH   7   8
HETATM    8  C11 UNL     1      44.187   0.483  10.392  1.00  0.00    -0.056 C 
HETATM    9  C12 UNL     1      43.597   0.157  11.710  1.00  0.00     0.048 C 
HETATM   10  C13 UNL     1      43.714  -0.225   9.356  1.00  0.00     0.091 C 
BRANCH  10  11
HETATM   11  C14 UNL     1      42.713  -1.246   9.417  1.00  0.00     0.199 C 
HETATM   12  O1  UNL     1      42.608  -2.033  10.384  1.00  0.00    -0.644 OA
HETATM   13  O2  UNL     1      41.810  -1.399   8.388  1.00  0.00    -0.644 OA
ENDBRANCH  10  11
ENDBRANCH   7   8
ENDBRANCH   5   6
ENDBRANCH   2   3
BRANCH   1  14
HETATM   14  C3  UNL     1      49.358   7.025  10.719  1.00  0.00    -0.048 C 
HETATM   15  C2  UNL     1      50.395   6.505  10.083  1.00  0.00    -0.077 C 
HETATM   16  C1  UNL     1      50.410   5.055   9.720  1.00  0.00     0.044 C 
HETATM   17  C20 UNL     1      51.567   7.321   9.713  1.00  0.00     0.034 C 
HETATM   18  C19 UNL     1      51.101   8.712   9.445  1.00  0.00     0.005 C 
HETATM   19  C18 UNL     1      50.472   9.240  10.713  1.00  0.00     0.014 C 
HETATM   20  C15 UNL     1      49.252   8.448  11.120  1.00  0.00    -0.020 C 
HETATM   21  C16 UNL     1      48.072   9.088  10.420  1.00  0.00     0.020 C 
HETATM   22  C17 UNL     1      49.166   8.532  12.628  1.00  0.00     0.020 C 
ENDBRANCH   1  14
TORSDOF 5
ENDMDL
