MODEL 7
REMARK VINA RESULT: -9.349340662      4.115      9.809
REMARK  5 active torsions:
REMARK  status: ('A' for Active; 'I' for Inactive)
REMARK    1  A    between atoms: C3_3  and  C4_4 
REMARK    2  A    between atoms: C5_5  and  C6_6 
REMARK    3  A    between atoms: C8_8  and  C9_9 
REMARK    4  A    between atoms: C10_10  and  C11_11 
REMARK    5  A    between atoms: C13_13  and  C14_14 
ROOT
HETATM    1  C4  UNL     1      49.559   6.988  10.671  1.00  0.00     0.009 C 
HETATM    2  C5  UNL     1      48.513   6.374  10.155  1.00  0.00     0.007 C 
ENDROOT
BRANCH   2   3
HETATM    3  C6  UNL     1      48.128   4.994  10.478  1.00  0.00    -0.062 C 
HETATM    4  C7  UNL     1      49.198   4.119  10.987  1.00  0.00     0.048 C 
HETATM    5  C8  UNL     1      46.918   4.547  10.325  1.00  0.00     0.007 C 
BRANCH   5   6
HETATM    6  C9  UNL     1      46.478   3.191  10.630  1.00  0.00     0.001 C 
HETATM    7  C10 UNL     1      45.227   3.000  11.011  1.00  0.00     0.007 C 
BRANCH   7   8
HETATM    8  C11 UNL     1      44.684   1.688  11.339  1.00  0.00    -0.056 C 
HETATM    9  C12 UNL     1      44.734   1.064  12.680  1.00  0.00     0.048 C 
HETATM   10  C13 UNL     1      44.085   0.960  10.384  1.00  0.00     0.091 C 
BRANCH  10  11
HETATM   11  C14 UNL     1      43.508  -0.339  10.551  1.00  0.00     0.199 C 
HETATM   12  O1  UNL     1      42.317  -0.511  10.894  1.00  0.00    -0.644 OA
HETATM   13  O2  UNL     1      44.264  -1.470  10.333  1.00  0.00    -0.644 OA
ENDBRANCH  10  11
ENDBRANCH   7   8
ENDBRANCH   5   6
ENDBRANCH   2   3
BRANCH   1  14
HETATM   14  C3  UNL     1      49.952   8.361  10.355  1.00  0.00    -0.048 C 
HETATM   15  C2  UNL     1      49.664   9.277  11.264  1.00  0.00    -0.077 C 
HETATM   16  C1  UNL     1      48.975   8.894  12.533  1.00  0.00     0.044 C 
HETATM   17  C20 UNL     1      50.004  10.700  11.066  1.00  0.00     0.034 C 
HETATM   18  C19 UNL     1      51.248  10.772  10.245  1.00  0.00     0.005 C 
HETATM   19  C18 UNL     1      50.963  10.109   8.918  1.00  0.00     0.014 C 
HETATM   20  C15 UNL     1      50.632   8.643   9.069  1.00  0.00    -0.020 C 
HETATM   21  C16 UNL     1      51.948   7.898   9.014  1.00  0.00     0.020 C 
HETATM   22  C17 UNL     1      49.701   8.291   7.929  1.00  0.00     0.020 C 
ENDBRANCH   1  14
TORSDOF 5
ENDMDL
