MODEL 5
REMARK VINA RESULT: -9.131299164      0.725      1.895
REMARK  7 active torsions:
REMARK  status: ('A' for Active; 'I' for Inactive)
REMARK       I    between atoms: C1_2  and  N1_3 
REMARK    1  A    between atoms: C1_2  and  C2_7 
REMARK    2  A    between atoms: N1_3  and  O2_5 
REMARK    3  A    between atoms: C2_7  and  C3_8 
REMARK    4  A    between atoms: C2_7  and  N2_19 
REMARK    5  A    between atoms: C3_8  and  C4_9 
REMARK    6  A    between atoms: N2_19  and  S1_21 
REMARK    7  A    between atoms: S1_21  and  C14_24 
ROOT
HETATM    1  C2  UNL     1      57.142  39.917  17.419  1.00  0.00     0.191 C 
ENDROOT
BRANCH   1   2
HETATM    2  C1  UNL     1      57.011  40.879  18.514  1.00  0.00     0.264 C 
HETATM    3  O1  UNL     1      55.911  41.046  19.084  1.00  0.00    -0.269 OA
HETATM    4  N1  UNL     1      58.109  41.646  18.960  1.00  0.00    -0.236 N 
ATOM      5  H1  UNL     1      59.016  41.532  18.507  1.00  0.00     0.197 HD
BRANCH   4   6
HETATM    6  O2  UNL     1      57.980  42.545  19.992  1.00  0.00    -0.287 OA
ATOM      7  H2  UNL     1      57.289  43.198  19.994  1.00  0.00     0.244 HD
ENDBRANCH   4   6
ENDBRANCH   1   2
BRANCH   1   8
HETATM    8  C3  UNL     1      55.949  39.838  16.496  1.00  0.00     0.074 C 
BRANCH   8   9
HETATM    9  C4  UNL     1      55.608  38.496  16.010  1.00  0.00    -0.055 A 
HETATM   10  C5  UNL     1      55.425  37.407  16.820  1.00  0.00     0.008 A 
HETATM   11  C6  UNL     1      55.130  36.187  16.274  1.00  0.00     0.013 A 
HETATM   12  C7  UNL     1      55.005  35.994  14.922  1.00  0.00    -0.026 A 
HETATM   13  C8  UNL     1      54.706  34.750  14.378  1.00  0.00     0.012 A 
HETATM   14  C12 UNL     1      55.190  37.089  14.108  1.00  0.00    -0.025 A 
HETATM   15  C9  UNL     1      54.608  34.686  13.012  1.00  0.00     0.001 A 
HETATM   16  C10 UNL     1      54.785  35.760  12.167  1.00  0.00     0.001 A 
HETATM   17  C11 UNL     1      55.081  36.982  12.723  1.00  0.00     0.012 A 
HETATM   18  C13 UNL     1      55.486  38.322  14.647  1.00  0.00     0.019 A 
ENDBRANCH   8   9
ENDBRANCH   1   8
BRANCH   1  19
HETATM   19  N2  UNL     1      58.247  40.339  16.524  1.00  0.00    -0.301 N 
ATOM     20  H2  UNL     1      58.189  41.132  15.885  1.00  0.00     0.173 HD
BRANCH  19  21
HETATM   21  S1  UNL     1      59.628  39.346  16.682  1.00  0.00     0.259 S 
HETATM   22  O3  UNL     1      60.669  39.665  15.642  1.00  0.00    -0.201 OA
HETATM   23  O4  UNL     1      60.301  39.506  18.020  1.00  0.00    -0.201 OA
BRANCH  21  24
HETATM   24  C14 UNL     1      59.152  37.682  16.534  1.00  0.00     0.080 A 
HETATM   25  C15 UNL     1      58.948  36.933  17.661  1.00  0.00     0.026 A 
HETATM   26  C16 UNL     1      58.560  35.598  17.557  1.00  0.00     0.014 A 
HETATM   27  C17 UNL     1      58.389  35.063  16.302  1.00  0.00    -0.026 A 
HETATM   28  C18 UNL     1      58.001  33.732  16.205  1.00  0.00     0.012 A 
HETATM   29  C22 UNL     1      58.585  35.793  15.163  1.00  0.00    -0.025 A 
HETATM   30  C19 UNL     1      57.832  33.206  14.956  1.00  0.00     0.001 A 
HETATM   31  C20 UNL     1      58.030  33.938  13.803  1.00  0.00     0.001 A 
HETATM   32  C21 UNL     1      58.415  35.261  13.919  1.00  0.00     0.012 A 
HETATM   33  C23 UNL     1      58.973  37.122  15.296  1.00  0.00     0.037 A 
ENDBRANCH  21  24
ENDBRANCH  19  21
ENDBRANCH   1  19
TORSDOF 7
ENDMDL
