MODEL 1
REMARK VINA RESULT: -9.963298340      0.000      0.000
REMARK  7 active torsions:
REMARK  status: ('A' for Active; 'I' for Inactive)
REMARK       I    between atoms: C1_2  and  N1_3 
REMARK    1  A    between atoms: C1_2  and  C2_7 
REMARK    2  A    between atoms: N1_3  and  O2_5 
REMARK    3  A    between atoms: C2_7  and  C3_8 
REMARK    4  A    between atoms: C2_7  and  N2_19 
REMARK    5  A    between atoms: C3_8  and  C4_9 
REMARK    6  A    between atoms: N2_19  and  S1_21 
REMARK    7  A    between atoms: S1_21  and  C14_24 
ROOT
HETATM    1  C2  UNL     1      56.923  40.086  17.390  1.00  0.00     0.191 C 
ENDROOT
BRANCH   1   2
HETATM    2  C1  UNL     1      56.885  40.963  18.560  1.00  0.00     0.264 C 
HETATM    3  O1  UNL     1      55.854  41.040  19.264  1.00  0.00    -0.269 OA
HETATM    4  N1  UNL     1      57.997  41.750  18.930  1.00  0.00    -0.236 N 
ATOM      5  H1  UNL     1      58.848  41.710  18.369  1.00  0.00     0.197 HD
BRANCH   4   6
HETATM    6  O2  UNL     1      57.956  42.569  20.034  1.00  0.00    -0.287 OA
ATOM      7  H2  UNL     1      57.685  43.478  19.964  1.00  0.00     0.244 HD
ENDBRANCH   4   6
ENDBRANCH   1   2
BRANCH   1   8
HETATM    8  C3  UNL     1      55.827  40.326  16.378  1.00  0.00     0.074 C 
BRANCH   8   9
HETATM    9  C4  UNL     1      55.689  39.305  15.333  1.00  0.00    -0.055 A 
HETATM   10  C5  UNL     1      55.852  39.546  13.995  1.00  0.00     0.008 A 
HETATM   11  C6  UNL     1      55.681  38.535  13.090  1.00  0.00     0.013 A 
HETATM   12  C7  UNL     1      55.344  37.258  13.463  1.00  0.00    -0.026 A 
HETATM   13  C8  UNL     1      55.172  36.238  12.534  1.00  0.00     0.012 A 
HETATM   14  C12 UNL     1      55.180  37.017  14.808  1.00  0.00    -0.025 A 
HETATM   15  C9  UNL     1      54.837  35.006  13.033  1.00  0.00     0.001 A 
HETATM   16  C10 UNL     1      54.664  34.728  14.371  1.00  0.00     0.001 A 
HETATM   17  C11 UNL     1      54.839  35.749  15.275  1.00  0.00     0.012 A 
HETATM   18  C13 UNL     1      55.351  38.028  15.729  1.00  0.00     0.019 A 
ENDBRANCH   8   9
ENDBRANCH   1   8
BRANCH   1  19
HETATM   19  N2  UNL     1      58.166  40.341  16.623  1.00  0.00    -0.301 N 
ATOM     20  H2  UNL     1      58.280  41.116  15.969  1.00  0.00     0.173 HD
BRANCH  19  21
HETATM   21  S1  UNL     1      59.385  39.192  16.956  1.00  0.00     0.259 S 
HETATM   22  O3  UNL     1      60.744  39.677  16.526  1.00  0.00    -0.201 OA
HETATM   23  O4  UNL     1      59.490  38.876  18.425  1.00  0.00    -0.201 OA
BRANCH  21  24
HETATM   24  C14 UNL     1      59.010  37.711  16.130  1.00  0.00     0.080 A 
HETATM   25  C15 UNL     1      59.097  37.656  14.765  1.00  0.00     0.026 A 
HETATM   26  C16 UNL     1      58.804  36.472  14.089  1.00  0.00     0.014 A 
HETATM   27  C17 UNL     1      58.431  35.373  14.828  1.00  0.00    -0.026 A 
HETATM   28  C18 UNL     1      58.141  34.196  14.148  1.00  0.00     0.012 A 
HETATM   29  C22 UNL     1      58.338  35.405  16.191  1.00  0.00    -0.025 A 
HETATM   30  C19 UNL     1      57.772  33.108  14.886  1.00  0.00     0.001 A 
HETATM   31  C20 UNL     1      57.676  33.135  16.262  1.00  0.00     0.001 A 
HETATM   32  C21 UNL     1      57.968  34.315  16.921  1.00  0.00     0.012 A 
HETATM   33  C23 UNL     1      58.635  36.599  16.840  1.00  0.00     0.037 A 
ENDBRANCH  21  24
ENDBRANCH  19  21
ENDBRANCH   1  19
TORSDOF 7
ENDMDL
