MODEL 14
REMARK VINA RESULT: -7.736756774      3.748      5.955
REMARK  7 active torsions:
REMARK  status: ('A' for Active; 'I' for Inactive)
REMARK       I    between atoms: C1_2  and  N1_3 
REMARK    1  A    between atoms: C1_2  and  C2_7 
REMARK    2  A    between atoms: N1_3  and  O2_5 
REMARK    3  A    between atoms: C2_7  and  C3_8 
REMARK    4  A    between atoms: C2_7  and  N2_19 
REMARK    5  A    between atoms: C3_8  and  C4_9 
REMARK    6  A    between atoms: N2_19  and  S1_21 
REMARK    7  A    between atoms: S1_21  and  C14_24 
ROOT
HETATM    1  C2  UNL     1      56.433  40.656  17.446  1.00  0.00     0.191 C 
ENDROOT
BRANCH   1   2
HETATM    2  C1  UNL     1      57.487  40.771  18.454  1.00  0.00     0.264 C 
HETATM    3  O1  UNL     1      57.231  40.600  19.666  1.00  0.00    -0.269 OA
HETATM    4  N1  UNL     1      58.819  41.081  18.098  1.00  0.00    -0.236 N 
ATOM      5  H1  UNL     1      59.053  41.231  17.117  1.00  0.00     0.197 HD
BRANCH   4   6
HETATM    6  O2  UNL     1      59.806  41.184  19.050  1.00  0.00    -0.287 OA
ATOM      7  H2  UNL     1      60.464  40.506  19.154  1.00  0.00     0.244 HD
ENDBRANCH   4   6
ENDBRANCH   1   2
BRANCH   1   8
HETATM    8  C3  UNL     1      55.643  41.920  17.204  1.00  0.00     0.074 C 
BRANCH   8   9
HETATM    9  C4  UNL     1      54.244  41.731  16.804  1.00  0.00    -0.055 A 
HETATM   10  C5  UNL     1      53.377  40.867  17.419  1.00  0.00     0.008 A 
HETATM   11  C6  UNL     1      52.094  40.741  16.960  1.00  0.00     0.013 A 
HETATM   12  C7  UNL     1      51.619  41.453  15.889  1.00  0.00    -0.026 A 
HETATM   13  C8  UNL     1      50.313  41.316  15.430  1.00  0.00     0.012 A 
HETATM   14  C12 UNL     1      52.491  42.321  15.271  1.00  0.00    -0.025 A 
HETATM   15  C9  UNL     1      49.959  42.083  14.352  1.00  0.00     0.001 A 
HETATM   16  C10 UNL     1      50.804  42.962  13.709  1.00  0.00     0.001 A 
HETATM   17  C11 UNL     1      52.091  43.083  14.176  1.00  0.00     0.012 A 
HETATM   18  C13 UNL     1      53.785  42.457  15.725  1.00  0.00     0.019 A 
ENDBRANCH   8   9
ENDBRANCH   1   8
BRANCH   1  19
HETATM   19  N2  UNL     1      57.043  40.369  16.125  1.00  0.00    -0.301 N 
ATOM     20  H2  UNL     1      57.758  40.954  15.691  1.00  0.00     0.173 HD
BRANCH  19  21
HETATM   21  S1  UNL     1      56.415  38.949  15.412  1.00  0.00     0.259 S 
HETATM   22  O3  UNL     1      57.488  38.147  14.724  1.00  0.00    -0.201 OA
HETATM   23  O4  UNL     1      55.779  38.032  16.423  1.00  0.00    -0.201 OA
BRANCH  21  24
HETATM   24  C14 UNL     1      55.189  39.386  14.262  1.00  0.00     0.080 A 
HETATM   25  C15 UNL     1      55.475  40.298  13.282  1.00  0.00     0.026 A 
HETATM   26  C16 UNL     1      54.503  40.654  12.348  1.00  0.00     0.014 A 
HETATM   27  C17 UNL     1      53.262  40.067  12.440  1.00  0.00    -0.026 A 
HETATM   28  C18 UNL     1      52.298  40.425  11.506  1.00  0.00     0.012 A 
HETATM   29  C22 UNL     1      52.956  39.153  13.410  1.00  0.00    -0.025 A 
HETATM   30  C19 UNL     1      51.068  39.839  11.602  1.00  0.00     0.001 A 
HETATM   31  C20 UNL     1      50.753  38.918  12.579  1.00  0.00     0.001 A 
HETATM   32  C21 UNL     1      51.726  38.573  13.500  1.00  0.00     0.012 A 
HETATM   33  C23 UNL     1      53.944  38.817  14.329  1.00  0.00     0.037 A 
ENDBRANCH  21  24
ENDBRANCH  19  21
ENDBRANCH   1  19
TORSDOF 7
ENDMDL
