MODEL 11
REMARK VINA RESULT: -7.911735912      1.741      4.669
REMARK  7 active torsions:
REMARK  status: ('A' for Active; 'I' for Inactive)
REMARK       I    between atoms: C1_2  and  N1_3 
REMARK    1  A    between atoms: C1_2  and  C2_7 
REMARK    2  A    between atoms: N1_3  and  O2_5 
REMARK    3  A    between atoms: C2_7  and  C3_8 
REMARK    4  A    between atoms: C2_7  and  N2_19 
REMARK    5  A    between atoms: C3_8  and  C4_9 
REMARK    6  A    between atoms: N2_19  and  S1_21 
REMARK    7  A    between atoms: S1_21  and  C14_24 
ROOT
HETATM    1  C2  UNL     1      57.873  39.718  17.488  1.00  0.00     0.191 C 
ENDROOT
BRANCH   1   2
HETATM    2  C1  UNL     1      57.787  40.499  18.721  1.00  0.00     0.264 C 
HETATM    3  O1  UNL     1      57.539  39.941  19.812  1.00  0.00    -0.269 OA
HETATM    4  N1  UNL     1      57.977  41.899  18.724  1.00  0.00    -0.236 N 
ATOM      5  H1  UNL     1      58.176  42.379  17.847  1.00  0.00     0.197 HD
BRANCH   4   6
HETATM    6  O2  UNL     1      57.900  42.627  19.888  1.00  0.00    -0.287 OA
ATOM      7  H2  UNL     1      58.636  43.141  20.198  1.00  0.00     0.244 HD
ENDBRANCH   4   6
ENDBRANCH   1   2
BRANCH   1   8
HETATM    8  C3  UNL     1      58.874  38.586  17.519  1.00  0.00     0.074 C 
BRANCH   8   9
HETATM    9  C4  UNL     1      58.695  37.548  16.498  1.00  0.00    -0.055 A 
HETATM   10  C5  UNL     1      58.795  37.769  15.150  1.00  0.00     0.008 A 
HETATM   11  C6  UNL     1      58.590  36.742  14.270  1.00  0.00     0.013 A 
HETATM   12  C7  UNL     1      58.279  35.469  14.678  1.00  0.00    -0.026 A 
HETATM   13  C8  UNL     1      58.071  34.433  13.774  1.00  0.00     0.012 A 
HETATM   14  C12 UNL     1      58.178  35.249  16.033  1.00  0.00    -0.025 A 
HETATM   15  C9  UNL     1      57.768  33.207  14.307  1.00  0.00     0.001 A 
HETATM   16  C10 UNL     1      57.659  32.949  15.656  1.00  0.00     0.001 A 
HETATM   17  C11 UNL     1      57.867  33.986  16.535  1.00  0.00     0.012 A 
HETATM   18  C13 UNL     1      58.384  36.275  16.929  1.00  0.00     0.019 A 
ENDBRANCH   8   9
ENDBRANCH   1   8
BRANCH   1  19
HETATM   19  N2  UNL     1      56.580  39.031  17.249  1.00  0.00    -0.301 N 
ATOM     20  H2  UNL     1      56.362  38.095  17.593  1.00  0.00     0.173 HD
BRANCH  19  21
HETATM   21  S1  UNL     1      55.497  39.983  16.334  1.00  0.00     0.259 S 
HETATM   22  O3  UNL     1      54.122  40.014  16.949  1.00  0.00    -0.201 OA
HETATM   23  O4  UNL     1      55.945  41.417  16.222  1.00  0.00    -0.201 OA
BRANCH  21  24
HETATM   24  C14 UNL     1      55.397  39.341  14.723  1.00  0.00     0.080 A 
HETATM   25  C15 UNL     1      55.171  38.003  14.541  1.00  0.00     0.026 A 
HETATM   26  C16 UNL     1      55.083  37.475  13.253  1.00  0.00     0.014 A 
HETATM   27  C17 UNL     1      55.227  38.329  12.185  1.00  0.00    -0.026 A 
HETATM   28  C18 UNL     1      55.138  37.796  10.905  1.00  0.00     0.012 A 
HETATM   29  C22 UNL     1      55.452  39.668  12.345  1.00  0.00    -0.025 A 
HETATM   30  C19 UNL     1      55.281  38.649   9.848  1.00  0.00     0.001 A 
HETATM   31  C20 UNL     1      55.509  40.001  10.003  1.00  0.00     0.001 A 
HETATM   32  C21 UNL     1      55.595  40.513  11.285  1.00  0.00     0.012 A 
HETATM   33  C23 UNL     1      55.536  40.168  13.640  1.00  0.00     0.037 A 
ENDBRANCH  21  24
ENDBRANCH  19  21
ENDBRANCH   1  19
TORSDOF 7
ENDMDL
