MODEL 2
REMARK VINA RESULT: -9.682472204      1.056      1.147
REMARK  7 active torsions:
REMARK  status: ('A' for Active; 'I' for Inactive)
REMARK       I    between atoms: C1_2  and  N1_3 
REMARK    1  A    between atoms: C1_2  and  C2_7 
REMARK    2  A    between atoms: N1_3  and  O2_5 
REMARK    3  A    between atoms: C2_7  and  C3_8 
REMARK    4  A    between atoms: C2_7  and  N2_19 
REMARK    5  A    between atoms: C3_8  and  C4_9 
REMARK    6  A    between atoms: N2_19  and  S1_21 
REMARK    7  A    between atoms: S1_21  and  C14_24 
ROOT
HETATM    1  C2  UNL     1      56.086  40.408  16.780  1.00  0.00     0.191 C 
ENDROOT
BRANCH   1   2
HETATM    2  C1  UNL     1      55.654  41.412  17.753  1.00  0.00     0.264 C 
HETATM    3  O1  UNL     1      55.615  41.140  18.973  1.00  0.00    -0.269 OA
HETATM    4  N1  UNL     1      55.266  42.710  17.353  1.00  0.00    -0.236 N 
ATOM      5  H1  UNL     1      55.283  42.955  16.363  1.00  0.00     0.197 HD
BRANCH   4   6
HETATM    6  O2  UNL     1      54.865  43.650  18.273  1.00  0.00    -0.287 OA
ATOM      7  H2  UNL     1      54.631  44.532  18.008  1.00  0.00     0.244 HD
ENDBRANCH   4   6
ENDBRANCH   1   2
BRANCH   1   8
HETATM    8  C3  UNL     1      55.439  40.522  15.419  1.00  0.00     0.074 C 
BRANCH   8   9
HETATM    9  C4  UNL     1      55.450  39.301  14.605  1.00  0.00    -0.055 A 
HETATM   10  C5  UNL     1      55.739  39.272  13.266  1.00  0.00     0.008 A 
HETATM   11  C6  UNL     1      55.702  38.087  12.583  1.00  0.00     0.013 A 
HETATM   12  C7  UNL     1      55.383  36.897  13.184  1.00  0.00    -0.026 A 
HETATM   13  C8  UNL     1      55.348  35.698  12.479  1.00  0.00     0.012 A 
HETATM   14  C12 UNL     1      55.092  36.927  14.530  1.00  0.00    -0.025 A 
HETATM   15  C9  UNL     1      55.015  34.577  13.194  1.00  0.00     0.001 A 
HETATM   16  C10 UNL     1      54.719  34.570  14.540  1.00  0.00     0.001 A 
HETATM   17  C11 UNL     1      54.758  35.764  15.220  1.00  0.00     0.012 A 
HETATM   18  C13 UNL     1      55.127  38.114  15.228  1.00  0.00     0.019 A 
ENDBRANCH   8   9
ENDBRANCH   1   8
BRANCH   1  19
HETATM   19  N2  UNL     1      57.530  40.588  16.495  1.00  0.00    -0.301 N 
ATOM     20  H2  UNL     1      57.902  41.323  15.894  1.00  0.00     0.173 HD
BRANCH  19  21
HETATM   21  S1  UNL     1      58.499  39.425  17.287  1.00  0.00     0.259 S 
HETATM   22  O3  UNL     1      59.917  39.902  17.457  1.00  0.00    -0.201 OA
HETATM   23  O4  UNL     1      57.991  39.096  18.666  1.00  0.00    -0.201 OA
BRANCH  21  24
HETATM   24  C14 UNL     1      58.489  37.954  16.363  1.00  0.00     0.080 A 
HETATM   25  C15 UNL     1      58.815  37.987  15.034  1.00  0.00     0.026 A 
HETATM   26  C16 UNL     1      58.817  36.813  14.282  1.00  0.00     0.014 A 
HETATM   27  C17 UNL     1      58.486  35.634  14.908  1.00  0.00    -0.026 A 
HETATM   28  C18 UNL     1      58.491  34.468  14.153  1.00  0.00     0.012 A 
HETATM   29  C22 UNL     1      58.159  35.579  16.235  1.00  0.00    -0.025 A 
HETATM   30  C19 UNL     1      58.162  33.301  14.781  1.00  0.00     0.001 A 
HETATM   31  C20 UNL     1      57.830  33.238  16.119  1.00  0.00     0.001 A 
HETATM   32  C21 UNL     1      57.831  34.410  16.854  1.00  0.00     0.012 A 
HETATM   33  C23 UNL     1      58.164  36.765  16.961  1.00  0.00     0.037 A 
ENDBRANCH  21  24
ENDBRANCH  19  21
ENDBRANCH   1  19
TORSDOF 7
ENDMDL
