MODEL 3
REMARK VINA RESULT: -9.606275386      0.489      1.317
REMARK  7 active torsions:
REMARK  status: ('A' for Active; 'I' for Inactive)
REMARK       I    between atoms: C1_2  and  N1_3 
REMARK    1  A    between atoms: C1_2  and  C2_7 
REMARK    2  A    between atoms: N1_3  and  O2_5 
REMARK    3  A    between atoms: C2_7  and  C3_8 
REMARK    4  A    between atoms: C2_7  and  N2_19 
REMARK    5  A    between atoms: C3_8  and  C4_9 
REMARK    6  A    between atoms: N2_19  and  S1_21 
REMARK    7  A    between atoms: S1_21  and  C14_24 
ROOT
HETATM    1  C2  UNL     1      57.025  40.022  17.363  1.00  0.00     0.191 C 
ENDROOT
BRANCH   1   2
HETATM    2  C1  UNL     1      57.004  40.888  18.543  1.00  0.00     0.264 C 
HETATM    3  O1  UNL     1      56.003  40.917  19.292  1.00  0.00    -0.269 OA
HETATM    4  N1  UNL     1      58.100  41.715  18.872  1.00  0.00    -0.236 N 
ATOM      5  H1  UNL     1      58.926  41.712  18.274  1.00  0.00     0.197 HD
BRANCH   4   6
HETATM    6  O2  UNL     1      58.076  42.522  19.985  1.00  0.00    -0.287 OA
ATOM      7  H2  UNL     1      58.135  43.468  19.909  1.00  0.00     0.244 HD
ENDBRANCH   4   6
ENDBRANCH   1   2
BRANCH   1   8
HETATM    8  C3  UNL     1      55.827  40.159  16.453  1.00  0.00     0.074 C 
BRANCH   8   9
HETATM    9  C4  UNL     1      55.728  39.166  15.376  1.00  0.00    -0.055 A 
HETATM   10  C5  UNL     1      55.999  39.429  14.059  1.00  0.00     0.008 A 
HETATM   11  C6  UNL     1      55.857  38.445  13.120  1.00  0.00     0.013 A 
HETATM   12  C7  UNL     1      55.447  37.175  13.437  1.00  0.00    -0.026 A 
HETATM   13  C8  UNL     1      55.305  36.181  12.474  1.00  0.00     0.012 A 
HETATM   14  C12 UNL     1      55.175  36.911  14.761  1.00  0.00    -0.025 A 
HETATM   15  C9  UNL     1      54.889  34.953  12.918  1.00  0.00     0.001 A 
HETATM   16  C10 UNL     1      54.609  34.653  14.233  1.00  0.00     0.001 A 
HETATM   17  C11 UNL     1      54.754  35.648  15.171  1.00  0.00     0.012 A 
HETATM   18  C13 UNL     1      55.315  37.895  15.715  1.00  0.00     0.019 A 
ENDBRANCH   8   9
ENDBRANCH   1   8
BRANCH   1  19
HETATM   19  N2  UNL     1      58.166  40.400  16.495  1.00  0.00    -0.301 N 
ATOM     20  H2  UNL     1      58.145  41.180  15.838  1.00  0.00     0.173 HD
BRANCH  19  21
HETATM   21  S1  UNL     1      59.520  39.382  16.719  1.00  0.00     0.259 S 
HETATM   22  O3  UNL     1      60.620  39.691  15.738  1.00  0.00    -0.201 OA
HETATM   23  O4  UNL     1      60.122  39.521  18.092  1.00  0.00    -0.201 OA
BRANCH  21  24
HETATM   24  C14 UNL     1      59.023  37.728  16.532  1.00  0.00     0.080 A 
HETATM   25  C15 UNL     1      58.677  36.997  17.635  1.00  0.00     0.026 A 
HETATM   26  C16 UNL     1      58.271  35.670  17.499  1.00  0.00     0.014 A 
HETATM   27  C17 UNL     1      58.230  35.124  16.237  1.00  0.00    -0.026 A 
HETATM   28  C18 UNL     1      57.824  33.802  16.108  1.00  0.00     0.012 A 
HETATM   29  C22 UNL     1      58.571  35.838  15.121  1.00  0.00    -0.025 A 
HETATM   30  C19 UNL     1      57.785  33.266  14.853  1.00  0.00     0.001 A 
HETATM   31  C20 UNL     1      58.128  33.981  13.724  1.00  0.00     0.001 A 
HETATM   32  C21 UNL     1      58.530  35.296  13.871  1.00  0.00     0.012 A 
HETATM   33  C23 UNL     1      58.972  37.159  15.286  1.00  0.00     0.037 A 
ENDBRANCH  21  24
ENDBRANCH  19  21
ENDBRANCH   1  19
TORSDOF 7
ENDMDL
