MODEL 15
REMARK VINA RESULT: -7.708868737      3.232      6.035
REMARK  7 active torsions:
REMARK  status: ('A' for Active; 'I' for Inactive)
REMARK       I    between atoms: C1_2  and  N1_3 
REMARK    1  A    between atoms: C1_2  and  C2_7 
REMARK    2  A    between atoms: N1_3  and  O2_5 
REMARK    3  A    between atoms: C2_7  and  C3_8 
REMARK    4  A    between atoms: C2_7  and  N2_19 
REMARK    5  A    between atoms: C3_8  and  C4_9 
REMARK    6  A    between atoms: N2_19  and  S1_21 
REMARK    7  A    between atoms: S1_21  and  C14_24 
ROOT
HETATM    1  C2  UNL     1      56.792  40.667  17.313  1.00  0.00     0.191 C 
ENDROOT
BRANCH   1   2
HETATM    2  C1  UNL     1      57.635  40.765  18.505  1.00  0.00     0.264 C 
HETATM    3  O1  UNL     1      57.145  40.609  19.645  1.00  0.00    -0.269 OA
HETATM    4  N1  UNL     1      59.017  41.039  18.412  1.00  0.00    -0.236 N 
ATOM      5  H1  UNL     1      59.440  41.176  17.494  1.00  0.00     0.197 HD
BRANCH   4   6
HETATM    6  O2  UNL     1      59.805  41.126  19.536  1.00  0.00    -0.287 OA
ATOM      7  H2  UNL     1      60.669  40.733  19.564  1.00  0.00     0.244 HD
ENDBRANCH   4   6
ENDBRANCH   1   2
BRANCH   1   8
HETATM    8  C3  UNL     1      57.088  39.486  16.420  1.00  0.00     0.074 C 
BRANCH   8   9
HETATM    9  C4  UNL     1      56.132  39.254  15.331  1.00  0.00    -0.055 A 
HETATM   10  C5  UNL     1      55.227  38.226  15.306  1.00  0.00     0.008 A 
HETATM   11  C6  UNL     1      54.389  38.077  14.236  1.00  0.00     0.013 A 
HETATM   12  C7  UNL     1      54.408  38.924  13.157  1.00  0.00    -0.026 A 
HETATM   13  C8  UNL     1      53.552  38.762  12.074  1.00  0.00     0.012 A 
HETATM   14  C12 UNL     1      55.318  39.957  13.183  1.00  0.00    -0.025 A 
HETATM   15  C9  UNL     1      53.668  39.675  11.059  1.00  0.00     0.001 A 
HETATM   16  C10 UNL     1      54.567  40.720  11.050  1.00  0.00     0.001 A 
HETATM   17  C11 UNL     1      55.406  40.864  12.129  1.00  0.00     0.012 A 
HETATM   18  C13 UNL     1      56.167  40.118  14.256  1.00  0.00     0.019 A 
ENDBRANCH   8   9
ENDBRANCH   1   8
BRANCH   1  19
HETATM   19  N2  UNL     1      55.384  40.449  17.723  1.00  0.00    -0.301 N 
ATOM     20  H2  UNL     1      55.024  39.557  18.063  1.00  0.00     0.173 HD
BRANCH  19  21
HETATM   21  S1  UNL     1      54.433  41.858  17.561  1.00  0.00     0.259 S 
HETATM   22  O3  UNL     1      53.605  42.119  18.792  1.00  0.00    -0.201 OA
HETATM   23  O4  UNL     1      55.267  43.092  17.340  1.00  0.00    -0.201 OA
BRANCH  21  24
HETATM   24  C14 UNL     1      53.387  41.683  16.185  1.00  0.00     0.080 A 
HETATM   25  C15 UNL     1      53.480  42.570  15.147  1.00  0.00     0.026 A 
HETATM   26  C16 UNL     1      52.651  42.438  14.034  1.00  0.00     0.014 A 
HETATM   27  C17 UNL     1      51.747  41.400  14.011  1.00  0.00    -0.026 A 
HETATM   28  C18 UNL     1      50.924  41.274  12.899  1.00  0.00     0.012 A 
HETATM   29  C22 UNL     1      51.638  40.503  15.037  1.00  0.00    -0.025 A 
HETATM   30  C19 UNL     1      50.030  40.242  12.881  1.00  0.00     0.001 A 
HETATM   31  C20 UNL     1      49.915  39.334  13.913  1.00  0.00     0.001 A 
HETATM   32  C21 UNL     1      50.743  39.476  15.013  1.00  0.00     0.012 A 
HETATM   33  C23 UNL     1      52.477  40.659  16.135  1.00  0.00     0.037 A 
ENDBRANCH  21  24
ENDBRANCH  19  21
ENDBRANCH   1  19
TORSDOF 7
ENDMDL
