MODEL 5
REMARK VINA RESULT: -6.516245143      1.555      2.252
REMARK  6 active torsions:
REMARK  status: ('A' for Active; 'I' for Inactive)
REMARK    1  A    between atoms: N5_13  and  C6_14 
REMARK    2  A    between atoms: C7_16  and  C8_17 
REMARK    3  A    between atoms: C8_17  and  O2_18 
REMARK    4  A    between atoms: O2_18  and  P1_19 
REMARK    5  A    between atoms: C9_23  and  O6_24 
REMARK    6  A    between atoms: C10_26  and  O7_27 
ROOT
HETATM    1  C6  UNL     1     -15.199  -6.245  -0.970  1.00  0.00     0.262 C 
HETATM    2  O1  UNL     1     -15.035  -7.540  -1.371  1.00  0.00    -0.353 OA
HETATM    3  C7  UNL     1     -13.732  -7.776  -1.694  1.00  0.00     0.180 C 
HETATM    4  C9  UNL     1     -12.980  -6.462  -1.656  1.00  0.00     0.182 C 
HETATM    5  C10 UNL     1     -13.842  -5.644  -0.733  1.00  0.00     0.198 C 
ENDROOT
BRANCH   1   6
HETATM    6  N5  UNL     1     -16.030  -6.196   0.193  1.00  0.00    -0.297 N 
HETATM    7  C3  UNL     1     -16.695  -7.205   0.818  1.00  0.00     0.142 A 
HETATM    8  N3  UNL     1     -16.753  -8.502   0.516  1.00  0.00    -0.336 N 
HETATM    9  C4  UNL     1     -17.382  -6.708   1.914  1.00  0.00     0.119 A 
HETATM   10  C2  UNL     1     -17.491  -9.306   1.302  1.00  0.00     0.183 A 
ATOM     11  H3  UNL     1     -16.250  -8.874  -0.290  1.00  0.00     0.168 HD
HETATM   12  N2  UNL     1     -18.174  -8.844   2.382  1.00  0.00    -0.339 N 
HETATM   13  C1  UNL     1     -18.141  -7.542   2.719  1.00  0.00     0.148 A 
ATOM     14  H2  UNL     1     -18.721  -9.495   2.947  1.00  0.00     0.167 HD
HETATM   15  N1  UNL     1     -18.833  -6.997   3.835  1.00  0.00    -0.080 NA
HETATM   16  N4  UNL     1     -17.120  -5.395   1.935  1.00  0.00    -0.346 N 
HETATM   17  C5  UNL     1     -16.311  -5.091   0.907  1.00  0.00     0.188 A 
ATOM     18  H4  UNL     1     -17.477  -4.732   2.623  1.00  0.00     0.167 HD
ENDBRANCH   1   6
BRANCH   5  19
HETATM   19  O7  UNL     1     -13.761  -4.310  -1.114  1.00  0.00    -0.388 OA
ATOM     20  H7  UNL     1     -12.984  -3.875  -0.785  1.00  0.00     0.210 HD
ENDBRANCH   5  19
BRANCH   3  21
HETATM   21  C8  UNL     1     -13.095  -8.652  -0.615  1.00  0.00     0.217 C 
BRANCH  21  22
HETATM   22  O2  UNL     1     -12.932  -9.906  -1.070  1.00  0.00    -0.280 OA
BRANCH  22  23
HETATM   23  P1  UNL     1     -14.076 -11.013  -0.989  1.00  0.00     0.422 P 
HETATM   24  O3  UNL     1     -15.614 -10.734  -1.631  1.00  0.00    -0.617 OA
HETATM   25  O4  UNL     1     -13.926 -12.390  -0.040  1.00  0.00    -0.617 OA
HETATM   26  O5  UNL     1     -13.674 -11.772  -2.241  1.00  0.00    -0.617 OA
ENDBRANCH  22  23
ENDBRANCH  21  22
ENDBRANCH   3  21
BRANCH   4  27
HETATM   27  O6  UNL     1     -13.021  -5.894  -2.913  1.00  0.00    -0.390 OA
ATOM     28  H6  UNL     1     -12.534  -5.078  -2.894  1.00  0.00     0.210 HD
ENDBRANCH   4  27
TORSDOF 6
ENDMDL
