MODEL 1
REMARK VINA RESULT: -6.964303300      0.000      0.000
REMARK  6 active torsions:
REMARK  status: ('A' for Active; 'I' for Inactive)
REMARK    1  A    between atoms: N5_13  and  C6_14 
REMARK    2  A    between atoms: C7_16  and  C8_17 
REMARK    3  A    between atoms: C8_17  and  O2_18 
REMARK    4  A    between atoms: O2_18  and  P1_19 
REMARK    5  A    between atoms: C9_23  and  O6_24 
REMARK    6  A    between atoms: C10_26  and  O7_27 
ROOT
HETATM    1  C6  UNL     1     -15.894  -6.241  -0.380  1.00  0.00     0.262 C 
HETATM    2  O1  UNL     1     -15.469  -6.760  -1.570  1.00  0.00    -0.353 OA
HETATM    3  C7  UNL     1     -14.159  -6.450  -1.783  1.00  0.00     0.180 C 
HETATM    4  C9  UNL     1     -13.707  -5.493  -0.699  1.00  0.00     0.182 C 
HETATM    5  C10 UNL     1     -14.690  -5.791   0.400  1.00  0.00     0.198 C 
ENDROOT
BRANCH   1   6
HETATM    6  N5  UNL     1     -16.672  -7.212   0.325  1.00  0.00    -0.297 N 
HETATM    7  C3  UNL     1     -17.241  -8.358  -0.136  1.00  0.00     0.142 A 
HETATM    8  N3  UNL     1     -17.228  -8.881  -1.362  1.00  0.00    -0.336 N 
HETATM    9  C4  UNL     1     -17.908  -9.000   0.894  1.00  0.00     0.119 A 
HETATM   10  C2  UNL     1     -17.875 -10.043  -1.565  1.00  0.00     0.183 A 
ATOM     11  H3  UNL     1     -16.739  -8.413  -2.126  1.00  0.00     0.168 HD
HETATM   12  N2  UNL     1     -18.537 -10.693  -0.571  1.00  0.00    -0.339 N 
HETATM   13  C1  UNL     1     -18.573 -10.197   0.678  1.00  0.00     0.148 A 
ATOM     14  H2  UNL     1     -19.014 -11.572  -0.776  1.00  0.00     0.167 HD
HETATM   15  N1  UNL     1     -19.247 -10.827   1.760  1.00  0.00    -0.080 NA
HETATM   16  N4  UNL     1     -17.730  -8.226   1.972  1.00  0.00    -0.346 N 
HETATM   17  C5  UNL     1     -16.991  -7.158   1.630  1.00  0.00     0.188 A 
ATOM     18  H4  UNL     1     -18.098  -8.418   2.904  1.00  0.00     0.167 HD
ENDBRANCH   1   6
BRANCH   5  19
HETATM   19  O7  UNL     1     -14.913  -4.627   1.125  1.00  0.00    -0.388 OA
ATOM     20  H7  UNL     1     -14.632  -4.691   2.030  1.00  0.00     0.210 HD
ENDBRANCH   5  19
BRANCH   3  21
HETATM   21  C8  UNL     1     -13.308  -7.709  -1.608  1.00  0.00     0.217 C 
BRANCH  21  22
HETATM   22  O2  UNL     1     -14.059  -8.807  -1.802  1.00  0.00    -0.280 OA
BRANCH  22  23
HETATM   23  P1  UNL     1     -13.655 -10.243  -1.240  1.00  0.00     0.422 P 
HETATM   24  O3  UNL     1     -14.696 -11.565  -1.383  1.00  0.00    -0.617 OA
HETATM   25  O4  UNL     1     -12.322 -10.474  -0.243  1.00  0.00    -0.617 OA
HETATM   26  O5  UNL     1     -12.881 -10.698  -2.463  1.00  0.00    -0.617 OA
ENDBRANCH  22  23
ENDBRANCH  21  22
ENDBRANCH   3  21
BRANCH   4  27
HETATM   27  O6  UNL     1     -13.916  -4.201  -1.137  1.00  0.00    -0.390 OA
ATOM     28  H6  UNL     1     -14.847  -4.015  -1.100  1.00  0.00     0.210 HD
ENDBRANCH   4  27
TORSDOF 6
ENDMDL
