MODEL 6
REMARK VINA RESULT: -6.448889679      5.337      7.247
REMARK  6 active torsions:
REMARK  status: ('A' for Active; 'I' for Inactive)
REMARK    1  A    between atoms: N5_13  and  C6_14 
REMARK    2  A    between atoms: C7_16  and  C8_17 
REMARK    3  A    between atoms: C8_17  and  O2_18 
REMARK    4  A    between atoms: O2_18  and  P1_19 
REMARK    5  A    between atoms: C9_23  and  O6_24 
REMARK    6  A    between atoms: C10_26  and  O7_27 
ROOT
HETATM    1  C6  UNL     1     -11.629  -3.849  -3.281  1.00  0.00     0.262 C 
HETATM    2  O1  UNL     1     -11.761  -5.183  -3.019  1.00  0.00    -0.353 OA
HETATM    3  C7  UNL     1     -11.128  -5.504  -1.855  1.00  0.00     0.180 C 
HETATM    4  C9  UNL     1     -10.361  -4.290  -1.373  1.00  0.00     0.182 C 
HETATM    5  C10 UNL     1     -11.108  -3.170  -2.045  1.00  0.00     0.198 C 
ENDROOT
BRANCH   1   6
HETATM    6  N5  UNL     1     -12.881  -3.312  -3.715  1.00  0.00    -0.297 N 
HETATM    7  C3  UNL     1     -13.186  -2.043  -4.098  1.00  0.00     0.142 A 
HETATM    8  N3  UNL     1     -12.405  -0.965  -4.171  1.00  0.00    -0.336 N 
HETATM    9  C4  UNL     1     -14.526  -1.964  -4.441  1.00  0.00     0.119 A 
HETATM   10  C2  UNL     1     -12.954   0.191  -4.585  1.00  0.00     0.183 A 
ATOM     11  H3  UNL     1     -11.418  -1.016  -3.919  1.00  0.00     0.168 HD
HETATM   12  N2  UNL     1     -14.266   0.295  -4.928  1.00  0.00    -0.339 N 
HETATM   13  C1  UNL     1     -15.085  -0.770  -4.867  1.00  0.00     0.148 A 
ATOM     14  H2  UNL     1     -14.635   1.195  -5.236  1.00  0.00     0.167 HD
HETATM   15  N1  UNL     1     -16.464  -0.726  -5.210  1.00  0.00    -0.080 NA
HETATM   16  N4  UNL     1     -15.015  -3.197  -4.259  1.00  0.00    -0.346 N 
HETATM   17  C5  UNL     1     -14.031  -4.001  -3.825  1.00  0.00     0.188 A 
ATOM     18  H4  UNL     1     -15.981  -3.480  -4.422  1.00  0.00     0.167 HD
ENDBRANCH   1   6
BRANCH   5  19
HETATM   19  O7  UNL     1     -10.215  -2.142  -2.321  1.00  0.00    -0.388 OA
ATOM     20  H7  UNL     1     -10.108  -1.536  -1.598  1.00  0.00     0.210 HD
ENDBRANCH   5  19
BRANCH   3  21
HETATM   21  C8  UNL     1     -12.172  -5.793  -0.776  1.00  0.00     0.217 C 
BRANCH  21  22
HETATM   22  O2  UNL     1     -13.269  -6.340  -1.327  1.00  0.00    -0.280 OA
BRANCH  22  23
HETATM   23  P1  UNL     1     -13.706  -7.851  -1.069  1.00  0.00     0.422 P 
HETATM   24  O3  UNL     1     -15.298  -8.358  -1.316  1.00  0.00    -0.617 OA
HETATM   25  O4  UNL     1     -12.707  -8.953  -0.287  1.00  0.00    -0.617 OA
HETATM   26  O5  UNL     1     -13.307  -8.384  -2.433  1.00  0.00    -0.617 OA
ENDBRANCH  22  23
ENDBRANCH  21  22
ENDBRANCH   3  21
BRANCH   4  27
HETATM   27  O6  UNL     1      -9.083  -4.339  -1.893  1.00  0.00    -0.390 OA
ATOM     28  H6  UNL     1      -9.122  -4.736  -2.755  1.00  0.00     0.210 HD
ENDBRANCH   4  27
TORSDOF 6
ENDMDL
