MODEL 13
REMARK VINA RESULT: -7.752937029      4.477      9.460
REMARK  8 active torsions:
REMARK  status: ('A' for Active; 'I' for Inactive)
REMARK    1  A    between atoms: N1_2  and  C3_4 
REMARK    2  A    between atoms: C3_4  and  C4_5 
REMARK    3  A    between atoms: N3_10  and  C7_11 
REMARK    4  A    between atoms: C10_14  and  N4_15 
REMARK    5  A    between atoms: C13_18  and  N5_19 
REMARK    6  A    between atoms: N5_19  and  S1_21 
REMARK    7  A    between atoms: S1_21  and  C14_24 
REMARK    8  A    between atoms: C15_25  and  C16_26 
ROOT
HETATM    1  N4  UNL     1       5.452   5.162  20.436  1.00  0.00    -0.313 N 
HETATM    2  C11 UNL     1       5.583   3.766  20.899  1.00  0.00     0.135 C 
HETATM    3  C12 UNL     1       5.617   3.049  19.584  1.00  0.00     0.056 C 
HETATM    4  C13 UNL     1       4.753   3.843  18.605  1.00  0.00     0.187 C 
HETATM    5  C20 UNL     1       4.438   5.091  19.435  1.00  0.00     0.247 C 
HETATM    6  O3  UNL     1       3.496   5.894  19.285  1.00  0.00    -0.271 OA
ENDROOT
BRANCH   1   7
HETATM    7  C10 UNL     1       6.182   6.299  20.863  1.00  0.00     0.076 A 
HETATM    8  C9  UNL     1       5.675   7.100  21.867  1.00  0.00     0.035 A 
HETATM    9  C8  UNL     1       6.355   8.191  22.355  1.00  0.00     0.032 A 
HETATM   10  C7  UNL     1       7.613   8.557  21.859  1.00  0.00     0.043 A 
HETATM   11  C22 UNL     1       8.114   7.758  20.857  1.00  0.00     0.074 A 
HETATM   12  C21 UNL     1       7.416   6.664  20.377  1.00  0.00     0.145 A 
HETATM   13  F1  UNL     1       7.968   5.938  19.403  1.00  0.00    -0.204 F 
BRANCH  10  14
HETATM   14  N3  UNL     1       8.300   9.667  22.422  1.00  0.00    -0.309 N 
HETATM   15  C4  UNL     1       9.231   9.651  23.367  1.00  0.00     0.116 A 
HETATM   16  N2  UNL     1       9.617  10.944  23.622  1.00  0.00    -0.353 N 
HETATM   17  C5  UNL     1       8.937  11.777  22.844  1.00  0.00     0.107 A 
ATOM     18  H2  UNL     1      10.321  11.222  24.305  1.00  0.00     0.166 HD
HETATM   19  C6  UNL     1       8.108  10.985  22.088  1.00  0.00     0.115 A 
BRANCH  15  20
HETATM   20  C3  UNL     1       9.820   8.506  24.090  1.00  0.00     0.348 C 
BRANCH  20  21
HETATM   21  N1  UNL     1      10.016   8.819  25.513  1.00  0.00     0.086 N 
HETATM   22  C1  UNL     1      11.307   8.373  25.947  1.00  0.00     0.309 C 
HETATM   23  C2  UNL     1       8.932   8.186  26.230  1.00  0.00     0.309 C 
ENDBRANCH  20  21
ENDBRANCH  15  20
ENDBRANCH  10  14
ENDBRANCH   1   7
BRANCH   4  24
HETATM   24  N5  UNL     1       5.618   4.306  17.555  1.00  0.00    -0.302 N 
ATOM     25  H5  UNL     1       6.055   5.227  17.600  1.00  0.00     0.173 HD
BRANCH  24  26
HETATM   26  S1  UNL     1       5.887   3.281  16.249  1.00  0.00     0.249 S 
HETATM   27  O1  UNL     1       4.558   2.565  15.964  1.00  0.00    -0.201 OA
HETATM   28  O2  UNL     1       6.124   4.180  15.028  1.00  0.00    -0.201 OA
BRANCH  26  29
HETATM   29  C14 UNL     1       7.166   2.150  16.366  1.00  0.00     0.132 C 
HETATM   30  C15 UNL     1       8.156   2.229  17.209  1.00  0.00     0.032 C 
BRANCH  30  31
HETATM   31  C16 UNL     1       9.176   1.154  17.173  1.00  0.00     0.007 A 
HETATM   32  C17 UNL     1      10.299   0.966  17.922  1.00  0.00     0.021 A 
HETATM   33  C18 UNL     1      11.044  -0.116  17.665  1.00  0.00     0.033 A 
HETATM   34  C19 UNL     1      10.625  -0.954  16.672  1.00  0.00     0.075 A 
HETATM   35 CL1  UNL     1      11.407  -2.451  16.121  1.00  0.00    -0.076 Cl
HETATM   36  S2  UNL     1       9.199  -0.214  16.115  1.00  0.00    -0.078 SA
ENDBRANCH  30  31
ENDBRANCH  26  29
ENDBRANCH  24  26
ENDBRANCH   4  24
TORSDOF 8
ENDMDL
