MODEL 1
REMARK VINA RESULT: -8.568037057      0.000      0.000
REMARK  8 active torsions:
REMARK  status: ('A' for Active; 'I' for Inactive)
REMARK    1  A    between atoms: N1_2  and  C3_4 
REMARK    2  A    between atoms: C3_4  and  C4_5 
REMARK    3  A    between atoms: N3_10  and  C7_11 
REMARK    4  A    between atoms: C10_14  and  N4_15 
REMARK    5  A    between atoms: C13_18  and  N5_19 
REMARK    6  A    between atoms: N5_19  and  S1_21 
REMARK    7  A    between atoms: S1_21  and  C14_24 
REMARK    8  A    between atoms: C15_25  and  C16_26 
ROOT
HETATM    1  N4  UNL     1       5.363   5.276  19.943  1.00  0.00    -0.313 N 
HETATM    2  C11 UNL     1       4.522   6.244  19.209  1.00  0.00     0.135 C 
HETATM    3  C12 UNL     1       4.738   7.471  20.041  1.00  0.00     0.056 C 
HETATM    4  C13 UNL     1       4.950   7.017  21.485  1.00  0.00     0.187 C 
HETATM    5  C20 UNL     1       5.017   5.498  21.310  1.00  0.00     0.247 C 
HETATM    6  O3  UNL     1       4.817   4.616  22.168  1.00  0.00    -0.271 OA
ENDROOT
BRANCH   1   7
HETATM    7  C10 UNL     1       6.311   4.363  19.417  1.00  0.00     0.076 A 
HETATM    8  C9  UNL     1       6.007   3.018  19.359  1.00  0.00     0.035 A 
HETATM    9  C8  UNL     1       6.866   2.090  18.820  1.00  0.00     0.032 A 
HETATM   10  C7  UNL     1       8.111   2.457  18.293  1.00  0.00     0.043 A 
HETATM   11  C22 UNL     1       8.411   3.799  18.355  1.00  0.00     0.074 A 
HETATM   12  C21 UNL     1       7.535   4.719  18.900  1.00  0.00     0.145 A 
HETATM   13  F1  UNL     1       7.899   6.003  18.925  1.00  0.00    -0.204 F 
BRANCH  10  14
HETATM   14  N3  UNL     1       8.950   1.470  17.708  1.00  0.00    -0.309 N 
HETATM   15  C4  UNL     1       8.818   0.893  16.519  1.00  0.00     0.116 A 
HETATM   16  N2  UNL     1       9.839  -0.009  16.356  1.00  0.00    -0.353 N 
HETATM   17  C5  UNL     1      10.616  -0.008  17.432  1.00  0.00     0.107 A 
ATOM     18  H2  UNL     1       9.979  -0.594  15.532  1.00  0.00     0.166 HD
HETATM   19  C6  UNL     1      10.066   0.917  18.285  1.00  0.00     0.115 A 
BRANCH  15  20
HETATM   20  C3  UNL     1       7.792   1.105  15.479  1.00  0.00     0.348 C 
BRANCH  20  21
HETATM   21  N1  UNL     1       6.580   0.322  15.759  1.00  0.00     0.086 N 
HETATM   22  C1  UNL     1       6.565  -0.872  14.966  1.00  0.00     0.309 C 
HETATM   23  C2  UNL     1       5.455   1.189  15.492  1.00  0.00     0.309 C 
ENDBRANCH  20  21
ENDBRANCH  15  20
ENDBRANCH  10  14
ENDBRANCH   1   7
BRANCH   4  24
HETATM   24  N5  UNL     1       6.280   7.407  21.862  1.00  0.00    -0.302 N 
ATOM     25  H5  UNL     1       7.066   7.284  21.222  1.00  0.00     0.173 HD
BRANCH  24  26
HETATM   26  S1  UNL     1       6.502   8.071  23.391  1.00  0.00     0.249 S 
HETATM   27  O1  UNL     1       6.220   9.576  23.267  1.00  0.00    -0.201 OA
HETATM   28  O2  UNL     1       5.370   7.526  24.273  1.00  0.00    -0.201 OA
BRANCH  26  29
HETATM   29  C14 UNL     1       7.999   7.802  24.174  1.00  0.00     0.132 C 
HETATM   30  C15 UNL     1       8.310   8.245  25.358  1.00  0.00     0.032 C 
BRANCH  30  31
HETATM   31  C16 UNL     1       9.654   7.911  25.885  1.00  0.00     0.007 A 
HETATM   32  C17 UNL     1      10.030   7.269  27.027  1.00  0.00     0.021 A 
HETATM   33  C18 UNL     1      11.341   7.103  27.245  1.00  0.00     0.033 A 
HETATM   34  C19 UNL     1      12.207   7.590  26.309  1.00  0.00     0.075 A 
HETATM   35 CL1  UNL     1      13.981   7.511  26.335  1.00  0.00    -0.076 Cl
HETATM   36  S2  UNL     1      11.175   8.269  25.141  1.00  0.00    -0.078 SA
ENDBRANCH  30  31
ENDBRANCH  26  29
ENDBRANCH  24  26
ENDBRANCH   4  24
TORSDOF 8
ENDMDL
