MODEL 6
REMARK VINA RESULT: -8.111915927      1.602      1.890
REMARK  8 active torsions:
REMARK  status: ('A' for Active; 'I' for Inactive)
REMARK    1  A    between atoms: N1_2  and  C3_4 
REMARK    2  A    between atoms: C3_4  and  C4_5 
REMARK    3  A    between atoms: N3_10  and  C7_11 
REMARK    4  A    between atoms: C10_14  and  N4_15 
REMARK    5  A    between atoms: C13_18  and  N5_19 
REMARK    6  A    between atoms: N5_19  and  S1_21 
REMARK    7  A    between atoms: S1_21  and  C14_24 
REMARK    8  A    between atoms: C15_25  and  C16_26 
ROOT
HETATM    1  N4  UNL     1       5.749   6.488  20.118  1.00  0.00    -0.313 N 
HETATM    2  C11 UNL     1       4.469   7.046  19.637  1.00  0.00     0.135 C 
HETATM    3  C12 UNL     1       4.788   8.510  19.661  1.00  0.00     0.056 C 
HETATM    4  C13 UNL     1       5.771   8.747  20.808  1.00  0.00     0.187 C 
HETATM    5  C20 UNL     1       6.075   7.310  21.238  1.00  0.00     0.247 C 
HETATM    6  O3  UNL     1       6.518   6.914  22.334  1.00  0.00    -0.271 OA
ENDROOT
BRANCH   1   7
HETATM    7  C10 UNL     1       6.494   5.410  19.576  1.00  0.00     0.076 A 
HETATM    8  C9  UNL     1       5.882   4.189  19.378  1.00  0.00     0.035 A 
HETATM    9  C8  UNL     1       6.538   3.118  18.816  1.00  0.00     0.032 A 
HETATM   10  C7  UNL     1       7.876   3.205  18.408  1.00  0.00     0.043 A 
HETATM   11  C22 UNL     1       8.481   4.424  18.610  1.00  0.00     0.074 A 
HETATM   12  C21 UNL     1       7.807   5.491  19.177  1.00  0.00     0.145 A 
HETATM   13  F1  UNL     1       8.464   6.641  19.340  1.00  0.00    -0.204 F 
BRANCH  10  14
HETATM   14  N3  UNL     1       8.502   2.087  17.793  1.00  0.00    -0.309 N 
HETATM   15  C4  UNL     1       8.239   1.563  16.602  1.00  0.00     0.116 A 
HETATM   16  N2  UNL     1       9.068   0.486  16.407  1.00  0.00    -0.353 N 
HETATM   17  C5  UNL     1       9.853   0.326  17.465  1.00  0.00     0.107 A 
ATOM     18  H2  UNL     1       9.079  -0.102  15.574  1.00  0.00     0.166 HD
HETATM   19  C6  UNL     1       9.505   1.325  18.339  1.00  0.00     0.115 A 
BRANCH  15  20
HETATM   20  C3  UNL     1       7.250   1.978  15.588  1.00  0.00     0.348 C 
BRANCH  20  21
HETATM   21  N1  UNL     1       6.509   0.823  15.062  1.00  0.00     0.086 N 
HETATM   22  C1  UNL     1       6.088   1.073  13.715  1.00  0.00     0.309 C 
HETATM   23  C2  UNL     1       5.402   0.596  15.963  1.00  0.00     0.309 C 
ENDBRANCH  20  21
ENDBRANCH  15  20
ENDBRANCH  10  14
ENDBRANCH   1   7
BRANCH   4  24
HETATM   24  N5  UNL     1       6.994   9.227  20.226  1.00  0.00    -0.302 N 
ATOM     25  H5  UNL     1       7.273   8.949  19.285  1.00  0.00     0.173 HD
BRANCH  24  26
HETATM   26  S1  UNL     1       7.949  10.261  21.145  1.00  0.00     0.249 S 
HETATM   27  O1  UNL     1       8.861  11.015  20.165  1.00  0.00    -0.201 OA
HETATM   28  O2  UNL     1       7.011  11.332  21.718  1.00  0.00    -0.201 OA
BRANCH  26  29
HETATM   29  C14 UNL     1       8.867   9.585  22.420  1.00  0.00     0.132 C 
HETATM   30  C15 UNL     1       8.513   9.581  23.674  1.00  0.00     0.032 C 
BRANCH  30  31
HETATM   31  C16 UNL     1       9.432   8.944  24.646  1.00  0.00     0.007 A 
HETATM   32  C17 UNL     1       9.186   8.345  25.845  1.00  0.00     0.021 A 
HETATM   33  C18 UNL     1      10.230   7.846  26.517  1.00  0.00     0.033 A 
HETATM   34  C19 UNL     1      11.467   7.973  25.954  1.00  0.00     0.075 A 
HETATM   35 CL1  UNL     1      13.017   7.408  26.613  1.00  0.00    -0.076 Cl
HETATM   36  S2  UNL     1      11.149   8.787  24.496  1.00  0.00    -0.078 SA
ENDBRANCH  30  31
ENDBRANCH  26  29
ENDBRANCH  24  26
ENDBRANCH   4  24
TORSDOF 8
ENDMDL
