MODEL 2
REMARK VINA RESULT: -8.242176306      0.872      1.185
REMARK  8 active torsions:
REMARK  status: ('A' for Active; 'I' for Inactive)
REMARK    1  A    between atoms: N1_2  and  C3_4 
REMARK    2  A    between atoms: C3_4  and  C4_5 
REMARK    3  A    between atoms: N3_10  and  C7_11 
REMARK    4  A    between atoms: C10_14  and  N4_15 
REMARK    5  A    between atoms: C13_18  and  N5_19 
REMARK    6  A    between atoms: N5_19  and  S1_21 
REMARK    7  A    between atoms: S1_21  and  C14_24 
REMARK    8  A    between atoms: C15_25  and  C16_26 
ROOT
HETATM    1  N4  UNL     1       5.123   5.237  20.027  1.00  0.00    -0.313 N 
HETATM    2  C11 UNL     1       4.306   6.273  19.365  1.00  0.00     0.135 C 
HETATM    3  C12 UNL     1       4.642   7.462  20.213  1.00  0.00     0.056 C 
HETATM    4  C13 UNL     1       4.902   6.957  21.631  1.00  0.00     0.187 C 
HETATM    5  C20 UNL     1       4.866   5.442  21.416  1.00  0.00     0.247 C 
HETATM    6  O3  UNL     1       4.659   4.551  22.263  1.00  0.00    -0.271 OA
ENDROOT
BRANCH   1   7
HETATM    7  C10 UNL     1       5.983   4.283  19.427  1.00  0.00     0.076 A 
HETATM    8  C9  UNL     1       7.178   4.695  18.873  1.00  0.00     0.035 A 
HETATM    9  C8  UNL     1       8.076   3.813  18.316  1.00  0.00     0.032 A 
HETATM   10  C7  UNL     1       7.828   2.435  18.278  1.00  0.00     0.043 A 
HETATM   11  C22 UNL     1       6.634   2.030  18.830  1.00  0.00     0.074 A 
HETATM   12  C21 UNL     1       5.743   2.929  19.386  1.00  0.00     0.145 A 
HETATM   13  F1  UNL     1       4.605   2.459  19.901  1.00  0.00    -0.204 F 
BRANCH  10  14
HETATM   14  N3  UNL     1       8.801   1.556  17.731  1.00  0.00    -0.309 N 
HETATM   15  C4  UNL     1       8.784   0.965  16.542  1.00  0.00     0.116 A 
HETATM   16  N2  UNL     1       9.911   0.191  16.423  1.00  0.00    -0.353 N 
HETATM   17  C5  UNL     1      10.642   0.288  17.527  1.00  0.00     0.107 A 
ATOM     18  H2  UNL     1      10.152  -0.373  15.609  1.00  0.00     0.166 HD
HETATM   19  C6  UNL     1       9.953   1.142  18.353  1.00  0.00     0.115 A 
BRANCH  15  20
HETATM   20  C3  UNL     1       7.780   1.050  15.463  1.00  0.00     0.348 C 
BRANCH  20  21
HETATM   21  N1  UNL     1       6.620   0.193  15.746  1.00  0.00     0.086 N 
HETATM   22  C1  UNL     1       6.695  -1.015  14.977  1.00  0.00     0.309 C 
HETATM   23  C2  UNL     1       5.443   0.976  15.449  1.00  0.00     0.309 C 
ENDBRANCH  20  21
ENDBRANCH  15  20
ENDBRANCH  10  14
ENDBRANCH   1   7
BRANCH   4  24
HETATM   24  N5  UNL     1       6.273   7.255  21.943  1.00  0.00    -0.302 N 
ATOM     25  H5  UNL     1       7.028   6.976  21.316  1.00  0.00     0.173 HD
BRANCH  24  26
HETATM   26  S1  UNL     1       6.593   8.077  23.374  1.00  0.00     0.249 S 
HETATM   27  O1  UNL     1       6.421   9.575  23.075  1.00  0.00    -0.201 OA
HETATM   28  O2  UNL     1       5.453   7.733  24.342  1.00  0.00    -0.201 OA
BRANCH  26  29
HETATM   29  C14 UNL     1       8.090   7.788  24.149  1.00  0.00     0.132 C 
HETATM   30  C15 UNL     1       8.411   8.221  25.335  1.00  0.00     0.032 C 
BRANCH  30  31
HETATM   31  C16 UNL     1       9.754   7.869  25.854  1.00  0.00     0.007 A 
HETATM   32  C17 UNL     1      10.128   7.221  26.993  1.00  0.00     0.021 A 
HETATM   33  C18 UNL     1      11.437   7.038  27.204  1.00  0.00     0.033 A 
HETATM   34  C19 UNL     1      12.304   7.515  26.263  1.00  0.00     0.075 A 
HETATM   35 CL1  UNL     1      14.078   7.413  26.280  1.00  0.00    -0.076 Cl
HETATM   36  S2  UNL     1      11.275   8.209  25.102  1.00  0.00    -0.078 SA
ENDBRANCH  30  31
ENDBRANCH  26  29
ENDBRANCH  24  26
ENDBRANCH   4  24
TORSDOF 8
ENDMDL
