MODEL 7
REMARK VINA RESULT: -8.067689185      1.265      1.559
REMARK  8 active torsions:
REMARK  status: ('A' for Active; 'I' for Inactive)
REMARK    1  A    between atoms: N1_2  and  C3_4 
REMARK    2  A    between atoms: C3_4  and  C4_5 
REMARK    3  A    between atoms: N3_10  and  C7_11 
REMARK    4  A    between atoms: C10_14  and  N4_15 
REMARK    5  A    between atoms: C13_18  and  N5_19 
REMARK    6  A    between atoms: N5_19  and  S1_21 
REMARK    7  A    between atoms: S1_21  and  C14_24 
REMARK    8  A    between atoms: C15_25  and  C16_26 
ROOT
HETATM    1  N4  UNL     1       6.357   6.884  19.599  1.00  0.00    -0.313 N 
HETATM    2  C11 UNL     1       6.978   8.220  19.498  1.00  0.00     0.135 C 
HETATM    3  C12 UNL     1       6.705   8.747  20.874  1.00  0.00     0.056 C 
HETATM    4  C13 UNL     1       5.383   8.143  21.345  1.00  0.00     0.187 C 
HETATM    5  C20 UNL     1       5.099   7.143  20.221  1.00  0.00     0.247 C 
HETATM    6  O3  UNL     1       4.003   6.643  19.896  1.00  0.00    -0.271 OA
ENDROOT
BRANCH   1   7
HETATM    7  C10 UNL     1       6.896   5.634  19.202  1.00  0.00     0.076 A 
HETATM    8  C9  UNL     1       6.773   5.223  17.890  1.00  0.00     0.035 A 
HETATM    9  C8  UNL     1       7.313   4.043  17.433  1.00  0.00     0.032 A 
HETATM   10  C7  UNL     1       8.025   3.182  18.278  1.00  0.00     0.043 A 
HETATM   11  C22 UNL     1       8.142   3.595  19.586  1.00  0.00     0.074 A 
HETATM   12  C21 UNL     1       7.593   4.785  20.029  1.00  0.00     0.145 A 
HETATM   13  F1  UNL     1       7.750   5.116  21.312  1.00  0.00    -0.204 F 
BRANCH  10  14
HETATM   14  N3  UNL     1       8.601   1.994  17.754  1.00  0.00    -0.309 N 
HETATM   15  C4  UNL     1       8.004   1.049  17.038  1.00  0.00     0.116 A 
HETATM   16  N2  UNL     1       8.924   0.073  16.750  1.00  0.00    -0.353 N 
HETATM   17  C5  UNL     1      10.099   0.392  17.278  1.00  0.00     0.107 A 
ATOM     18  H2  UNL     1       8.734  -0.772  16.210  1.00  0.00     0.166 HD
HETATM   19  C6  UNL     1       9.906   1.595  17.910  1.00  0.00     0.115 A 
BRANCH  15  20
HETATM   20  C3  UNL     1       6.603   0.960  16.579  1.00  0.00     0.348 C 
BRANCH  20  21
HETATM   21  N1  UNL     1       6.524   0.951  15.111  1.00  0.00     0.086 N 
HETATM   22  C1  UNL     1       5.764   2.074  14.647  1.00  0.00     0.309 C 
HETATM   23  C2  UNL     1       5.940  -0.317  14.734  1.00  0.00     0.309 C 
ENDBRANCH  20  21
ENDBRANCH  15  20
ENDBRANCH  10  14
ENDBRANCH   1   7
BRANCH   4  24
HETATM   24  N5  UNL     1       5.672   7.334  22.496  1.00  0.00    -0.302 N 
ATOM     25  H5  UNL     1       5.609   6.316  22.454  1.00  0.00     0.173 HD
BRANCH  24  26
HETATM   26  S1  UNL     1       6.117   8.117  23.916  1.00  0.00     0.249 S 
HETATM   27  O1  UNL     1       5.951   9.624  23.664  1.00  0.00    -0.201 OA
HETATM   28  O2  UNL     1       5.048   7.770  24.962  1.00  0.00    -0.201 OA
BRANCH  26  29
HETATM   29  C14 UNL     1       7.663   7.784  24.567  1.00  0.00     0.132 C 
HETATM   30  C15 UNL     1       8.287   8.535  25.429  1.00  0.00     0.032 C 
BRANCH  30  31
HETATM   31  C16 UNL     1       9.622   8.088  25.890  1.00  0.00     0.007 A 
HETATM   32  C17 UNL     1       9.987   7.329  26.962  1.00  0.00     0.021 A 
HETATM   33  C18 UNL     1      11.292   7.079  27.131  1.00  0.00     0.033 A 
HETATM   34  C19 UNL     1      12.162   7.601  26.218  1.00  0.00     0.075 A 
HETATM   35 CL1  UNL     1      13.931   7.430  26.192  1.00  0.00    -0.076 Cl
HETATM   36  S2  UNL     1      11.143   8.433  25.141  1.00  0.00    -0.078 SA
ENDBRANCH  30  31
ENDBRANCH  26  29
ENDBRANCH  24  26
ENDBRANCH   4  24
TORSDOF 8
ENDMDL
