MODEL 12
REMARK VINA RESULT: -7.758263050      4.767      8.732
REMARK  8 active torsions:
REMARK  status: ('A' for Active; 'I' for Inactive)
REMARK    1  A    between atoms: N1_2  and  C3_4 
REMARK    2  A    between atoms: C3_4  and  C4_5 
REMARK    3  A    between atoms: N3_10  and  C7_11 
REMARK    4  A    between atoms: C10_14  and  N4_15 
REMARK    5  A    between atoms: C13_18  and  N5_19 
REMARK    6  A    between atoms: N5_19  and  S1_21 
REMARK    7  A    between atoms: S1_21  and  C14_24 
REMARK    8  A    between atoms: C15_25  and  C16_26 
ROOT
HETATM    1  N4  UNL     1       3.438   6.961  23.682  1.00  0.00    -0.313 N 
HETATM    2  C11 UNL     1       2.322   6.766  24.630  1.00  0.00     0.135 C 
HETATM    3  C12 UNL     1       1.998   5.326  24.372  1.00  0.00     0.056 C 
HETATM    4  C13 UNL     1       2.301   5.043  22.901  1.00  0.00     0.187 C 
HETATM    5  C20 UNL     1       2.968   6.355  22.479  1.00  0.00     0.247 C 
HETATM    6  O3  UNL     1       3.088   6.820  21.328  1.00  0.00    -0.271 OA
ENDROOT
BRANCH   1   7
HETATM    7  C10 UNL     1       4.693   7.576  23.921  1.00  0.00     0.076 A 
HETATM    8  C9  UNL     1       5.845   6.984  23.445  1.00  0.00     0.035 A 
HETATM    9  C8  UNL     1       7.087   7.554  23.606  1.00  0.00     0.032 A 
HETATM   10  C7  UNL     1       7.257   8.777  24.266  1.00  0.00     0.043 A 
HETATM   11  C22 UNL     1       6.105   9.362  24.741  1.00  0.00     0.074 A 
HETATM   12  C21 UNL     1       4.864   8.776  24.571  1.00  0.00     0.145 A 
HETATM   13  F1  UNL     1       3.794   9.405  25.060  1.00  0.00    -0.204 F 
BRANCH  10  14
HETATM   14  N3  UNL     1       8.554   9.350  24.373  1.00  0.00    -0.309 N 
HETATM   15  C4  UNL     1       9.063  10.344  23.656  1.00  0.00     0.116 A 
HETATM   16  N2  UNL     1      10.349  10.572  24.078  1.00  0.00    -0.353 N 
HETATM   17  C5  UNL     1      10.657   9.730  25.057  1.00  0.00     0.107 A 
ATOM     18  H2  UNL     1      10.974  11.282  23.698  1.00  0.00     0.166 HD
HETATM   19  C6  UNL     1       9.537   8.959  25.248  1.00  0.00     0.115 A 
BRANCH  15  20
HETATM   20  C3  UNL     1       8.448  11.134  22.571  1.00  0.00     0.348 C 
BRANCH  20  21
HETATM   21  N1  UNL     1       8.074  10.278  21.436  1.00  0.00     0.086 N 
HETATM   22  C1  UNL     1       9.232   9.615  20.911  1.00  0.00     0.309 C 
HETATM   23  C2  UNL     1       7.428  11.132  20.466  1.00  0.00     0.309 C 
ENDBRANCH  20  21
ENDBRANCH  15  20
ENDBRANCH  10  14
ENDBRANCH   1   7
BRANCH   4  24
HETATM   24  N5  UNL     1       3.353   4.065  22.865  1.00  0.00    -0.302 N 
ATOM     25  H5  UNL     1       4.038   4.001  23.617  1.00  0.00     0.173 HD
BRANCH  24  26
HETATM   26  S1  UNL     1       3.417   3.028  21.542  1.00  0.00     0.249 S 
HETATM   27  O1  UNL     1       2.866   1.673  22.012  1.00  0.00    -0.201 OA
HETATM   28  O2  UNL     1       2.386   3.546  20.529  1.00  0.00    -0.201 OA
BRANCH  26  29
HETATM   29  C14 UNL     1       4.921   2.824  20.754  1.00  0.00     0.132 C 
HETATM   30  C15 UNL     1       5.538   3.749  20.075  1.00  0.00     0.032 C 
BRANCH  30  31
HETATM   31  C16 UNL     1       6.840   3.397  19.460  1.00  0.00     0.007 A 
HETATM   32  C17 UNL     1       7.815   4.185  18.925  1.00  0.00     0.021 A 
HETATM   33  C18 UNL     1       8.905   3.580  18.436  1.00  0.00     0.033 A 
HETATM   34  C19 UNL     1       8.961   2.218  18.508  1.00  0.00     0.075 A 
HETATM   35 CL1  UNL     1      10.274   1.161  17.946  1.00  0.00    -0.076 Cl
HETATM   36  S2  UNL     1       7.491   1.807  19.258  1.00  0.00    -0.078 SA
ENDBRANCH  30  31
ENDBRANCH  26  29
ENDBRANCH  24  26
ENDBRANCH   4  24
TORSDOF 8
ENDMDL
