MODEL 14
REMARK VINA RESULT: -7.703864130      4.715      6.607
REMARK  8 active torsions:
REMARK  status: ('A' for Active; 'I' for Inactive)
REMARK    1  A    between atoms: N1_2  and  C3_4 
REMARK    2  A    between atoms: C3_4  and  C4_5 
REMARK    3  A    between atoms: N3_10  and  C7_11 
REMARK    4  A    between atoms: C10_14  and  N4_15 
REMARK    5  A    between atoms: C13_18  and  N5_19 
REMARK    6  A    between atoms: N5_19  and  S1_21 
REMARK    7  A    between atoms: S1_21  and  C14_24 
REMARK    8  A    between atoms: C15_25  and  C16_26 
ROOT
HETATM    1  N4  UNL     1       6.538   5.990  20.790  1.00  0.00    -0.313 N 
HETATM    2  C11 UNL     1       5.140   6.458  20.870  1.00  0.00     0.135 C 
HETATM    3  C12 UNL     1       5.327   7.916  20.579  1.00  0.00     0.056 C 
HETATM    4  C13 UNL     1       6.693   8.323  21.130  1.00  0.00     0.187 C 
HETATM    5  C20 UNL     1       7.262   6.962  21.543  1.00  0.00     0.247 C 
HETATM    6  O3  UNL     1       8.170   6.727  22.364  1.00  0.00    -0.271 OA
ENDROOT
BRANCH   1   7
HETATM    7  C10 UNL     1       7.046   4.859  20.102  1.00  0.00     0.076 A 
HETATM    8  C9  UNL     1       7.889   5.037  19.024  1.00  0.00     0.035 A 
HETATM    9  C8  UNL     1       8.449   3.981  18.343  1.00  0.00     0.032 A 
HETATM   10  C7  UNL     1       8.195   2.652  18.707  1.00  0.00     0.043 A 
HETATM   11  C22 UNL     1       7.353   2.480  19.782  1.00  0.00     0.074 A 
HETATM   12  C21 UNL     1       6.798   3.553  20.455  1.00  0.00     0.145 A 
HETATM   13  F1  UNL     1       5.990   3.304  21.487  1.00  0.00    -0.204 F 
BRANCH  10  14
HETATM   14  N3  UNL     1       8.828   1.593  18.002  1.00  0.00    -0.309 N 
HETATM   15  C4  UNL     1       8.308   0.825  17.053  1.00  0.00     0.116 A 
HETATM   16  N2  UNL     1       9.260  -0.080  16.654  1.00  0.00    -0.353 N 
HETATM   17  C5  UNL     1      10.378   0.110  17.343  1.00  0.00     0.107 A 
ATOM     18  H2  UNL     1       9.127  -0.791  15.935  1.00  0.00     0.166 HD
HETATM   19  C6  UNL     1      10.116   1.157  18.191  1.00  0.00     0.115 A 
BRANCH  15  20
HETATM   20  C3  UNL     1       6.957   0.848  16.458  1.00  0.00     0.348 C 
BRANCH  20  21
HETATM   21  N1  UNL     1       6.935   1.636  15.218  1.00  0.00     0.086 N 
HETATM   22  C1  UNL     1       6.276   2.890  15.437  1.00  0.00     0.309 C 
HETATM   23  C2  UNL     1       6.277   0.823  14.221  1.00  0.00     0.309 C 
ENDBRANCH  20  21
ENDBRANCH  15  20
ENDBRANCH  10  14
ENDBRANCH   1   7
BRANCH   4  24
HETATM   24  N5  UNL     1       7.496   8.736  20.012  1.00  0.00    -0.302 N 
ATOM     25  H5  UNL     1       7.996   8.054  19.443  1.00  0.00     0.173 HD
BRANCH  24  26
HETATM   26  S1  UNL     1       7.584  10.381  19.674  1.00  0.00     0.249 S 
HETATM   27  O1  UNL     1       6.566  11.079  20.588  1.00  0.00    -0.201 OA
HETATM   28  O2  UNL     1       8.956  10.858  20.171  1.00  0.00    -0.201 OA
BRANCH  26  29
HETATM   29  C14 UNL     1       7.375  10.879  18.051  1.00  0.00     0.132 C 
HETATM   30  C15 UNL     1       6.671  10.241  17.160  1.00  0.00     0.032 C 
BRANCH  30  31
HETATM   31  C16 UNL     1       6.595  10.822  15.799  1.00  0.00     0.007 A 
HETATM   32  C17 UNL     1       7.579  11.157  14.917  1.00  0.00     0.021 A 
HETATM   33  C18 UNL     1       7.208  11.669  13.736  1.00  0.00     0.033 A 
HETATM   34  C19 UNL     1       5.871  11.819  13.502  1.00  0.00     0.075 A 
HETATM   35 CL1  UNL     1       5.098  12.464  12.037  1.00  0.00    -0.076 Cl
HETATM   36  S2  UNL     1       5.158  11.242  14.933  1.00  0.00    -0.078 SA
ENDBRANCH  30  31
ENDBRANCH  26  29
ENDBRANCH  24  26
ENDBRANCH   4  24
TORSDOF 8
ENDMDL
