MODEL 2
REMARK VINA RESULT: -10.323830878      1.228      1.544
REMARK  7 active torsions:
REMARK  status: ('A' for Active; 'I' for Inactive)
REMARK    1  A    between atoms: S1_2  and  C2_5 
REMARK    2  A    between atoms: C7_10  and  C8_11 
REMARK    3  A    between atoms: C11_14  and  N1_15 
REMARK    4  A    between atoms: C14_18  and  N2_19 
REMARK    5  A    between atoms: N2_19  and  S2_21 
REMARK    6  A    between atoms: S2_21  and  C15_24 
REMARK    7  A    between atoms: C16_25  and  C17_26 
ROOT
HETATM    1  N1  UNL     1       6.098   5.573  20.312  1.00  0.00    -0.313 N 
HETATM    2  C12 UNL     1       4.830   5.226  20.980  1.00  0.00     0.135 C 
HETATM    3  C13 UNL     1       4.071   6.553  20.966  1.00  0.00     0.056 C 
HETATM    4  C14 UNL     1       5.202   7.482  21.400  1.00  0.00     0.187 C 
HETATM    5  C21 UNL     1       6.361   6.914  20.685  1.00  0.00     0.247 C 
HETATM    6  O5  UNL     1       7.401   7.571  20.470  1.00  0.00    -0.271 OA
ENDROOT
BRANCH   1   7
HETATM    7  C11 UNL     1       6.811   4.663  19.485  1.00  0.00     0.076 A 
HETATM    8  C10 UNL     1       6.814   3.304  19.841  1.00  0.00     0.034 A 
HETATM    9  C9  UNL     1       7.461   2.392  19.080  1.00  0.00     0.014 A 
HETATM   10  C8  UNL     1       8.156   2.719  17.914  1.00  0.00    -0.021 A 
HETATM   11  C23 UNL     1       8.148   4.041  17.578  1.00  0.00     0.057 A 
HETATM   12  C22 UNL     1       7.493   4.987  18.342  1.00  0.00     0.144 A 
HETATM   13  F1  UNL     1       7.511   6.285  17.945  1.00  0.00    -0.204 F 
BRANCH  10  14
HETATM   14  C7  UNL     1       8.800   1.640  17.215  1.00  0.00    -0.004 A 
HETATM   15  C2  UNL     1       8.281   1.093  16.081  1.00  0.00     0.070 A 
HETATM   16  C3  UNL     1       8.927   0.022  15.429  1.00  0.00     0.024 A 
HETATM   17  C4  UNL     1      10.096  -0.508  15.909  1.00  0.00     0.002 A 
HETATM   18  C5  UNL     1      10.619   0.044  17.052  1.00  0.00     0.001 A 
HETATM   19  C6  UNL     1      10.004   1.088  17.698  1.00  0.00     0.014 A 
BRANCH  15  20
HETATM   20  S1  UNL     1       6.806   1.680  15.365  1.00  0.00     0.172 S 
HETATM   21  C1  UNL     1       6.287   0.676  14.036  1.00  0.00     0.167 C 
HETATM   22  O1  UNL     1       5.712   1.685  16.425  1.00  0.00    -0.223 OA
HETATM   23  O2  UNL     1       6.946   3.134  14.961  1.00  0.00    -0.223 OA
ENDBRANCH  15  20
ENDBRANCH  10  14
ENDBRANCH   1   7
BRANCH   4  24
HETATM   24  N2  UNL     1       4.940   8.828  21.028  1.00  0.00    -0.302 N 
ATOM     25  H2  UNL     1       4.517   9.110  20.144  1.00  0.00     0.173 HD
BRANCH  24  26
HETATM   26  S2  UNL     1       5.424   9.910  22.252  1.00  0.00     0.249 S 
HETATM   27  O3  UNL     1       5.874  11.210  21.617  1.00  0.00    -0.201 OA
HETATM   28  O4  UNL     1       4.207  10.199  23.132  1.00  0.00    -0.201 OA
BRANCH  26  29
HETATM   29  C15 UNL     1       6.698   9.266  23.248  1.00  0.00     0.132 C 
HETATM   30  C16 UNL     1       7.917   9.784  23.231  1.00  0.00     0.032 C 
BRANCH  30  31
HETATM   31  C17 UNL     1       8.906   9.132  24.131  1.00  0.00     0.007 A 
HETATM   32  C18 UNL     1       8.665   8.447  25.288  1.00  0.00     0.021 A 
HETATM   33  C19 UNL     1       9.731   7.943  25.937  1.00  0.00     0.033 A 
HETATM   34  C20 UNL     1      10.960   8.158  25.379  1.00  0.00     0.075 A 
HETATM   35 CL1  UNL     1      12.535   7.620  26.005  1.00  0.00    -0.076 Cl
HETATM   36  S3  UNL     1      10.602   9.055  23.974  1.00  0.00    -0.078 SA
ENDBRANCH  30  31
ENDBRANCH  26  29
ENDBRANCH  24  26
ENDBRANCH   4  24
TORSDOF 7
ENDMDL
