MODEL 5
REMARK VINA RESULT: -9.577171842      1.510      1.906
REMARK  7 active torsions:
REMARK  status: ('A' for Active; 'I' for Inactive)
REMARK    1  A    between atoms: S1_2  and  C2_5 
REMARK    2  A    between atoms: C7_10  and  C8_11 
REMARK    3  A    between atoms: C11_14  and  N1_15 
REMARK    4  A    between atoms: C14_18  and  N2_19 
REMARK    5  A    between atoms: N2_19  and  S2_21 
REMARK    6  A    between atoms: S2_21  and  C15_24 
REMARK    7  A    between atoms: C16_25  and  C17_26 
ROOT
HETATM    1  N1  UNL     1       5.401   5.110  20.544  1.00  0.00    -0.313 N 
HETATM    2  C12 UNL     1       4.035   4.717  20.938  1.00  0.00     0.135 C 
HETATM    3  C13 UNL     1       3.323   6.064  21.062  1.00  0.00     0.056 C 
HETATM    4  C14 UNL     1       4.395   6.834  21.828  1.00  0.00     0.187 C 
HETATM    5  C21 UNL     1       5.636   6.344  21.200  1.00  0.00     0.247 C 
HETATM    6  O5  UNL     1       6.714   6.972  21.271  1.00  0.00    -0.271 OA
ENDROOT
BRANCH   1   7
HETATM    7  C11 UNL     1       6.212   4.330  19.675  1.00  0.00     0.076 A 
HETATM    8  C10 UNL     1       6.317   2.952  19.926  1.00  0.00     0.034 A 
HETATM    9  C9  UNL     1       7.060   2.158  19.120  1.00  0.00     0.014 A 
HETATM   10  C8  UNL     1       7.759   2.633  18.008  1.00  0.00    -0.021 A 
HETATM   11  C23 UNL     1       7.651   3.972  17.776  1.00  0.00     0.057 A 
HETATM   12  C22 UNL     1       6.897   4.798  18.586  1.00  0.00     0.144 A 
HETATM   13  F1  UNL     1       6.818   6.121  18.291  1.00  0.00    -0.204 F 
BRANCH  10  14
HETATM   14  C7  UNL     1       8.511   1.669  17.252  1.00  0.00    -0.004 A 
HETATM   15  C2  UNL     1       8.063   1.157  16.072  1.00  0.00     0.070 A 
HETATM   16  C3  UNL     1       8.815   0.197  15.364  1.00  0.00     0.024 A 
HETATM   17  C4  UNL     1      10.021  -0.256  15.831  1.00  0.00     0.002 A 
HETATM   18  C5  UNL     1      10.473   0.261  17.020  1.00  0.00     0.001 A 
HETATM   19  C6  UNL     1       9.754   1.197  17.723  1.00  0.00     0.014 A 
BRANCH  15  20
HETATM   20  S1  UNL     1       6.550   1.654  15.366  1.00  0.00     0.172 S 
HETATM   21  C1  UNL     1       6.636   3.275  14.729  1.00  0.00     0.167 C 
HETATM   22  O1  UNL     1       6.201   0.703  14.228  1.00  0.00    -0.223 OA
HETATM   23  O2  UNL     1       5.416   1.489  16.357  1.00  0.00    -0.223 OA
ENDBRANCH  15  20
ENDBRANCH  10  14
ENDBRANCH   1   7
BRANCH   4  24
HETATM   24  N2  UNL     1       4.229   8.238  21.684  1.00  0.00    -0.302 N 
ATOM     25  H2  UNL     1       4.030   8.706  20.800  1.00  0.00     0.173 HD
BRANCH  24  26
HETATM   26  S2  UNL     1       4.406   9.036  23.179  1.00  0.00     0.249 S 
HETATM   27  O3  UNL     1       4.184  10.521  22.979  1.00  0.00    -0.201 OA
HETATM   28  O4  UNL     1       3.325   8.509  24.123  1.00  0.00    -0.201 OA
BRANCH  26  29
HETATM   29  C15 UNL     1       5.965   8.762  23.901  1.00  0.00     0.132 C 
HETATM   30  C16 UNL     1       7.033   9.447  23.521  1.00  0.00     0.032 C 
BRANCH  30  31
HETATM   31  C17 UNL     1       8.300   9.107  24.223  1.00  0.00     0.007 A 
HETATM   32  C18 UNL     1       9.560   9.556  23.950  1.00  0.00     0.021 A 
HETATM   33  C19 UNL     1      10.558   9.102  24.731  1.00  0.00     0.033 A 
HETATM   34  C20 UNL     1      10.221   8.232  25.730  1.00  0.00     0.075 A 
HETATM   35 CL1  UNL     1      11.315   7.470  26.906  1.00  0.00    -0.076 Cl
HETATM   36  S3  UNL     1       8.533   8.069  25.556  1.00  0.00    -0.078 SA
ENDBRANCH  30  31
ENDBRANCH  26  29
ENDBRANCH  24  26
ENDBRANCH   4  24
TORSDOF 7
ENDMDL
