MODEL 4
REMARK VINA RESULT: -9.928842819      1.325      1.625
REMARK  7 active torsions:
REMARK  status: ('A' for Active; 'I' for Inactive)
REMARK    1  A    between atoms: S1_2  and  C2_5 
REMARK    2  A    between atoms: C7_10  and  C8_11 
REMARK    3  A    between atoms: C11_14  and  N1_15 
REMARK    4  A    between atoms: C14_18  and  N2_19 
REMARK    5  A    between atoms: N2_19  and  S2_21 
REMARK    6  A    between atoms: S2_21  and  C15_24 
REMARK    7  A    between atoms: C16_25  and  C17_26 
ROOT
HETATM    1  N1  UNL     1       6.686   5.833  20.003  1.00  0.00    -0.313 N 
HETATM    2  C12 UNL     1       7.519   7.026  20.241  1.00  0.00     0.135 C 
HETATM    3  C13 UNL     1       6.979   7.550  21.572  1.00  0.00     0.056 C 
HETATM    4  C14 UNL     1       5.485   7.421  21.294  1.00  0.00     0.187 C 
HETATM    5  C21 UNL     1       5.417   6.150  20.547  1.00  0.00     0.247 C 
HETATM    6  O5  UNL     1       4.361   5.491  20.442  1.00  0.00    -0.271 OA
ENDROOT
BRANCH   1   7
HETATM    7  C11 UNL     1       7.174   4.665  19.355  1.00  0.00     0.076 A 
HETATM    8  C10 UNL     1       8.030   4.826  18.254  1.00  0.00     0.034 A 
HETATM    9  C9  UNL     1       8.539   3.749  17.611  1.00  0.00     0.014 A 
HETATM   10  C8  UNL     1       8.261   2.432  17.981  1.00  0.00    -0.021 A 
HETATM   11  C23 UNL     1       7.427   2.288  19.051  1.00  0.00     0.057 A 
HETATM   12  C22 UNL     1       6.898   3.375  19.720  1.00  0.00     0.144 A 
HETATM   13  F1  UNL     1       6.086   3.163  20.787  1.00  0.00    -0.204 F 
BRANCH  10  14
HETATM   14  C7  UNL     1       8.870   1.392  17.197  1.00  0.00    -0.004 A 
HETATM   15  C2  UNL     1       8.323   0.941  16.034  1.00  0.00     0.070 A 
HETATM   16  C3  UNL     1       8.935  -0.095  15.298  1.00  0.00     0.024 A 
HETATM   17  C4  UNL     1      10.097  -0.685  15.720  1.00  0.00     0.002 A 
HETATM   18  C5  UNL     1      10.647  -0.229  16.893  1.00  0.00     0.001 A 
HETATM   19  C6  UNL     1      10.066   0.779  17.622  1.00  0.00     0.014 A 
BRANCH  15  20
HETATM   20  S1  UNL     1       6.853   1.612  15.384  1.00  0.00     0.172 S 
HETATM   21  C1  UNL     1       6.270   0.693  14.021  1.00  0.00     0.167 C 
HETATM   22  O1  UNL     1       5.785   1.601  16.470  1.00  0.00    -0.223 OA
HETATM   23  O2  UNL     1       7.035   3.078  15.048  1.00  0.00    -0.223 OA
ENDBRANCH  15  20
ENDBRANCH  10  14
ENDBRANCH   1   7
BRANCH   4  24
HETATM   24  N2  UNL     1       4.733   7.384  22.499  1.00  0.00    -0.302 N 
ATOM     25  H2  UNL     1       3.948   6.754  22.669  1.00  0.00     0.173 HD
BRANCH  24  26
HETATM   26  S2  UNL     1       5.312   8.527  23.621  1.00  0.00     0.249 S 
HETATM   27  O3  UNL     1       5.394   9.884  22.952  1.00  0.00    -0.201 OA
HETATM   28  O4  UNL     1       4.301   8.614  24.767  1.00  0.00    -0.201 OA
BRANCH  26  29
HETATM   29  C15 UNL     1       6.865   8.094  24.275  1.00  0.00     0.132 C 
HETATM   30  C16 UNL     1       7.785   9.011  24.536  1.00  0.00     0.032 C 
BRANCH  30  31
HETATM   31  C17 UNL     1       9.067   8.497  25.089  1.00  0.00     0.007 A 
HETATM   32  C18 UNL     1       9.250   7.691  26.176  1.00  0.00     0.021 A 
HETATM   33  C19 UNL     1      10.516   7.357  26.487  1.00  0.00     0.033 A 
HETATM   34  C20 UNL     1      11.507   7.852  25.686  1.00  0.00     0.075 A 
HETATM   35 CL1  UNL     1      13.256   7.586  25.851  1.00  0.00    -0.076 Cl
HETATM   36  S3  UNL     1      10.655   8.767  24.528  1.00  0.00    -0.078 SA
ENDBRANCH  30  31
ENDBRANCH  26  29
ENDBRANCH  24  26
ENDBRANCH   4  24
TORSDOF 7
ENDMDL
