MODEL 7
REMARK VINA RESULT: -8.987533075      3.601      4.974
REMARK  7 active torsions:
REMARK  status: ('A' for Active; 'I' for Inactive)
REMARK    1  A    between atoms: S1_2  and  C2_5 
REMARK    2  A    between atoms: C7_10  and  C8_11 
REMARK    3  A    between atoms: C11_14  and  N1_15 
REMARK    4  A    between atoms: C14_18  and  N2_19 
REMARK    5  A    between atoms: N2_19  and  S2_21 
REMARK    6  A    between atoms: S2_21  and  C15_24 
REMARK    7  A    between atoms: C16_25  and  C17_26 
ROOT
HETATM    1  N1  UNL     1       6.638   6.111  20.359  1.00  0.00    -0.313 N 
HETATM    2  C12 UNL     1       7.555   7.176  20.807  1.00  0.00     0.135 C 
HETATM    3  C13 UNL     1       6.923   7.628  22.123  1.00  0.00     0.056 C 
HETATM    4  C14 UNL     1       5.464   7.694  21.680  1.00  0.00     0.187 C 
HETATM    5  C21 UNL     1       5.354   6.515  20.800  1.00  0.00     0.247 C 
HETATM    6  O5  UNL     1       4.255   5.992  20.518  1.00  0.00    -0.271 OA
ENDROOT
BRANCH   1   7
HETATM    7  C11 UNL     1       7.076   4.962  19.644  1.00  0.00     0.076 A 
HETATM    8  C10 UNL     1       7.948   5.149  18.559  1.00  0.00     0.034 A 
HETATM    9  C9  UNL     1       8.411   4.090  17.855  1.00  0.00     0.014 A 
HETATM   10  C8  UNL     1       8.068   2.767  18.143  1.00  0.00    -0.021 A 
HETATM   11  C23 UNL     1       7.219   2.599  19.197  1.00  0.00     0.057 A 
HETATM   12  C22 UNL     1       6.737   3.667  19.928  1.00  0.00     0.144 A 
HETATM   13  F1  UNL     1       5.906   3.430  20.975  1.00  0.00    -0.204 F 
BRANCH  10  14
HETATM   14  C7  UNL     1       8.634   1.749  17.301  1.00  0.00    -0.004 A 
HETATM   15  C2  UNL     1       7.999   1.287  16.188  1.00  0.00     0.070 A 
HETATM   16  C3  UNL     1       8.572   0.272  15.394  1.00  0.00     0.024 A 
HETATM   17  C4  UNL     1       9.784  -0.286  15.707  1.00  0.00     0.002 A 
HETATM   18  C5  UNL     1      10.424   0.182  16.829  1.00  0.00     0.001 A 
HETATM   19  C6  UNL     1       9.881   1.169  17.613  1.00  0.00     0.014 A 
BRANCH  15  20
HETATM   20  S1  UNL     1       6.458   1.917  15.677  1.00  0.00     0.172 S 
HETATM   21  C1  UNL     1       6.586   3.564  15.119  1.00  0.00     0.167 C 
HETATM   22  O1  UNL     1       5.929   1.057  14.535  1.00  0.00    -0.223 OA
HETATM   23  O2  UNL     1       5.425   1.763  16.774  1.00  0.00    -0.223 OA
ENDBRANCH  15  20
ENDBRANCH  10  14
ENDBRANCH   1   7
BRANCH   4  24
HETATM   24  N2  UNL     1       4.580   7.627  22.791  1.00  0.00    -0.302 N 
ATOM     25  H2  UNL     1       4.618   6.910  23.515  1.00  0.00     0.173 HD
BRANCH  24  26
HETATM   26  S2  UNL     1       3.449   8.902  22.755  1.00  0.00     0.249 S 
HETATM   27  O3  UNL     1       2.113   8.368  22.282  1.00  0.00    -0.201 OA
HETATM   28  O4  UNL     1       3.283   9.421  24.184  1.00  0.00    -0.201 OA
BRANCH  26  29
HETATM   29  C15 UNL     1       3.957  10.217  21.735  1.00  0.00     0.132 C 
HETATM   30  C16 UNL     1       3.259  10.571  20.666  1.00  0.00     0.032 C 
BRANCH  30  31
HETATM   31  C17 UNL     1       3.812  11.711  19.886  1.00  0.00     0.007 A 
HETATM   32  C18 UNL     1       5.122  12.051  19.708  1.00  0.00     0.021 A 
HETATM   33  C19 UNL     1       5.379  13.135  18.954  1.00  0.00     0.033 A 
HETATM   34  C20 UNL     1       4.305  13.800  18.431  1.00  0.00     0.075 A 
HETATM   35 CL1  UNL     1       4.334  15.254  17.409  1.00  0.00    -0.076 Cl
HETATM   36  S3  UNL     1       2.973  12.903  19.001  1.00  0.00    -0.078 SA
ENDBRANCH  30  31
ENDBRANCH  26  29
ENDBRANCH  24  26
ENDBRANCH   4  24
TORSDOF 7
ENDMDL
