MODEL 10
REMARK VINA RESULT: -8.665315611      3.877      5.113
REMARK  7 active torsions:
REMARK  status: ('A' for Active; 'I' for Inactive)
REMARK    1  A    between atoms: S1_2  and  C2_5 
REMARK    2  A    between atoms: C7_10  and  C8_11 
REMARK    3  A    between atoms: C11_14  and  N1_15 
REMARK    4  A    between atoms: C14_18  and  N2_19 
REMARK    5  A    between atoms: N2_19  and  S2_21 
REMARK    6  A    between atoms: S2_21  and  C15_24 
REMARK    7  A    between atoms: C16_25  and  C17_26 
ROOT
HETATM    1  N1  UNL     1       6.115   5.481  20.274  1.00  0.00    -0.313 N 
HETATM    2  C12 UNL     1       4.645   5.443  20.386  1.00  0.00     0.135 C 
HETATM    3  C13 UNL     1       4.283   6.919  20.548  1.00  0.00     0.056 C 
HETATM    4  C14 UNL     1       5.348   7.317  21.567  1.00  0.00     0.187 C 
HETATM    5  C21 UNL     1       6.523   6.558  21.100  1.00  0.00     0.247 C 
HETATM    6  O5  UNL     1       7.690   6.867  21.423  1.00  0.00    -0.271 OA
ENDROOT
BRANCH   1   7
HETATM    7  C11 UNL     1       6.855   4.575  19.466  1.00  0.00     0.076 A 
HETATM    8  C10 UNL     1       6.644   3.199  19.650  1.00  0.00     0.034 A 
HETATM    9  C9  UNL     1       7.306   2.291  18.896  1.00  0.00     0.014 A 
HETATM   10  C8  UNL     1       8.225   2.642  17.904  1.00  0.00    -0.021 A 
HETATM   11  C23 UNL     1       8.423   3.980  17.735  1.00  0.00     0.057 A 
HETATM   12  C22 UNL     1       7.755   4.922  18.495  1.00  0.00     0.144 A 
HETATM   13  F1  UNL     1       7.987   6.240  18.267  1.00  0.00    -0.204 F 
BRANCH  10  14
HETATM   14  C7  UNL     1       8.856   1.565  17.190  1.00  0.00    -0.004 A 
HETATM   15  C2  UNL     1       8.347   1.061  16.032  1.00  0.00     0.070 A 
HETATM   16  C3  UNL     1       8.978  -0.010  15.366  1.00  0.00     0.024 A 
HETATM   17  C4  UNL     1      10.123  -0.583  15.855  1.00  0.00     0.002 A 
HETATM   18  C5  UNL     1      10.636  -0.074  17.023  1.00  0.00     0.001 A 
HETATM   19  C6  UNL     1      10.034   0.969  17.683  1.00  0.00     0.014 A 
BRANCH  15  20
HETATM   20  S1  UNL     1       6.902   1.704  15.302  1.00  0.00     0.172 S 
HETATM   21  C1  UNL     1       6.492   0.864  13.830  1.00  0.00     0.167 C 
HETATM   22  O1  UNL     1       5.746   1.556  16.284  1.00  0.00    -0.223 OA
HETATM   23  O2  UNL     1       7.028   3.199  15.091  1.00  0.00    -0.223 OA
ENDBRANCH  15  20
ENDBRANCH  10  14
ENDBRANCH   1   7
BRANCH   4  24
HETATM   24  N2  UNL     1       5.571   8.721  21.563  1.00  0.00    -0.302 N 
ATOM     25  H2  UNL     1       6.233   9.197  20.950  1.00  0.00     0.173 HD
BRANCH  24  26
HETATM   26  S2  UNL     1       4.589   9.504  22.715  1.00  0.00     0.249 S 
HETATM   27  O3  UNL     1       5.438   9.899  23.905  1.00  0.00    -0.201 OA
HETATM   28  O4  UNL     1       4.036  10.777  22.073  1.00  0.00    -0.201 OA
BRANCH  26  29
HETATM   29  C15 UNL     1       3.257   8.515  23.240  1.00  0.00     0.132 C 
HETATM   30  C16 UNL     1       2.037   9.015  23.377  1.00  0.00     0.032 C 
BRANCH  30  31
HETATM   31  C17 UNL     1       0.997   8.055  23.835  1.00  0.00     0.007 A 
HETATM   32  C18 UNL     1      -0.052   8.291  24.676  1.00  0.00     0.021 A 
HETATM   33  C19 UNL     1      -0.868   7.255  24.948  1.00  0.00     0.033 A 
HETATM   34  C20 UNL     1      -0.575   6.058  24.355  1.00  0.00     0.075 A 
HETATM   35 CL1  UNL     1      -1.461   4.527  24.527  1.00  0.00    -0.076 Cl
HETATM   36  S3  UNL     1       0.822   6.404  23.442  1.00  0.00    -0.078 SA
ENDBRANCH  30  31
ENDBRANCH  26  29
ENDBRANCH  24  26
ENDBRANCH   4  24
TORSDOF 7
ENDMDL
