MODEL 1
REMARK VINA RESULT: -10.769228414      0.000      0.000
REMARK  7 active torsions:
REMARK  status: ('A' for Active; 'I' for Inactive)
REMARK    1  A    between atoms: S1_2  and  C2_5 
REMARK    2  A    between atoms: C7_10  and  C8_11 
REMARK    3  A    between atoms: C11_14  and  N1_15 
REMARK    4  A    between atoms: C14_18  and  N2_19 
REMARK    5  A    between atoms: N2_19  and  S2_21 
REMARK    6  A    between atoms: S2_21  and  C15_24 
REMARK    7  A    between atoms: C16_25  and  C17_26 
ROOT
HETATM    1  N1  UNL     1       6.361   5.852  20.177  1.00  0.00    -0.313 N 
HETATM    2  C12 UNL     1       4.927   6.022  20.474  1.00  0.00     0.135 C 
HETATM    3  C13 UNL     1       4.737   7.534  20.349  1.00  0.00     0.056 C 
HETATM    4  C14 UNL     1       5.972   7.996  21.116  1.00  0.00     0.187 C 
HETATM    5  C21 UNL     1       6.988   7.015  20.689  1.00  0.00     0.247 C 
HETATM    6  O5  UNL     1       8.214   7.235  20.790  1.00  0.00    -0.271 OA
ENDROOT
BRANCH   1   7
HETATM    7  C11 UNL     1       6.884   4.713  19.504  1.00  0.00     0.076 A 
HETATM    8  C10 UNL     1       7.726   4.924  18.401  1.00  0.00     0.034 A 
HETATM    9  C9  UNL     1       8.267   3.877  17.735  1.00  0.00     0.014 A 
HETATM   10  C8  UNL     1       8.036   2.544  18.083  1.00  0.00    -0.021 A 
HETATM   11  C23 UNL     1       7.215   2.352  19.155  1.00  0.00     0.057 A 
HETATM   12  C22 UNL     1       6.655   3.408  19.848  1.00  0.00     0.144 A 
HETATM   13  F1  UNL     1       5.858   3.149  20.915  1.00  0.00    -0.204 F 
BRANCH  10  14
HETATM   14  C7  UNL     1       8.675   1.540  17.276  1.00  0.00    -0.004 A 
HETATM   15  C2  UNL     1       8.118   1.064  16.128  1.00  0.00     0.070 A 
HETATM   16  C3  UNL     1       8.760   0.064  15.369  1.00  0.00     0.024 A 
HETATM   17  C4  UNL     1       9.964  -0.466  15.754  1.00  0.00     0.002 A 
HETATM   18  C5  UNL     1      10.525   0.015  16.912  1.00  0.00     0.001 A 
HETATM   19  C6  UNL     1       9.914   0.989  17.662  1.00  0.00     0.014 A 
BRANCH  15  20
HETATM   20  S1  UNL     1       6.596   1.659  15.525  1.00  0.00     0.172 S 
HETATM   21  C1  UNL     1       6.747   3.263  14.858  1.00  0.00     0.167 C 
HETATM   22  O1  UNL     1       6.099   0.723  14.431  1.00  0.00    -0.223 OA
HETATM   23  O2  UNL     1       5.528   1.585  16.598  1.00  0.00    -0.223 OA
ENDBRANCH  15  20
ENDBRANCH  10  14
ENDBRANCH   1   7
BRANCH   4  24
HETATM   24  N2  UNL     1       6.326   9.329  20.776  1.00  0.00    -0.302 N 
ATOM     25  H2  UNL     1       6.361   9.691  19.823  1.00  0.00     0.173 HD
BRANCH  24  26
HETATM   26  S2  UNL     1       6.685  10.246  22.167  1.00  0.00     0.249 S 
HETATM   27  O3  UNL     1       6.966  11.677  21.760  1.00  0.00    -0.201 OA
HETATM   28  O4  UNL     1       5.449  10.234  23.069  1.00  0.00    -0.201 OA
BRANCH  26  29
HETATM   29  C15 UNL     1       8.036   9.607  23.058  1.00  0.00     0.132 C 
HETATM   30  C16 UNL     1       7.875   9.034  24.242  1.00  0.00     0.032 C 
BRANCH  30  31
HETATM   31  C17 UNL     1       9.118   8.536  24.890  1.00  0.00     0.007 A 
HETATM   32  C18 UNL     1       9.231   7.776  26.019  1.00  0.00     0.021 A 
HETATM   33  C19 UNL     1      10.474   7.446  26.416  1.00  0.00     0.033 A 
HETATM   34  C20 UNL     1      11.513   7.900  25.653  1.00  0.00     0.075 A 
HETATM   35 CL1  UNL     1      13.248   7.629  25.930  1.00  0.00    -0.076 Cl
HETATM   36  S3  UNL     1      10.738   8.770  24.410  1.00  0.00    -0.078 SA
ENDBRANCH  30  31
ENDBRANCH  26  29
ENDBRANCH  24  26
ENDBRANCH   4  24
TORSDOF 7
ENDMDL
