MODEL 3
REMARK VINA RESULT: -10.171083797      0.899      1.091
REMARK  7 active torsions:
REMARK  status: ('A' for Active; 'I' for Inactive)
REMARK    1  A    between atoms: S1_2  and  C2_5 
REMARK    2  A    between atoms: C7_10  and  C8_11 
REMARK    3  A    between atoms: C11_14  and  N1_15 
REMARK    4  A    between atoms: C14_18  and  N2_19 
REMARK    5  A    between atoms: N2_19  and  S2_21 
REMARK    6  A    between atoms: S2_21  and  C15_24 
REMARK    7  A    between atoms: C16_25  and  C17_26 
ROOT
HETATM    1  N1  UNL     1       6.300   5.764  20.057  1.00  0.00    -0.313 N 
HETATM    2  C12 UNL     1       4.879   5.841  20.440  1.00  0.00     0.135 C 
HETATM    3  C13 UNL     1       4.559   7.323  20.242  1.00  0.00     0.056 C 
HETATM    4  C14 UNL     1       5.798   7.926  20.896  1.00  0.00     0.187 C 
HETATM    5  C21 UNL     1       6.861   7.002  20.457  1.00  0.00     0.247 C 
HETATM    6  O5  UNL     1       8.069   7.322  20.461  1.00  0.00    -0.271 OA
ENDROOT
BRANCH   1   7
HETATM    7  C11 UNL     1       6.870   4.629  19.417  1.00  0.00     0.076 A 
HETATM    8  C10 UNL     1       7.732   4.845  18.329  1.00  0.00     0.034 A 
HETATM    9  C9  UNL     1       8.316   3.803  17.694  1.00  0.00     0.014 A 
HETATM   10  C8  UNL     1       8.116   2.470  18.061  1.00  0.00    -0.021 A 
HETATM   11  C23 UNL     1       7.277   2.273  19.118  1.00  0.00     0.057 A 
HETATM   12  C22 UNL     1       6.671   3.324  19.778  1.00  0.00     0.144 A 
HETATM   13  F1  UNL     1       5.858   3.061  20.833  1.00  0.00    -0.204 F 
BRANCH  10  14
HETATM   14  C7  UNL     1       8.801   1.471  17.286  1.00  0.00    -0.004 A 
HETATM   15  C2  UNL     1       8.328   1.024  16.090  1.00  0.00     0.070 A 
HETATM   16  C3  UNL     1       9.013   0.028  15.364  1.00  0.00     0.024 A 
HETATM   17  C4  UNL     1      10.176  -0.527  15.830  1.00  0.00     0.002 A 
HETATM   18  C5  UNL     1      10.653  -0.075  17.037  1.00  0.00     0.001 A 
HETATM   19  C6  UNL     1       9.999   0.895  17.756  1.00  0.00     0.014 A 
BRANCH  15  20
HETATM   20  S1  UNL     1       6.865   1.652  15.384  1.00  0.00     0.172 S 
HETATM   21  C1  UNL     1       6.362   0.718  14.000  1.00  0.00     0.167 C 
HETATM   22  O1  UNL     1       5.756   1.609  16.428  1.00  0.00    -0.223 OA
HETATM   23  O2  UNL     1       7.017   3.124  15.055  1.00  0.00    -0.223 OA
ENDBRANCH  15  20
ENDBRANCH  10  14
ENDBRANCH   1   7
BRANCH   4  24
HETATM   24  N2  UNL     1       6.020   9.259  20.456  1.00  0.00    -0.302 N 
ATOM     25  H2  UNL     1       5.964   9.562  19.483  1.00  0.00     0.173 HD
BRANCH  24  26
HETATM   26  S2  UNL     1       6.392  10.286  21.764  1.00  0.00     0.249 S 
HETATM   27  O3  UNL     1       6.542  11.705  21.256  1.00  0.00    -0.201 OA
HETATM   28  O4  UNL     1       5.217  10.245  22.742  1.00  0.00    -0.201 OA
BRANCH  26  29
HETATM   29  C15 UNL     1       7.838   9.802  22.603  1.00  0.00     0.132 C 
HETATM   30  C16 UNL     1       7.783   9.139  23.749  1.00  0.00     0.032 C 
BRANCH  30  31
HETATM   31  C17 UNL     1       9.097   8.792  24.355  1.00  0.00     0.007 A 
HETATM   32  C18 UNL     1      10.344   9.033  23.853  1.00  0.00     0.021 A 
HETATM   33  C19 UNL     1      11.393   8.621  24.590  1.00  0.00     0.033 A 
HETATM   34  C20 UNL     1      11.117   8.000  25.776  1.00  0.00     0.075 A 
HETATM   35 CL1  UNL     1      12.286   7.351  26.947  1.00  0.00    -0.076 Cl
HETATM   36  S3  UNL     1       9.414   8.004  25.834  1.00  0.00    -0.078 SA
ENDBRANCH  30  31
ENDBRANCH  26  29
ENDBRANCH  24  26
ENDBRANCH   4  24
TORSDOF 7
ENDMDL
