MODEL 6
REMARK VINA RESULT: -9.046893384      3.494      4.335
REMARK  7 active torsions:
REMARK  status: ('A' for Active; 'I' for Inactive)
REMARK    1  A    between atoms: S1_2  and  C2_5 
REMARK    2  A    between atoms: C7_10  and  C8_11 
REMARK    3  A    between atoms: C11_14  and  N1_15 
REMARK    4  A    between atoms: C14_18  and  N2_19 
REMARK    5  A    between atoms: N2_19  and  S2_21 
REMARK    6  A    between atoms: S2_21  and  C15_24 
REMARK    7  A    between atoms: C16_25  and  C17_26 
ROOT
HETATM    1  N1  UNL     1       6.395   5.896  19.800  1.00  0.00    -0.313 N 
HETATM    2  C12 UNL     1       5.012   6.350  19.561  1.00  0.00     0.135 C 
HETATM    3  C13 UNL     1       5.148   7.872  19.610  1.00  0.00     0.056 C 
HETATM    4  C14 UNL     1       6.035   7.995  20.846  1.00  0.00     0.187 C 
HETATM    5  C21 UNL     1       6.953   6.852  20.683  1.00  0.00     0.247 C 
HETATM    6  O5  UNL     1       8.056   6.792  21.268  1.00  0.00    -0.271 OA
ENDROOT
BRANCH   1   7
HETATM    7  C11 UNL     1       6.940   4.725  19.204  1.00  0.00     0.076 A 
HETATM    8  C10 UNL     1       7.904   4.882  18.196  1.00  0.00     0.034 A 
HETATM    9  C9  UNL     1       8.470   3.803  17.607  1.00  0.00     0.014 A 
HETATM   10  C8  UNL     1       8.149   2.487  17.946  1.00  0.00    -0.021 A 
HETATM   11  C23 UNL     1       7.210   2.347  18.925  1.00  0.00     0.057 A 
HETATM   12  C22 UNL     1       6.622   3.436  19.538  1.00  0.00     0.144 A 
HETATM   13  F1  UNL     1       5.704   3.228  20.516  1.00  0.00    -0.204 F 
BRANCH  10  14
HETATM   14  C7  UNL     1       8.829   1.444  17.227  1.00  0.00    -0.004 A 
HETATM   15  C2  UNL     1       8.362   0.947  16.048  1.00  0.00     0.070 A 
HETATM   16  C3  UNL     1       9.042  -0.090  15.377  1.00  0.00     0.024 A 
HETATM   17  C4  UNL     1      10.194  -0.636  15.881  1.00  0.00     0.002 A 
HETATM   18  C5  UNL     1      10.664  -0.133  17.070  1.00  0.00     0.001 A 
HETATM   19  C6  UNL     1      10.015   0.877  17.735  1.00  0.00     0.014 A 
BRANCH  15  20
HETATM   20  S1  UNL     1       6.914   1.559  15.297  1.00  0.00     0.172 S 
HETATM   21  C1  UNL     1       6.475   0.630  13.888  1.00  0.00     0.167 C 
HETATM   22  O1  UNL     1       5.771   1.488  16.302  1.00  0.00    -0.223 OA
HETATM   23  O2  UNL     1       7.053   3.036  14.988  1.00  0.00    -0.223 OA
ENDBRANCH  15  20
ENDBRANCH  10  14
ENDBRANCH   1   7
BRANCH   4  24
HETATM   24  N2  UNL     1       6.716   9.241  20.875  1.00  0.00    -0.302 N 
ATOM     25  H2  UNL     1       7.506   9.480  20.274  1.00  0.00     0.173 HD
BRANCH  24  26
HETATM   26  S2  UNL     1       6.044  10.285  22.042  1.00  0.00     0.249 S 
HETATM   27  O3  UNL     1       6.992  10.391  23.219  1.00  0.00    -0.201 OA
HETATM   28  O4  UNL     1       5.904  11.670  21.409  1.00  0.00    -0.201 OA
BRANCH  26  29
HETATM   29  C15 UNL     1       4.479   9.756  22.588  1.00  0.00     0.132 C 
HETATM   30  C16 UNL     1       4.229   9.547  23.872  1.00  0.00     0.032 C 
BRANCH  30  31
HETATM   31  C17 UNL     1       2.848   9.095  24.194  1.00  0.00     0.007 A 
HETATM   32  C18 UNL     1       1.893   9.757  24.910  1.00  0.00     0.021 A 
HETATM   33  C19 UNL     1       0.708   9.139  25.072  1.00  0.00     0.033 A 
HETATM   34  C20 UNL     1       0.565   7.905  24.502  1.00  0.00     0.075 A 
HETATM   35 CL1  UNL     1      -0.871   6.858  24.550  1.00  0.00    -0.076 Cl
HETATM   36  S3  UNL     1       2.077   7.636  23.762  1.00  0.00    -0.078 SA
ENDBRANCH  30  31
ENDBRANCH  26  29
ENDBRANCH  24  26
ENDBRANCH   4  24
TORSDOF 7
ENDMDL
