MODEL 4
REMARK VINA RESULT: -9.174666036      2.185      3.380
REMARK  8 active torsions:
REMARK  status: ('A' for Active; 'I' for Inactive)
REMARK    1  A    between atoms: N5_13  and  C6_14 
REMARK    2  A    between atoms: C7_16  and  C8_17 
REMARK    3  A    between atoms: C8_17  and  O2_18 
REMARK    4  A    between atoms: O2_18  and  P1_19 
REMARK    5  A    between atoms: P1_19  and  O5_22 
REMARK    6  A    between atoms: O5_22  and  P2_23 
REMARK    7  A    between atoms: C9_27  and  O9_28 
REMARK    8  A    between atoms: C10_30  and  O10_31 
ROOT
HETATM    1  C6  UNL     1      84.464  47.719   2.654  1.00  0.00     0.262 C 
HETATM    2  O1  UNL     1      84.582  49.041   3.081  1.00  0.00    -0.353 OA
HETATM    3  C7  UNL     1      85.815  49.384   2.528  1.00  0.00     0.180 C 
HETATM    4  C9  UNL     1      85.794  48.881   1.110  1.00  0.00     0.182 C 
HETATM    5  C10 UNL     1      84.641  47.869   1.161  1.00  0.00     0.198 C 
ENDROOT
BRANCH   1   6
HETATM    6  N5  UNL     1      83.209  47.124   3.016  1.00  0.00    -0.297 N 
HETATM    7  C3  UNL     1      82.335  47.698   3.869  1.00  0.00     0.142 A 
HETATM    8  N3  UNL     1      82.383  48.866   4.554  1.00  0.00    -0.336 N 
HETATM    9  C4  UNL     1      81.231  46.885   4.010  1.00  0.00     0.119 A 
HETATM   10  C2  UNL     1      81.391  49.268   5.371  1.00  0.00     0.183 A 
ATOM     11  H3  UNL     1      83.203  49.465   4.446  1.00  0.00     0.168 HD
HETATM   12  N2  UNL     1      80.328  48.482   5.505  1.00  0.00    -0.339 N 
HETATM   13  C1  UNL     1      80.226  47.304   4.845  1.00  0.00     0.148 A 
ATOM     14  H2  UNL     1      79.569  48.773   6.122  1.00  0.00     0.167 HD
HETATM   15  N1  UNL     1      79.088  46.511   5.016  1.00  0.00    -0.080 NA
HETATM   16  N4  UNL     1      81.469  45.821   3.222  1.00  0.00    -0.346 N 
HETATM   17  C5  UNL     1      82.666  45.977   2.628  1.00  0.00     0.188 A 
ATOM     18  H4  UNL     1      80.843  45.025   3.097  1.00  0.00     0.167 HD
ENDBRANCH   1   6
BRANCH   5  19
HETATM   19  O10 UNL     1      84.975  46.695   0.527  1.00  0.00    -0.388 OA
ATOM     20  H10 UNL     1      85.892  46.642   0.285  1.00  0.00     0.210 HD
ENDBRANCH   5  19
BRANCH   3  21
HETATM   21  C8  UNL     1      86.080  50.869   2.612  1.00  0.00     0.216 C 
BRANCH  21  22
HETATM   22  O2  UNL     1      86.941  51.087   3.642  1.00  0.00    -0.287 OA
BRANCH  22  23
HETATM   23  P1  UNL     1      87.628  52.566   3.780  1.00  0.00     0.418 P 
HETATM   24  O3  UNL     1      86.934  53.126   2.540  1.00  0.00    -0.624 OA
HETATM   25  O4  UNL     1      86.780  53.737   4.710  1.00  0.00    -0.624 OA
BRANCH  23  26
HETATM   26  O5  UNL     1      89.119  52.879   3.265  1.00  0.00    -0.173 OA
BRANCH  26  27
HETATM   27  P2  UNL     1      89.853  54.280   3.720  1.00  0.00     0.431 P 
HETATM   28  O6  UNL     1      91.421  54.300   4.110  1.00  0.00    -0.616 OA
HETATM   29  O7  UNL     1      88.888  55.639   4.001  1.00  0.00    -0.616 OA
HETATM   30  O8  UNL     1      89.988  54.722   2.262  1.00  0.00    -0.616 OA
ENDBRANCH  26  27
ENDBRANCH  23  26
ENDBRANCH  22  23
ENDBRANCH  21  22
ENDBRANCH   3  21
BRANCH   4  31
HETATM   31  O9  UNL     1      86.944  48.127   0.835  1.00  0.00    -0.390 OA
ATOM     32  H9  UNL     1      87.607  48.666   0.418  1.00  0.00     0.210 HD
ENDBRANCH   4  31
TORSDOF 8
ENDMDL
