MODEL 3
REMARK VINA RESULT: -9.460188990      5.093      7.907
REMARK  8 active torsions:
REMARK  status: ('A' for Active; 'I' for Inactive)
REMARK    1  A    between atoms: N5_13  and  C6_14 
REMARK    2  A    between atoms: C7_16  and  C8_17 
REMARK    3  A    between atoms: C8_17  and  O2_18 
REMARK    4  A    between atoms: O2_18  and  P1_19 
REMARK    5  A    between atoms: P1_19  and  O5_22 
REMARK    6  A    between atoms: O5_22  and  P2_23 
REMARK    7  A    between atoms: C9_27  and  O9_28 
REMARK    8  A    between atoms: C10_30  and  O10_31 
ROOT
HETATM    1  C6  UNL     1      85.339  49.717   2.298  1.00  0.00     0.262 C 
HETATM    2  O1  UNL     1      84.682  48.776   3.091  1.00  0.00    -0.353 OA
HETATM    3  C7  UNL     1      84.102  47.971   2.111  1.00  0.00     0.180 C 
HETATM    4  C9  UNL     1      85.174  47.714   1.088  1.00  0.00     0.182 C 
HETATM    5  C10 UNL     1      86.180  48.828   1.411  1.00  0.00     0.198 C 
ENDROOT
BRANCH   1   6
HETATM    6  N5  UNL     1      86.119  50.647   3.065  1.00  0.00    -0.297 N 
HETATM    7  C3  UNL     1      86.589  51.809   2.565  1.00  0.00     0.142 A 
HETATM    8  N3  UNL     1      86.476  52.369   1.336  1.00  0.00    -0.336 N 
HETATM    9  C4  UNL     1      87.294  52.477   3.543  1.00  0.00     0.119 A 
HETATM   10  C2  UNL     1      87.029  53.558   1.029  1.00  0.00     0.183 A 
ATOM     11  H3  UNL     1      85.953  51.871   0.615  1.00  0.00     0.168 HD
HETATM   12  N2  UNL     1      87.709  54.199   1.973  1.00  0.00    -0.339 N 
HETATM   13  C1  UNL     1      87.853  53.687   3.219  1.00  0.00     0.148 A 
ATOM     14  H2  UNL     1      88.134  55.101   1.755  1.00  0.00     0.167 HD
HETATM   15  N1  UNL     1      88.576  54.399   4.181  1.00  0.00    -0.080 NA
HETATM   16  N4  UNL     1      87.230  51.687   4.629  1.00  0.00    -0.346 N 
HETATM   17  C5  UNL     1      86.518  50.586   4.328  1.00  0.00     0.188 A 
ATOM     18  H4  UNL     1      87.654  51.891   5.535  1.00  0.00     0.167 HD
ENDBRANCH   1   6
BRANCH   5  19
HETATM   19  O10 UNL     1      86.622  49.453   0.269  1.00  0.00    -0.388 OA
ATOM     20  H10 UNL     1      86.903  50.348   0.411  1.00  0.00     0.210 HD
ENDBRANCH   5  19
BRANCH   3  21
HETATM   21  C8  UNL     1      83.535  46.695   2.689  1.00  0.00     0.216 C 
BRANCH  21  22
HETATM   22  O2  UNL     1      82.590  47.031   3.608  1.00  0.00    -0.287 OA
BRANCH  22  23
HETATM   23  P1  UNL     1      81.069  47.331   3.086  1.00  0.00     0.418 P 
HETATM   24  O3  UNL     1      81.239  48.848   3.120  1.00  0.00    -0.624 OA
HETATM   25  O4  UNL     1      80.837  47.455   1.388  1.00  0.00    -0.624 OA
BRANCH  23  26
HETATM   26  O5  UNL     1      79.796  47.306   4.069  1.00  0.00    -0.173 OA
BRANCH  26  27
HETATM   27  P2  UNL     1      80.026  47.460   5.690  1.00  0.00     0.431 P 
HETATM   28  O6  UNL     1      78.765  47.536   6.698  1.00  0.00    -0.616 OA
HETATM   29  O7  UNL     1      81.588  47.775   6.256  1.00  0.00    -0.616 OA
HETATM   30  O8  UNL     1      80.319  45.965   5.824  1.00  0.00    -0.616 OA
ENDBRANCH  26  27
ENDBRANCH  23  26
ENDBRANCH  22  23
ENDBRANCH  21  22
ENDBRANCH   3  21
BRANCH   4  31
HETATM   31  O9  UNL     1      84.705  47.994  -0.203  1.00  0.00    -0.390 OA
ATOM     32  H9  UNL     1      85.213  47.524  -0.854  1.00  0.00     0.210 HD
ENDBRANCH   4  31
TORSDOF 8
ENDMDL
