MODEL 1
REMARK VINA RESULT: -9.751949493      0.000      0.000
REMARK  8 active torsions:
REMARK  status: ('A' for Active; 'I' for Inactive)
REMARK    1  A    between atoms: N5_13  and  C6_14 
REMARK    2  A    between atoms: C7_16  and  C8_17 
REMARK    3  A    between atoms: C8_17  and  O2_18 
REMARK    4  A    between atoms: O2_18  and  P1_19 
REMARK    5  A    between atoms: P1_19  and  O5_22 
REMARK    6  A    between atoms: O5_22  and  P2_23 
REMARK    7  A    between atoms: C9_27  and  O9_28 
REMARK    8  A    between atoms: C10_30  and  O10_31 
ROOT
HETATM    1  C6  UNL     1      82.553  46.726   3.592  1.00  0.00     0.262 C 
HETATM    2  O1  UNL     1      82.942  47.774   2.757  1.00  0.00    -0.353 OA
HETATM    3  C7  UNL     1      84.317  47.551   2.685  1.00  0.00     0.180 C 
HETATM    4  C9  UNL     1      84.492  46.076   2.443  1.00  0.00     0.182 C 
HETATM    5  C10 UNL     1      83.118  45.532   2.859  1.00  0.00     0.198 C 
ENDROOT
BRANCH   1   6
HETATM    6  N5  UNL     1      81.130  46.655   3.773  1.00  0.00    -0.297 N 
HETATM    7  C3  UNL     1      80.244  46.888   2.783  1.00  0.00     0.142 A 
HETATM    8  N3  UNL     1      80.419  47.220   1.480  1.00  0.00    -0.336 N 
HETATM    9  C4  UNL     1      78.963  46.742   3.270  1.00  0.00     0.119 A 
HETATM   10  C2  UNL     1      79.386  47.414   0.638  1.00  0.00     0.183 A 
ATOM     11  H3  UNL     1      81.369  47.327   1.124  1.00  0.00     0.168 HD
HETATM   12  N2  UNL     1      78.152  47.272   1.111  1.00  0.00    -0.339 N 
HETATM   13  C1  UNL     1      77.919  46.941   2.403  1.00  0.00     0.148 A 
ATOM     14  H2  UNL     1      77.360  47.417   0.484  1.00  0.00     0.167 HD
HETATM   15  N1  UNL     1      76.603  46.802   2.855  1.00  0.00    -0.080 NA
HETATM   16  N4  UNL     1      79.110  46.417   4.567  1.00  0.00    -0.346 N 
HETATM   17  C5  UNL     1      80.423  46.367   4.858  1.00  0.00     0.188 A 
ATOM     18  H4  UNL     1      78.350  46.237   5.223  1.00  0.00     0.167 HD
ENDBRANCH   1   6
BRANCH   5  19
HETATM   19  O10 UNL     1      83.239  44.412   3.647  1.00  0.00    -0.388 OA
ATOM     20  H10 UNL     1      84.027  44.405   4.177  1.00  0.00     0.210 HD
ENDBRANCH   5  19
BRANCH   3  21
HETATM   21  C8  UNL     1      84.972  48.395   1.617  1.00  0.00     0.216 C 
BRANCH  21  22
HETATM   22  O2  UNL     1      86.070  48.986   2.160  1.00  0.00    -0.287 OA
BRANCH  22  23
HETATM   23  P1  UNL     1      85.854  50.301   3.110  1.00  0.00     0.418 P 
HETATM   24  O3  UNL     1      85.967  51.291   1.953  1.00  0.00    -0.624 OA
HETATM   25  O4  UNL     1      84.239  50.843   3.337  1.00  0.00    -0.624 OA
BRANCH  23  26
HETATM   26  O5  UNL     1      87.046  50.951   3.973  1.00  0.00    -0.173 OA
BRANCH  26  27
HETATM   27  P2  UNL     1      87.386  52.551   3.802  1.00  0.00     0.431 P 
HETATM   28  O6  UNL     1      86.663  53.652   4.739  1.00  0.00    -0.616 OA
HETATM   29  O7  UNL     1      88.319  53.039   2.479  1.00  0.00    -0.616 OA
HETATM   30  O8  UNL     1      88.676  52.397   4.609  1.00  0.00    -0.616 OA
ENDBRANCH  26  27
ENDBRANCH  23  26
ENDBRANCH  22  23
ENDBRANCH  21  22
ENDBRANCH   3  21
BRANCH   4  31
HETATM   31  O9  UNL     1      85.405  45.529   3.355  1.00  0.00    -0.390 OA
ATOM     32  H9  UNL     1      86.293  45.785   3.135  1.00  0.00     0.210 HD
ENDBRANCH   4  31
TORSDOF 8
ENDMDL
