MODEL 2
REMARK VINA RESULT: -10.271482857      2.287      3.183
REMARK  15 active torsions:
REMARK  status: ('A' for Active; 'I' for Inactive)
REMARK    1  A    between atoms: C1_2  and  C2_4 
REMARK    2  A    between atoms: N2_6  and  C4_7 
REMARK    3  A    between atoms: C5_9  and  C6_10 
REMARK    4  A    between atoms: C6_10  and  O3_11 
REMARK    5  A    between atoms: O3_11  and  P1_12 
REMARK    6  A    between atoms: P1_12  and  O6_15 
REMARK    7  A    between atoms: O6_15  and  P2_16 
REMARK    8  A    between atoms: P2_16  and  O9_19 
REMARK    9  A    between atoms: O9_19  and  C7_20 
REMARK   10  A    between atoms: C7_20  and  C8_21 
REMARK   11  A    between atoms: C9_23  and  N3_24 
REMARK   12  A    between atoms: C15_37  and  O11_38 
REMARK   13  A    between atoms: C16_40  and  O12_41 
REMARK   14  A    between atoms: C17_43  and  O13_44 
REMARK   15  A    between atoms: C18_46  and  O14_47 
ROOT
HETATM    1  P2  UNL     1     -52.338  59.166   6.975  1.00  0.00     0.417 P 
HETATM    2  O7  UNL     1     -52.168  58.165   8.099  1.00  0.00    -0.624 OA
HETATM    3  O8  UNL     1     -51.658  60.613   7.439  1.00  0.00    -0.624 OA
ENDROOT
BRANCH   1   4
HETATM    4  O6  UNL     1     -51.665  58.511   5.589  1.00  0.00    -0.180 OA
BRANCH   4   5
HETATM    5  P1  UNL     1     -51.096  59.635   4.508  1.00  0.00     0.417 P 
HETATM    6  O4  UNL     1     -52.073  60.782   4.403  1.00  0.00    -0.624 OA
HETATM    7  O5  UNL     1     -49.657  60.297   5.157  1.00  0.00    -0.624 OA
BRANCH   5   8
HETATM    8  O3  UNL     1     -50.712  58.997   3.001  1.00  0.00    -0.287 OA
BRANCH   8   9
HETATM    9  C6  UNL     1     -50.865  57.633   3.045  1.00  0.00     0.216 C 
BRANCH   9  10
HETATM   10  C5  UNL     1     -50.507  56.954   1.745  1.00  0.00     0.180 C 
HETATM   11  O2  UNL     1     -51.660  56.461   1.137  1.00  0.00    -0.353 OA
HETATM   12  C4  UNL     1     -51.382  56.253  -0.191  1.00  0.00     0.259 C 
HETATM   13  C18 UNL     1     -50.245  57.172  -0.576  1.00  0.00     0.198 C 
HETATM   14  C17 UNL     1     -50.028  57.950   0.709  1.00  0.00     0.182 C 
BRANCH  12  15
HETATM   15  N2  UNL     1     -52.497  56.570  -1.060  1.00  0.00    -0.337 N 
HETATM   16  C3  UNL     1     -53.243  57.749  -0.834  1.00  0.00     0.105 A 
HETATM   17  C2  UNL     1     -54.291  58.125  -1.583  1.00  0.00     0.026 A 
HETATM   18  C21 UNL     1     -54.715  57.278  -2.720  1.00  0.00     0.073 A 
HETATM   19  C20 UNL     1     -53.902  56.069  -2.901  1.00  0.00    -0.005 A 
HETATM   20  C19 UNL     1     -52.870  55.731  -2.135  1.00  0.00     0.089 A 
BRANCH  17  21
HETATM   21  C1  UNL     1     -54.998  59.353  -1.277  1.00  0.00     0.262 C 
HETATM   22  N1  UNL     1     -54.286  60.562  -1.167  1.00  0.00    -0.057 NA
HETATM   23  O1  UNL     1     -56.231  59.332  -1.116  1.00  0.00    -0.271 OA
ENDBRANCH  17  21
ENDBRANCH  12  15
BRANCH  13  24
HETATM   24  O14 UNL     1     -49.128  56.403  -0.886  1.00  0.00    -0.388 OA
ATOM     25  H14 UNL     1     -48.587  56.317  -0.110  1.00  0.00     0.210 HD
ENDBRANCH  13  24
BRANCH  14  26
HETATM   26  O13 UNL     1     -48.681  58.246   0.848  1.00  0.00    -0.390 OA
ATOM     27  H13 UNL     1     -48.473  58.583   1.712  1.00  0.00     0.210 HD
ENDBRANCH  14  26
ENDBRANCH   9  10
ENDBRANCH   8   9
ENDBRANCH   5   8
ENDBRANCH   4   5
ENDBRANCH   1   4
BRANCH   1  28
HETATM   28  O9  UNL     1     -54.023  59.299   6.713  1.00  0.00    -0.287 OA
BRANCH  28  29
HETATM   29  C7  UNL     1     -54.571  59.657   7.947  1.00  0.00     0.216 C 
BRANCH  29  30
HETATM   30  C8  UNL     1     -55.669  58.731   8.375  1.00  0.00     0.180 C 
HETATM   31  O10 UNL     1     -56.351  59.271   9.430  1.00  0.00    -0.353 OA
HETATM   32  C9  UNL     1     -57.685  59.018   9.304  1.00  0.00     0.262 C 
HETATM   33  C15 UNL     1     -57.925  58.176   8.101  1.00  0.00     0.198 C 
HETATM   34  C16 UNL     1     -56.664  58.445   7.271  1.00  0.00     0.182 C 
BRANCH  32  35
HETATM   35  N3  UNL     1     -58.473  60.243   9.209  1.00  0.00    -0.297 N 
HETATM   36  C10 UNL     1     -59.466  60.541   8.354  1.00  0.00     0.188 A 
HETATM   37  N4  UNL     1     -59.922  61.777   8.610  1.00  0.00    -0.346 N 
HETATM   38  C11 UNL     1     -59.201  62.253   9.636  1.00  0.00     0.119 A 
ATOM     39  H4  UNL     1     -60.673  62.262   8.118  1.00  0.00     0.167 HD
HETATM   40  C12 UNL     1     -59.240  63.455  10.302  1.00  0.00     0.148 A 
HETATM   41  C14 UNL     1     -58.296  61.309  10.017  1.00  0.00     0.142 A 
HETATM   42  N5  UNL     1     -60.188  64.433   9.895  1.00  0.00    -0.080 NA
HETATM   43  N6  UNL     1     -58.393  63.666  11.302  1.00  0.00    -0.339 N 
HETATM   44  C13 UNL     1     -57.510  62.733  11.670  1.00  0.00     0.183 A 
ATOM     45  H6  UNL     1     -58.416  64.557  11.799  1.00  0.00     0.167 HD
HETATM   46  N7  UNL     1     -57.457  61.554  11.031  1.00  0.00    -0.336 N 
ATOM     47  H7  UNL     1     -56.780  60.848  11.317  1.00  0.00     0.168 HD
ENDBRANCH  32  35
BRANCH  33  48
HETATM   48  O11 UNL     1     -57.944  56.812   8.465  1.00  0.00    -0.388 OA
ATOM     49  H11 UNL     1     -57.837  56.269   7.693  1.00  0.00     0.210 HD
ENDBRANCH  33  48
BRANCH  34  50
HETATM   50  O12 UNL     1     -56.302  57.355   6.513  1.00  0.00    -0.390 OA
ATOM     51  H12 UNL     1     -56.807  57.291   5.711  1.00  0.00     0.210 HD
ENDBRANCH  34  50
ENDBRANCH  29  30
ENDBRANCH  28  29
ENDBRANCH   1  28
TORSDOF 15
ENDMDL
