MODEL 3
REMARK VINA RESULT: -10.270715561      0.918      1.176
REMARK  15 active torsions:
REMARK  status: ('A' for Active; 'I' for Inactive)
REMARK    1  A    between atoms: C1_2  and  C2_4 
REMARK    2  A    between atoms: N2_6  and  C4_7 
REMARK    3  A    between atoms: C5_9  and  C6_10 
REMARK    4  A    between atoms: C6_10  and  O3_11 
REMARK    5  A    between atoms: O3_11  and  P1_12 
REMARK    6  A    between atoms: P1_12  and  O6_15 
REMARK    7  A    between atoms: O6_15  and  P2_16 
REMARK    8  A    between atoms: P2_16  and  O9_19 
REMARK    9  A    between atoms: O9_19  and  C7_20 
REMARK   10  A    between atoms: C7_20  and  C8_21 
REMARK   11  A    between atoms: C9_23  and  N3_24 
REMARK   12  A    between atoms: C15_37  and  O11_38 
REMARK   13  A    between atoms: C16_40  and  O12_41 
REMARK   14  A    between atoms: C17_43  and  O13_44 
REMARK   15  A    between atoms: C18_46  and  O14_47 
ROOT
HETATM    1  P2  UNL     1     -50.948  59.589   6.630  1.00  0.00     0.417 P 
HETATM    2  O7  UNL     1     -49.458  59.376   6.466  1.00  0.00    -0.624 OA
HETATM    3  O8  UNL     1     -51.296  61.190   6.333  1.00  0.00    -0.624 OA
ENDROOT
BRANCH   1   4
HETATM    4  O6  UNL     1     -51.742  58.521   5.613  1.00  0.00    -0.180 OA
BRANCH   4   5
HETATM    5  P1  UNL     1     -51.883  59.045   4.046  1.00  0.00     0.417 P 
HETATM    6  O4  UNL     1     -52.988  60.069   3.947  1.00  0.00    -0.624 OA
HETATM    7  O5  UNL     1     -50.438  59.868   3.642  1.00  0.00    -0.624 OA
BRANCH   5   8
HETATM    8  O3  UNL     1     -52.075  57.804   2.928  1.00  0.00    -0.287 OA
BRANCH   8   9
HETATM    9  C6  UNL     1     -50.935  57.040   2.913  1.00  0.00     0.216 C 
BRANCH   9  10
HETATM   10  C5  UNL     1     -50.537  56.598   1.525  1.00  0.00     0.180 C 
HETATM   11  O2  UNL     1     -51.654  56.122   0.842  1.00  0.00    -0.353 OA
HETATM   12  C4  UNL     1     -51.369  56.141  -0.500  1.00  0.00     0.259 C 
HETATM   13  C18 UNL     1     -50.305  57.189  -0.733  1.00  0.00     0.198 C 
HETATM   14  C17 UNL     1     -50.137  57.774   0.657  1.00  0.00     0.182 C 
BRANCH  12  15
HETATM   15  N2  UNL     1     -52.510  56.507  -1.316  1.00  0.00    -0.337 N 
HETATM   16  C3  UNL     1     -53.232  57.685  -1.016  1.00  0.00     0.105 A 
HETATM   17  C2  UNL     1     -54.300  58.103  -1.712  1.00  0.00     0.026 A 
HETATM   18  C21 UNL     1     -54.775  57.309  -2.867  1.00  0.00     0.073 A 
HETATM   19  C20 UNL     1     -53.985  56.098  -3.125  1.00  0.00    -0.005 A 
HETATM   20  C19 UNL     1     -52.931  55.717  -2.410  1.00  0.00     0.089 A 
BRANCH  17  21
HETATM   21  C1  UNL     1     -54.980  59.326  -1.333  1.00  0.00     0.262 C 
HETATM   22  N1  UNL     1     -54.245  60.516  -1.176  1.00  0.00    -0.057 NA
HETATM   23  O1  UNL     1     -56.210  59.317  -1.148  1.00  0.00    -0.271 OA
ENDBRANCH  17  21
ENDBRANCH  12  15
BRANCH  13  24
HETATM   24  O14 UNL     1     -49.137  56.561  -1.152  1.00  0.00    -0.388 OA
ATOM     25  H14 UNL     1     -48.957  56.811  -2.051  1.00  0.00     0.210 HD
ENDBRANCH  13  24
BRANCH  14  26
HETATM   26  O13 UNL     1     -48.814  58.142   0.848  1.00  0.00    -0.390 OA
ATOM     27  H13 UNL     1     -48.568  58.891   0.318  1.00  0.00     0.210 HD
ENDBRANCH  14  26
ENDBRANCH   9  10
ENDBRANCH   8   9
ENDBRANCH   5   8
ENDBRANCH   4   5
ENDBRANCH   1   4
BRANCH   1  28
HETATM   28  O9  UNL     1     -51.314  59.136   8.238  1.00  0.00    -0.287 OA
BRANCH  28  29
HETATM   29  C7  UNL     1     -52.404  59.923   8.615  1.00  0.00     0.216 C 
BRANCH  29  30
HETATM   30  C8  UNL     1     -53.681  59.141   8.673  1.00  0.00     0.180 C 
HETATM   31  O10 UNL     1     -54.230  59.233   9.922  1.00  0.00    -0.353 OA
HETATM   32  C9  UNL     1     -55.586  59.338   9.831  1.00  0.00     0.262 C 
HETATM   33  C15 UNL     1     -56.003  59.237   8.406  1.00  0.00     0.198 C 
HETATM   34  C16 UNL     1     -54.711  59.617   7.672  1.00  0.00     0.182 C 
BRANCH  32  35
HETATM   35  N3  UNL     1     -56.083  60.587  10.398  1.00  0.00    -0.297 N 
HETATM   36  C10 UNL     1     -57.328  61.092  10.361  1.00  0.00     0.188 A 
HETATM   37  N4  UNL     1     -57.354  62.268  11.008  1.00  0.00    -0.346 N 
HETATM   38  C11 UNL     1     -56.109  62.495  11.452  1.00  0.00     0.119 A 
ATOM     39  H4  UNL     1     -58.165  62.873  11.137  1.00  0.00     0.167 HD
HETATM   40  C12 UNL     1     -55.569  63.537  12.169  1.00  0.00     0.148 A 
HETATM   41  C14 UNL     1     -55.309  61.457  11.079  1.00  0.00     0.142 A 
HETATM   42  N5  UNL     1     -56.413  64.615  12.552  1.00  0.00    -0.080 NA
HETATM   43  N6  UNL     1     -54.278  63.505  12.480  1.00  0.00    -0.339 N 
HETATM   44  C13 UNL     1     -53.502  62.482  12.111  1.00  0.00     0.183 A 
ATOM     45  H6  UNL     1     -53.872  64.276  13.010  1.00  0.00     0.167 HD
HETATM   46  N7  UNL     1     -54.012  61.457  11.411  1.00  0.00    -0.336 N 
ATOM     47  H7  UNL     1     -53.413  60.680  11.132  1.00  0.00     0.168 HD
ENDBRANCH  32  35
BRANCH  33  48
HETATM   48  O11 UNL     1     -56.324  57.898   8.092  1.00  0.00    -0.388 OA
ATOM     49  H11 UNL     1     -56.691  57.850   7.218  1.00  0.00     0.210 HD
ENDBRANCH  33  48
BRANCH  34  50
HETATM   50  O12 UNL     1     -54.596  58.973   6.461  1.00  0.00    -0.390 OA
ATOM     51  H12 UNL     1     -55.437  58.853   6.036  1.00  0.00     0.210 HD
ENDBRANCH  34  50
ENDBRANCH  29  30
ENDBRANCH  28  29
ENDBRANCH   1  28
TORSDOF 15
ENDMDL
