MODEL 1
REMARK VINA RESULT: -10.442141622      0.000      0.000
REMARK  15 active torsions:
REMARK  status: ('A' for Active; 'I' for Inactive)
REMARK    1  A    between atoms: C1_2  and  C2_4 
REMARK    2  A    between atoms: N2_6  and  C4_7 
REMARK    3  A    between atoms: C5_9  and  C6_10 
REMARK    4  A    between atoms: C6_10  and  O3_11 
REMARK    5  A    between atoms: O3_11  and  P1_12 
REMARK    6  A    between atoms: P1_12  and  O6_15 
REMARK    7  A    between atoms: O6_15  and  P2_16 
REMARK    8  A    between atoms: P2_16  and  O9_19 
REMARK    9  A    between atoms: O9_19  and  C7_20 
REMARK   10  A    between atoms: C7_20  and  C8_21 
REMARK   11  A    between atoms: C9_23  and  N3_24 
REMARK   12  A    between atoms: C15_37  and  O11_38 
REMARK   13  A    between atoms: C16_40  and  O12_41 
REMARK   14  A    between atoms: C17_43  and  O13_44 
REMARK   15  A    between atoms: C18_46  and  O14_47 
ROOT
HETATM    1  P2  UNL     1     -51.056  60.453   6.076  1.00  0.00     0.417 P 
HETATM    2  O7  UNL     1     -49.597  60.113   6.295  1.00  0.00    -0.624 OA
HETATM    3  O8  UNL     1     -51.150  61.866   5.200  1.00  0.00    -0.624 OA
ENDROOT
BRANCH   1   4
HETATM    4  O6  UNL     1     -51.791  59.143   5.335  1.00  0.00    -0.180 OA
BRANCH   4   5
HETATM    5  P1  UNL     1     -51.791  59.206   3.677  1.00  0.00     0.417 P 
HETATM    6  O4  UNL     1     -52.765  60.259   3.206  1.00  0.00    -0.624 OA
HETATM    7  O5  UNL     1     -50.242  59.737   3.179  1.00  0.00    -0.624 OA
BRANCH   5   8
HETATM    8  O3  UNL     1     -52.067  57.721   2.940  1.00  0.00    -0.287 OA
BRANCH   8   9
HETATM    9  C6  UNL     1     -50.890  57.015   2.911  1.00  0.00     0.216 C 
BRANCH   9  10
HETATM   10  C5  UNL     1     -50.504  56.562   1.523  1.00  0.00     0.180 C 
HETATM   11  O2  UNL     1     -51.630  56.090   0.851  1.00  0.00    -0.353 OA
HETATM   12  C4  UNL     1     -51.354  56.100  -0.494  1.00  0.00     0.259 C 
HETATM   13  C18 UNL     1     -50.285  57.140  -0.740  1.00  0.00     0.198 C 
HETATM   14  C17 UNL     1     -50.103  57.730   0.646  1.00  0.00     0.182 C 
BRANCH  12  15
HETATM   15  N2  UNL     1     -52.498  56.468  -1.303  1.00  0.00    -0.337 N 
HETATM   16  C3  UNL     1     -53.202  57.660  -1.014  1.00  0.00     0.105 A 
HETATM   17  C2  UNL     1     -54.271  58.082  -1.705  1.00  0.00     0.026 A 
HETATM   18  C21 UNL     1     -54.768  57.277  -2.843  1.00  0.00     0.073 A 
HETATM   19  C20 UNL     1     -53.997  56.053  -3.092  1.00  0.00    -0.005 A 
HETATM   20  C19 UNL     1     -52.941  55.668  -2.381  1.00  0.00     0.089 A 
BRANCH  17  21
HETATM   21  C1  UNL     1     -54.931  59.319  -1.337  1.00  0.00     0.262 C 
HETATM   22  N1  UNL     1     -54.185  60.509  -1.239  1.00  0.00    -0.057 NA
HETATM   23  O1  UNL     1     -56.154  59.324  -1.111  1.00  0.00    -0.271 OA
ENDBRANCH  17  21
ENDBRANCH  12  15
BRANCH  13  24
HETATM   24  O14 UNL     1     -49.124  56.501  -1.164  1.00  0.00    -0.388 OA
ATOM     25  H14 UNL     1     -48.489  56.513  -0.457  1.00  0.00     0.210 HD
ENDBRANCH  13  24
BRANCH  14  26
HETATM   26  O13 UNL     1     -48.776  58.091   0.825  1.00  0.00    -0.390 OA
ATOM     27  H13 UNL     1     -48.244  57.895   0.064  1.00  0.00     0.210 HD
ENDBRANCH  14  26
ENDBRANCH   9  10
ENDBRANCH   8   9
ENDBRANCH   5   8
ENDBRANCH   4   5
ENDBRANCH   1   4
BRANCH   1  28
HETATM   28  O9  UNL     1     -51.742  60.612   7.635  1.00  0.00    -0.287 OA
BRANCH  28  29
HETATM   29  C7  UNL     1     -51.804  59.318   8.156  1.00  0.00     0.216 C 
BRANCH  29  30
HETATM   30  C8  UNL     1     -53.207  58.891   8.461  1.00  0.00     0.180 C 
HETATM   31  O10 UNL     1     -53.439  58.975   9.806  1.00  0.00    -0.353 OA
HETATM   32  C9  UNL     1     -54.701  59.436  10.035  1.00  0.00     0.262 C 
HETATM   33  C15 UNL     1     -55.414  59.615   8.741  1.00  0.00     0.198 C 
HETATM   34  C16 UNL     1     -54.247  59.732   7.752  1.00  0.00     0.182 C 
BRANCH  32  35
HETATM   35  N3  UNL     1     -54.704  60.695  10.773  1.00  0.00    -0.297 N 
HETATM   36  C10 UNL     1     -55.733  61.522  11.024  1.00  0.00     0.188 A 
HETATM   37  N4  UNL     1     -55.300  62.573  11.738  1.00  0.00    -0.346 N 
HETATM   38  C11 UNL     1     -53.985  62.395  11.931  1.00  0.00     0.119 A 
ATOM     39  H4  UNL     1     -55.864  63.356  12.070  1.00  0.00     0.167 HD
HETATM   40  C12 UNL     1     -53.046  63.155  12.589  1.00  0.00     0.148 A 
HETATM   41  C14 UNL     1     -53.602  61.232  11.336  1.00  0.00     0.142 A 
HETATM   42  N5  UNL     1     -53.458  64.368  13.207  1.00  0.00    -0.080 NA
HETATM   43  N6  UNL     1     -51.787  62.735  12.627  1.00  0.00    -0.339 N 
HETATM   44  C13 UNL     1     -51.422  61.592  12.040  1.00  0.00     0.183 A 
ATOM     45  H6  UNL     1     -51.086  63.296  13.112  1.00  0.00     0.167 HD
HETATM   46  N7  UNL     1     -52.324  60.837  11.394  1.00  0.00    -0.336 N 
ATOM     47  H7  UNL     1     -52.037  59.966  10.949  1.00  0.00     0.168 HD
ENDBRANCH  32  35
BRANCH  33  48
HETATM   48  O11 UNL     1     -56.152  58.451   8.433  1.00  0.00    -0.388 OA
ATOM     49  H11 UNL     1     -56.485  58.504   7.545  1.00  0.00     0.210 HD
ENDBRANCH  33  48
BRANCH  34  50
HETATM   50  O12 UNL     1     -54.568  59.228   6.513  1.00  0.00    -0.390 OA
ATOM     51  H12 UNL     1     -55.021  59.864   5.972  1.00  0.00     0.210 HD
ENDBRANCH  34  50
ENDBRANCH  29  30
ENDBRANCH  28  29
ENDBRANCH   1  28
TORSDOF 15
ENDMDL
