MODEL 4
REMARK VINA RESULT: -10.518686684      4.380      7.976
REMARK  14 active torsions:
REMARK  status: ('A' for Active; 'I' for Inactive)
REMARK    1  A    between atoms: N1_1  and  C1_5 
REMARK    2  A    between atoms: C1_5  and  C2_6 
REMARK    3  A    between atoms: C1_5  and  C16_21 
REMARK    4  A    between atoms: C2_6  and  C3_7 
REMARK    5  A    between atoms: C6_10  and  O1_11 
REMARK    6  A    between atoms: O1_11  and  C7_12 
REMARK    7  A    between atoms: C7_12  and  C8_13 
REMARK    8  A    between atoms: C16_21  and  N2_22 
REMARK    9  A    between atoms: N2_22  and  O2_23 
REMARK       I    between atoms: N2_22  and  C17_25 
REMARK   10  A    between atoms: C17_25  and  C18_27 
REMARK   11  A    between atoms: C18_27  and  C19_28 
REMARK   12  A    between atoms: C19_28  and  C20_29 
REMARK   13  A    between atoms: C20_29  and  C21_30 
REMARK   14  A    between atoms: C21_30  and  C22_31 
ROOT
HETATM    1  C1  UNL     1      15.479  42.454  65.963  1.00  0.00     0.208 C 
ENDROOT
BRANCH   1   2
HETATM    2  N1  UNL     1      15.479  43.771  66.567  1.00  0.00    -0.073 N 
ATOM      3  H13 UNL     1      16.123  44.417  66.111  1.00  0.00     0.274 HD
ATOM      4  H12 UNL     1      14.619  44.290  66.388  1.00  0.00     0.274 HD
ATOM      5  H11 UNL     1      15.672  43.654  67.562  1.00  0.00     0.274 HD
ENDBRANCH   1   2
BRANCH   1   6
HETATM    6  C2  UNL     1      14.606  42.517  64.729  1.00  0.00     0.073 C 
BRANCH   6   7
HETATM    7  C3  UNL     1      13.196  42.433  65.169  1.00  0.00    -0.056 A 
HETATM    8  C4  UNL     1      12.792  41.470  66.061  1.00  0.00     0.010 A 
HETATM    9  C5  UNL     1      11.485  41.380  66.475  1.00  0.00     0.037 A 
HETATM   10  C6  UNL     1      10.504  42.247  66.024  1.00  0.00     0.069 A 
HETATM   11  C14 UNL     1      10.915  43.212  65.128  1.00  0.00     0.037 A 
HETATM   12  C15 UNL     1      12.227  43.313  64.705  1.00  0.00     0.010 A 
BRANCH  10  13
HETATM   13  O1  UNL     1       9.180  42.174  66.427  1.00  0.00    -0.347 OA
BRANCH  13  14
HETATM   14  C7  UNL     1       8.928  41.981  67.805  1.00  0.00     0.214 C 
BRANCH  14  15
HETATM   15  C8  UNL     1       8.480  40.593  68.088  1.00  0.00    -0.034 A 
HETATM   16  C9  UNL     1       8.531  39.661  67.081  1.00  0.00     0.009 A 
HETATM   17  C10 UNL     1       8.117  38.375  67.347  1.00  0.00     0.001 A 
HETATM   18  C11 UNL     1       7.656  38.013  68.598  1.00  0.00     0.000 A 
HETATM   19  C12 UNL     1       7.619  38.979  69.589  1.00  0.00     0.001 A 
HETATM   20  C13 UNL     1       8.030  40.265  69.335  1.00  0.00     0.009 A 
ENDBRANCH  14  15
ENDBRANCH  13  14
ENDBRANCH  10  13
ENDBRANCH   6   7
ENDBRANCH   1   6
BRANCH   1  21
HETATM   21  C16 UNL     1      16.857  42.046  65.497  1.00  0.00     0.192 C 
BRANCH  21  22
HETATM   22  N2  UNL     1      17.813  43.137  65.509  1.00  0.00    -0.227 N 
HETATM   23  C17 UNL     1      18.998  43.109  66.292  1.00  0.00     0.243 C 
HETATM   24  O3  UNL     1      19.754  44.113  66.233  1.00  0.00    -0.271 OA
BRANCH  22  25
HETATM   25  O2  UNL     1      17.582  44.234  64.745  1.00  0.00    -0.285 OA
ATOM     26  H2  UNL     1      16.696  44.570  64.668  1.00  0.00     0.245 HD
ENDBRANCH  22  25
BRANCH  23  27
HETATM   27  C18 UNL     1      19.358  41.983  67.135  1.00  0.00     0.105 C 
BRANCH  27  28
HETATM   28  C19 UNL     1      19.196  42.097  68.589  1.00  0.00     0.010 C 
BRANCH  28  29
HETATM   29  C20 UNL     1      18.108  42.909  69.147  1.00  0.00     0.011 C 
BRANCH  29  30
HETATM   30  C21 UNL     1      18.409  44.194  69.809  1.00  0.00     0.113 C 
BRANCH  30  31
HETATM   31  C22 UNL     1      17.583  45.254  69.109  1.00  0.00     0.172 C 
HETATM   32  O4  UNL     1      16.358  45.113  68.997  1.00  0.00    -0.648 OA
HETATM   33  O5  UNL     1      18.239  46.363  68.612  1.00  0.00    -0.648 OA
ENDBRANCH  30  31
ENDBRANCH  29  30
ENDBRANCH  28  29
ENDBRANCH  27  28
ENDBRANCH  23  27
ENDBRANCH  21  22
ENDBRANCH   1  21
TORSDOF 14
ENDMDL
