MODEL 18
REMARK VINA RESULT: -9.900428359      2.325      9.758
REMARK  14 active torsions:
REMARK  status: ('A' for Active; 'I' for Inactive)
REMARK    1  A    between atoms: N1_1  and  C1_5 
REMARK    2  A    between atoms: C1_5  and  C2_6 
REMARK    3  A    between atoms: C1_5  and  C16_21 
REMARK    4  A    between atoms: C2_6  and  C3_7 
REMARK    5  A    between atoms: C6_10  and  O1_11 
REMARK    6  A    between atoms: O1_11  and  C7_12 
REMARK    7  A    between atoms: C7_12  and  C8_13 
REMARK    8  A    between atoms: C16_21  and  N2_22 
REMARK    9  A    between atoms: N2_22  and  O2_23 
REMARK       I    between atoms: N2_22  and  C17_25 
REMARK   10  A    between atoms: C17_25  and  C18_27 
REMARK   11  A    between atoms: C18_27  and  C19_28 
REMARK   12  A    between atoms: C19_28  and  C20_29 
REMARK   13  A    between atoms: C20_29  and  C21_30 
REMARK   14  A    between atoms: C21_30  and  C22_31 
ROOT
HETATM    1  C1  UNL     1       8.787  40.001  67.848  1.00  0.00     0.208 C 
ENDROOT
BRANCH   1   2
HETATM    2  N1  UNL     1       8.527  39.041  66.794  1.00  0.00    -0.073 N 
ATOM      3  H13 UNL     1       7.553  39.038  66.492  1.00  0.00     0.274 HD
ATOM      4  H12 UNL     1       8.943  39.309  65.901  1.00  0.00     0.274 HD
ATOM      5  H11 UNL     1       8.844  38.129  67.122  1.00  0.00     0.274 HD
ENDBRANCH   1   2
BRANCH   1   6
HETATM    6  C2  UNL     1       8.521  41.380  67.287  1.00  0.00     0.073 C 
BRANCH   6   7
HETATM    7  C3  UNL     1       9.754  41.837  66.609  1.00  0.00    -0.056 A 
HETATM    8  C4  UNL     1      10.966  41.249  66.879  1.00  0.00     0.010 A 
HETATM    9  C5  UNL     1      12.118  41.667  66.257  1.00  0.00     0.037 A 
HETATM   10  C6  UNL     1      12.129  42.695  65.329  1.00  0.00     0.069 A 
HETATM   11  C14 UNL     1      10.910  43.281  65.063  1.00  0.00     0.037 A 
HETATM   12  C15 UNL     1       9.744  42.870  65.681  1.00  0.00     0.010 A 
BRANCH  10  13
HETATM   13  O1  UNL     1      13.279  43.132  64.691  1.00  0.00    -0.347 OA
BRANCH  13  14
HETATM   14  C7  UNL     1      14.353  42.218  64.584  1.00  0.00     0.214 C 
BRANCH  14  15
HETATM   15  C8  UNL     1      15.562  42.712  65.293  1.00  0.00    -0.034 A 
HETATM   16  C9  UNL     1      16.781  42.158  64.992  1.00  0.00     0.009 A 
HETATM   17  C10 UNL     1      17.900  42.619  65.651  1.00  0.00     0.001 A 
HETATM   18  C11 UNL     1      17.813  43.620  66.598  1.00  0.00     0.000 A 
HETATM   19  C12 UNL     1      16.567  44.157  66.875  1.00  0.00     0.001 A 
HETATM   20  C13 UNL     1      15.445  43.704  66.225  1.00  0.00     0.009 A 
ENDBRANCH  14  15
ENDBRANCH  13  14
ENDBRANCH  10  13
ENDBRANCH   6   7
ENDBRANCH   1   6
BRANCH   1  21
HETATM   21  C16 UNL     1       7.849  39.822  69.019  1.00  0.00     0.192 C 
BRANCH  21  22
HETATM   22  N2  UNL     1       7.379  38.459  69.174  1.00  0.00    -0.227 N 
HETATM   23  C17 UNL     1       7.812  37.614  70.231  1.00  0.00     0.243 C 
HETATM   24  O3  UNL     1       7.345  36.446  70.265  1.00  0.00    -0.271 OA
BRANCH  22  25
HETATM   25  O2  UNL     1       6.487  37.956  68.283  1.00  0.00    -0.285 OA
ATOM     26  H2  UNL     1       6.023  38.549  67.703  1.00  0.00     0.245 HD
ENDBRANCH  22  25
BRANCH  23  27
HETATM   27  C18 UNL     1       8.751  38.047  71.249  1.00  0.00     0.105 C 
BRANCH  27  28
HETATM   28  C19 UNL     1       8.832  37.303  72.512  1.00  0.00     0.010 C 
BRANCH  28  29
HETATM   29  C20 UNL     1       9.754  36.169  72.640  1.00  0.00     0.011 C 
BRANCH  29  30
HETATM   30  C21 UNL     1       9.633  35.243  73.784  1.00  0.00     0.113 C 
BRANCH  30  31
HETATM   31  C22 UNL     1       9.632  36.092  75.040  1.00  0.00     0.172 C 
HETATM   32  O4  UNL     1      10.664  36.672  75.398  1.00  0.00    -0.648 OA
HETATM   33  O5  UNL     1       8.454  36.189  75.754  1.00  0.00    -0.648 OA
ENDBRANCH  30  31
ENDBRANCH  29  30
ENDBRANCH  28  29
ENDBRANCH  27  28
ENDBRANCH  23  27
ENDBRANCH  21  22
ENDBRANCH   1  21
TORSDOF 14
ENDMDL
