MODEL 2
REMARK VINA RESULT: -11.003363852      1.232      2.036
REMARK  14 active torsions:
REMARK  status: ('A' for Active; 'I' for Inactive)
REMARK    1  A    between atoms: N1_1  and  C1_5 
REMARK    2  A    between atoms: C1_5  and  C2_6 
REMARK    3  A    between atoms: C1_5  and  C16_21 
REMARK    4  A    between atoms: C2_6  and  C3_7 
REMARK    5  A    between atoms: C6_10  and  O1_11 
REMARK    6  A    between atoms: O1_11  and  C7_12 
REMARK    7  A    between atoms: C7_12  and  C8_13 
REMARK    8  A    between atoms: C16_21  and  N2_22 
REMARK    9  A    between atoms: N2_22  and  O2_23 
REMARK       I    between atoms: N2_22  and  C17_25 
REMARK   10  A    between atoms: C17_25  and  C18_27 
REMARK   11  A    between atoms: C18_27  and  C19_28 
REMARK   12  A    between atoms: C19_28  and  C20_29 
REMARK   13  A    between atoms: C20_29  and  C21_30 
REMARK   14  A    between atoms: C21_30  and  C22_31 
ROOT
HETATM    1  C1  UNL     1       9.141  41.514  67.553  1.00  0.00     0.208 C 
ENDROOT
BRANCH   1   2
HETATM    2  N1  UNL     1       8.261  42.621  67.239  1.00  0.00    -0.073 N 
ATOM      3  H13 UNL     1       7.999  42.653  66.254  1.00  0.00     0.274 HD
ATOM      4  H12 UNL     1       7.323  42.505  67.624  1.00  0.00     0.274 HD
ATOM      5  H11 UNL     1       8.716  43.477  67.555  1.00  0.00     0.274 HD
ENDBRANCH   1   2
BRANCH   1   6
HETATM    6  C2  UNL     1       8.517  40.258  66.986  1.00  0.00     0.073 C 
BRANCH   6   7
HETATM    7  C3  UNL     1       8.263  39.332  68.112  1.00  0.00    -0.056 A 
HETATM    8  C4  UNL     1       7.719  38.090  67.894  1.00  0.00     0.010 A 
HETATM    9  C5  UNL     1       7.476  37.222  68.931  1.00  0.00     0.037 A 
HETATM   10  C6  UNL     1       7.762  37.543  70.248  1.00  0.00     0.069 A 
HETATM   11  C14 UNL     1       8.307  38.792  70.461  1.00  0.00     0.037 A 
HETATM   12  C15 UNL     1       8.557  39.673  69.426  1.00  0.00     0.010 A 
BRANCH  10  13
HETATM   13  O1  UNL     1       7.524  36.684  71.309  1.00  0.00    -0.347 OA
BRANCH  13  14
HETATM   14  C7  UNL     1       8.154  36.979  72.541  1.00  0.00     0.214 C 
BRANCH  14  15
HETATM   15  C8  UNL     1       9.039  35.869  72.980  1.00  0.00    -0.034 A 
HETATM   16  C9  UNL     1       9.576  35.908  74.243  1.00  0.00     0.009 A 
HETATM   17  C10 UNL     1      10.395  34.877  74.647  1.00  0.00     0.001 A 
HETATM   18  C11 UNL     1      10.680  33.816  73.810  1.00  0.00     0.000 A 
HETATM   19  C12 UNL     1      10.119  33.809  72.543  1.00  0.00     0.001 A 
HETATM   20  C13 UNL     1       9.302  34.832  72.130  1.00  0.00     0.009 A 
ENDBRANCH  14  15
ENDBRANCH  13  14
ENDBRANCH  10  13
ENDBRANCH   6   7
ENDBRANCH   1   6
BRANCH   1  21
HETATM   21  C16 UNL     1      10.492  41.662  66.893  1.00  0.00     0.192 C 
BRANCH  21  22
HETATM   22  N2  UNL     1      10.499  42.627  65.810  1.00  0.00    -0.227 N 
HETATM   23  C17 UNL     1      11.690  43.024  65.146  1.00  0.00     0.243 C 
HETATM   24  O3  UNL     1      11.582  43.874  64.225  1.00  0.00    -0.271 OA
BRANCH  22  25
HETATM   25  O2  UNL     1       9.329  43.180  65.403  1.00  0.00    -0.285 OA
ATOM     26  H2  UNL     1       9.075  44.032  65.737  1.00  0.00     0.245 HD
ENDBRANCH  22  25
BRANCH  23  27
HETATM   27  C18 UNL     1      12.997  42.489  65.486  1.00  0.00     0.105 C 
BRANCH  27  28
HETATM   28  C19 UNL     1      14.015  42.365  64.436  1.00  0.00     0.010 C 
BRANCH  28  29
HETATM   29  C20 UNL     1      15.263  41.641  64.704  1.00  0.00     0.011 C 
BRANCH  29  30
HETATM   30  C21 UNL     1      16.555  42.355  64.662  1.00  0.00     0.113 C 
BRANCH  30  31
HETATM   31  C22 UNL     1      16.608  43.243  65.889  1.00  0.00     0.172 C 
HETATM   32  O4  UNL     1      16.425  42.759  67.014  1.00  0.00    -0.648 OA
HETATM   33  O5  UNL     1      16.863  44.587  65.705  1.00  0.00    -0.648 OA
ENDBRANCH  30  31
ENDBRANCH  29  30
ENDBRANCH  28  29
ENDBRANCH  27  28
ENDBRANCH  23  27
ENDBRANCH  21  22
ENDBRANCH   1  21
TORSDOF 14
ENDMDL
