MODEL 3
REMARK VINA RESULT: -10.668365523      3.660      6.942
REMARK  14 active torsions:
REMARK  status: ('A' for Active; 'I' for Inactive)
REMARK    1  A    between atoms: N1_1  and  C1_5 
REMARK    2  A    between atoms: C1_5  and  C2_6 
REMARK    3  A    between atoms: C1_5  and  C16_21 
REMARK    4  A    between atoms: C2_6  and  C3_7 
REMARK    5  A    between atoms: C6_10  and  O1_11 
REMARK    6  A    between atoms: O1_11  and  C7_12 
REMARK    7  A    between atoms: C7_12  and  C8_13 
REMARK    8  A    between atoms: C16_21  and  N2_22 
REMARK    9  A    between atoms: N2_22  and  O2_23 
REMARK       I    between atoms: N2_22  and  C17_25 
REMARK   10  A    between atoms: C17_25  and  C18_27 
REMARK   11  A    between atoms: C18_27  and  C19_28 
REMARK   12  A    between atoms: C19_28  and  C20_29 
REMARK   13  A    between atoms: C20_29  and  C21_30 
REMARK   14  A    between atoms: C21_30  and  C22_31 
ROOT
HETATM    1  C1  UNL     1      13.483  41.992  64.240  1.00  0.00     0.208 C 
ENDROOT
BRANCH   1   2
HETATM    2  N1  UNL     1      13.666  40.555  64.203  1.00  0.00    -0.073 N 
ATOM      3  H13 UNL     1      14.292  40.216  64.933  1.00  0.00     0.274 HD
ATOM      4  H12 UNL     1      12.833  40.041  64.491  1.00  0.00     0.274 HD
ATOM      5  H11 UNL     1      13.980  40.308  63.265  1.00  0.00     0.274 HD
ENDBRANCH   1   2
BRANCH   1   6
HETATM    6  C2  UNL     1      13.270  42.389  65.684  1.00  0.00     0.073 C 
BRANCH   6   7
HETATM    7  C3  UNL     1      11.854  42.120  66.021  1.00  0.00    -0.056 A 
HETATM    8  C4  UNL     1      11.502  41.002  66.739  1.00  0.00     0.010 A 
HETATM    9  C5  UNL     1      10.191  40.740  67.056  1.00  0.00     0.037 A 
HETATM   10  C6  UNL     1       9.155  41.577  66.676  1.00  0.00     0.069 A 
HETATM   11  C14 UNL     1       9.515  42.696  65.956  1.00  0.00     0.037 A 
HETATM   12  C15 UNL     1      10.829  42.971  65.632  1.00  0.00     0.010 A 
BRANCH  10  13
HETATM   13  O1  UNL     1       7.826  41.331  66.985  1.00  0.00    -0.347 OA
BRANCH  13  14
HETATM   14  C7  UNL     1       7.482  41.228  68.353  1.00  0.00     0.214 C 
BRANCH  14  15
HETATM   15  C8  UNL     1       7.597  39.829  68.840  1.00  0.00    -0.034 A 
HETATM   16  C9  UNL     1       8.111  39.602  70.093  1.00  0.00     0.009 A 
HETATM   17  C10 UNL     1       8.216  38.304  70.542  1.00  0.00     0.001 A 
HETATM   18  C11 UNL     1       7.816  37.239  69.758  1.00  0.00     0.000 A 
HETATM   19  C12 UNL     1       7.301  37.505  68.500  1.00  0.00     0.001 A 
HETATM   20  C13 UNL     1       7.193  38.796  68.043  1.00  0.00     0.009 A 
ENDBRANCH  14  15
ENDBRANCH  13  14
ENDBRANCH  10  13
ENDBRANCH   6   7
ENDBRANCH   1   6
BRANCH   1  21
HETATM   21  C16 UNL     1      14.714  42.730  63.766  1.00  0.00     0.192 C 
BRANCH  21  22
HETATM   22  N2  UNL     1      15.953  42.136  64.229  1.00  0.00    -0.227 N 
HETATM   23  C17 UNL     1      16.800  42.770  65.177  1.00  0.00     0.243 C 
HETATM   24  O3  UNL     1      17.856  42.168  65.502  1.00  0.00    -0.271 OA
BRANCH  22  25
HETATM   25  O2  UNL     1      16.331  40.924  63.749  1.00  0.00    -0.285 OA
ATOM     26  H2  UNL     1      17.105  40.861  63.202  1.00  0.00     0.245 HD
ENDBRANCH  22  25
BRANCH  23  27
HETATM   27  C18 UNL     1      16.492  44.059  65.769  1.00  0.00     0.105 C 
BRANCH  27  28
HETATM   28  C19 UNL     1      16.051  44.117  67.168  1.00  0.00     0.010 C 
BRANCH  28  29
HETATM   29  C20 UNL     1      16.919  44.716  68.188  1.00  0.00     0.011 C 
BRANCH  29  30
HETATM   30  C21 UNL     1      16.332  45.285  69.418  1.00  0.00     0.113 C 
BRANCH  30  31
HETATM   31  C22 UNL     1      16.420  46.793  69.292  1.00  0.00     0.172 C 
HETATM   32  O4  UNL     1      17.444  47.319  68.838  1.00  0.00    -0.648 OA
HETATM   33  O5  UNL     1      15.333  47.541  69.697  1.00  0.00    -0.648 OA
ENDBRANCH  30  31
ENDBRANCH  29  30
ENDBRANCH  28  29
ENDBRANCH  27  28
ENDBRANCH  23  27
ENDBRANCH  21  22
ENDBRANCH   1  21
TORSDOF 14
ENDMDL
