MODEL 5
REMARK VINA RESULT: -10.509874458      3.663      6.902
REMARK  14 active torsions:
REMARK  status: ('A' for Active; 'I' for Inactive)
REMARK    1  A    between atoms: N1_1  and  C1_5 
REMARK    2  A    between atoms: C1_5  and  C2_6 
REMARK    3  A    between atoms: C1_5  and  C16_21 
REMARK    4  A    between atoms: C2_6  and  C3_7 
REMARK    5  A    between atoms: C6_10  and  O1_11 
REMARK    6  A    between atoms: O1_11  and  C7_12 
REMARK    7  A    between atoms: C7_12  and  C8_13 
REMARK    8  A    between atoms: C16_21  and  N2_22 
REMARK    9  A    between atoms: N2_22  and  O2_23 
REMARK       I    between atoms: N2_22  and  C17_25 
REMARK   10  A    between atoms: C17_25  and  C18_27 
REMARK   11  A    between atoms: C18_27  and  C19_28 
REMARK   12  A    between atoms: C19_28  and  C20_29 
REMARK   13  A    between atoms: C20_29  and  C21_30 
REMARK   14  A    between atoms: C21_30  and  C22_31 
ROOT
HETATM    1  C1  UNL     1      13.536  42.029  64.178  1.00  0.00     0.208 C 
ENDROOT
BRANCH   1   2
HETATM    2  N1  UNL     1      13.705  40.592  64.246  1.00  0.00    -0.073 N 
ATOM      3  H13 UNL     1      14.276  40.223  63.486  1.00  0.00     0.274 HD
ATOM      4  H12 UNL     1      14.305  40.298  65.018  1.00  0.00     0.274 HD
ATOM      5  H11 UNL     1      12.776  40.173  64.284  1.00  0.00     0.274 HD
ENDBRANCH   1   2
BRANCH   1   6
HETATM    6  C2  UNL     1      13.293  42.528  65.586  1.00  0.00     0.073 C 
BRANCH   6   7
HETATM    7  C3  UNL     1      11.895  42.202  65.945  1.00  0.00    -0.056 A 
HETATM    8  C4  UNL     1      10.860  43.019  65.558  1.00  0.00     0.010 A 
HETATM    9  C5  UNL     1       9.558  42.729  65.889  1.00  0.00     0.037 A 
HETATM   10  C6  UNL     1       9.212  41.607  66.623  1.00  0.00     0.069 A 
HETATM   11  C14 UNL     1      10.255  40.791  67.009  1.00  0.00     0.037 A 
HETATM   12  C15 UNL     1      11.569  41.072  66.683  1.00  0.00     0.010 A 
BRANCH  10  13
HETATM   13  O1  UNL     1       7.907  41.296  66.968  1.00  0.00    -0.347 OA
BRANCH  13  14
HETATM   14  C7  UNL     1       7.594  41.223  68.345  1.00  0.00     0.214 C 
BRANCH  14  15
HETATM   15  C8  UNL     1       7.652  39.825  68.844  1.00  0.00    -0.034 A 
HETATM   16  C9  UNL     1       7.306  38.802  67.996  1.00  0.00     0.009 A 
HETATM   17  C10 UNL     1       7.362  37.507  68.461  1.00  0.00     0.001 A 
HETATM   18  C11 UNL     1       7.757  37.225  69.754  1.00  0.00     0.000 A 
HETATM   19  C12 UNL     1       8.099  38.282  70.582  1.00  0.00     0.001 A 
HETATM   20  C13 UNL     1       8.047  39.577  70.128  1.00  0.00     0.009 A 
ENDBRANCH  14  15
ENDBRANCH  13  14
ENDBRANCH  10  13
ENDBRANCH   6   7
ENDBRANCH   1   6
BRANCH   1  21
HETATM   21  C16 UNL     1      14.783  42.722  63.683  1.00  0.00     0.192 C 
BRANCH  21  22
HETATM   22  N2  UNL     1      16.008  42.097  64.143  1.00  0.00    -0.227 N 
HETATM   23  C17 UNL     1      16.861  42.698  65.107  1.00  0.00     0.243 C 
HETATM   24  O3  UNL     1      17.903  42.070  65.429  1.00  0.00    -0.271 OA
BRANCH  22  25
HETATM   25  O2  UNL     1      16.367  40.887  63.643  1.00  0.00    -0.285 OA
ATOM     26  H2  UNL     1      16.778  40.249  64.215  1.00  0.00     0.245 HD
ENDBRANCH  22  25
BRANCH  23  27
HETATM   27  C18 UNL     1      16.572  43.981  65.722  1.00  0.00     0.105 C 
BRANCH  27  28
HETATM   28  C19 UNL     1      15.942  44.015  67.047  1.00  0.00     0.010 C 
BRANCH  28  29
HETATM   29  C20 UNL     1      16.517  44.843  68.114  1.00  0.00     0.011 C 
BRANCH  29  30
HETATM   30  C21 UNL     1      17.671  44.351  68.892  1.00  0.00     0.113 C 
BRANCH  30  31
HETATM   31  C22 UNL     1      18.665  45.492  68.977  1.00  0.00     0.172 C 
HETATM   32  O4  UNL     1      18.296  46.654  68.759  1.00  0.00    -0.648 OA
HETATM   33  O5  UNL     1      19.972  45.190  69.301  1.00  0.00    -0.648 OA
ENDBRANCH  30  31
ENDBRANCH  29  30
ENDBRANCH  28  29
ENDBRANCH  27  28
ENDBRANCH  23  27
ENDBRANCH  21  22
ENDBRANCH   1  21
TORSDOF 14
ENDMDL
