MODEL 1
REMARK VINA RESULT: -11.167171283      0.000      0.000
REMARK  14 active torsions:
REMARK  status: ('A' for Active; 'I' for Inactive)
REMARK    1  A    between atoms: N1_1  and  C1_5 
REMARK    2  A    between atoms: C1_5  and  C2_6 
REMARK    3  A    between atoms: C1_5  and  C16_21 
REMARK    4  A    between atoms: C2_6  and  C3_7 
REMARK    5  A    between atoms: C6_10  and  O1_11 
REMARK    6  A    between atoms: O1_11  and  C7_12 
REMARK    7  A    between atoms: C7_12  and  C8_13 
REMARK    8  A    between atoms: C16_21  and  N2_22 
REMARK    9  A    between atoms: N2_22  and  O2_23 
REMARK       I    between atoms: N2_22  and  C17_25 
REMARK   10  A    between atoms: C17_25  and  C18_27 
REMARK   11  A    between atoms: C18_27  and  C19_28 
REMARK   12  A    between atoms: C19_28  and  C20_29 
REMARK   13  A    between atoms: C20_29  and  C21_30 
REMARK   14  A    between atoms: C21_30  and  C22_31 
ROOT
HETATM    1  C1  UNL     1       7.604  41.354  68.704  1.00  0.00     0.208 C 
ENDROOT
BRANCH   1   2
HETATM    2  N1  UNL     1       6.357  41.852  68.160  1.00  0.00    -0.073 N 
ATOM      3  H13 UNL     1       6.079  42.748  68.560  1.00  0.00     0.274 HD
ATOM      4  H12 UNL     1       6.442  42.160  67.190  1.00  0.00     0.274 HD
ATOM      5  H11 UNL     1       5.653  41.125  68.285  1.00  0.00     0.274 HD
ENDBRANCH   1   2
BRANCH   1   6
HETATM    6  C2  UNL     1       7.948  40.078  67.967  1.00  0.00     0.073 C 
BRANCH   6   7
HETATM    7  C3  UNL     1       7.887  38.965  68.940  1.00  0.00    -0.056 A 
HETATM    8  C4  UNL     1       7.416  37.729  68.567  1.00  0.00     0.010 A 
HETATM    9  C5  UNL     1       7.353  36.688  69.462  1.00  0.00     0.037 A 
HETATM   10  C6  UNL     1       7.755  36.819  70.781  1.00  0.00     0.069 A 
HETATM   11  C14 UNL     1       8.226  38.061  71.149  1.00  0.00     0.037 A 
HETATM   12  C15 UNL     1       8.296  39.116  70.258  1.00  0.00     0.010 A 
BRANCH  10  13
HETATM   13  O1  UNL     1       7.699  35.783  71.699  1.00  0.00    -0.347 OA
BRANCH  13  14
HETATM   14  C7  UNL     1       8.719  34.805  71.644  1.00  0.00     0.214 C 
BRANCH  14  15
HETATM   15  C8  UNL     1       9.505  34.765  72.904  1.00  0.00    -0.034 A 
HETATM   16  C9  UNL     1      10.382  33.728  73.107  1.00  0.00     0.009 A 
HETATM   17  C10 UNL     1      11.111  33.695  74.275  1.00  0.00     0.001 A 
HETATM   18  C11 UNL     1      10.973  34.679  75.235  1.00  0.00     0.000 A 
HETATM   19  C12 UNL     1      10.079  35.710  74.996  1.00  0.00     0.001 A 
HETATM   20  C13 UNL     1       9.348  35.752  73.835  1.00  0.00     0.009 A 
ENDBRANCH  14  15
ENDBRANCH  13  14
ENDBRANCH  10  13
ENDBRANCH   6   7
ENDBRANCH   1   6
BRANCH   1  21
HETATM   21  C16 UNL     1       8.748  42.312  68.465  1.00  0.00     0.192 C 
BRANCH  21  22
HETATM   22  N2  UNL     1       8.760  42.868  67.126  1.00  0.00    -0.227 N 
HETATM   23  C17 UNL     1       9.813  42.623  66.204  1.00  0.00     0.243 C 
HETATM   24  O3  UNL     1       9.726  43.162  65.070  1.00  0.00    -0.271 OA
BRANCH  22  25
HETATM   25  O2  UNL     1       7.731  43.655  66.721  1.00  0.00    -0.285 OA
ATOM     26  H2  UNL     1       6.839  43.343  66.820  1.00  0.00     0.245 HD
ENDBRANCH  22  25
BRANCH  23  27
HETATM   27  C18 UNL     1      10.956  41.786  66.520  1.00  0.00     0.105 C 
BRANCH  27  28
HETATM   28  C19 UNL     1      12.304  42.256  66.176  1.00  0.00     0.010 C 
BRANCH  28  29
HETATM   29  C20 UNL     1      13.220  41.382  65.435  1.00  0.00     0.011 C 
BRANCH  29  30
HETATM   30  C21 UNL     1      14.027  41.928  64.325  1.00  0.00     0.113 C 
BRANCH  30  31
HETATM   31  C22 UNL     1      15.482  41.701  64.685  1.00  0.00     0.172 C 
HETATM   32  O4  UNL     1      16.209  41.032  63.939  1.00  0.00    -0.648 OA
HETATM   33  O5  UNL     1      15.955  42.261  65.855  1.00  0.00    -0.648 OA
ENDBRANCH  30  31
ENDBRANCH  29  30
ENDBRANCH  28  29
ENDBRANCH  27  28
ENDBRANCH  23  27
ENDBRANCH  21  22
ENDBRANCH   1  21
TORSDOF 14
ENDMDL
