MODEL 7
REMARK VINA RESULT: -10.453256821      3.836      7.342
REMARK  14 active torsions:
REMARK  status: ('A' for Active; 'I' for Inactive)
REMARK    1  A    between atoms: N1_1  and  C1_5 
REMARK    2  A    between atoms: C1_5  and  C2_6 
REMARK    3  A    between atoms: C1_5  and  C16_21 
REMARK    4  A    between atoms: C2_6  and  C3_7 
REMARK    5  A    between atoms: C6_10  and  O1_11 
REMARK    6  A    between atoms: O1_11  and  C7_12 
REMARK    7  A    between atoms: C7_12  and  C8_13 
REMARK    8  A    between atoms: C16_21  and  N2_22 
REMARK    9  A    between atoms: N2_22  and  O2_23 
REMARK       I    between atoms: N2_22  and  C17_25 
REMARK   10  A    between atoms: C17_25  and  C18_27 
REMARK   11  A    between atoms: C18_27  and  C19_28 
REMARK   12  A    between atoms: C19_28  and  C20_29 
REMARK   13  A    between atoms: C20_29  and  C21_30 
REMARK   14  A    between atoms: C21_30  and  C22_31 
ROOT
HETATM    1  C1  UNL     1      14.011  42.418  64.013  1.00  0.00     0.208 C 
ENDROOT
BRANCH   1   2
HETATM    2  N1  UNL     1      13.509  41.067  63.862  1.00  0.00    -0.073 N 
ATOM      3  H13 UNL     1      13.565  40.727  62.903  1.00  0.00     0.274 HD
ATOM      4  H12 UNL     1      14.117  40.367  64.289  1.00  0.00     0.274 HD
ATOM      5  H11 UNL     1      12.560  41.047  64.235  1.00  0.00     0.274 HD
ENDBRANCH   1   2
BRANCH   1   6
HETATM    6  C2  UNL     1      13.741  42.850  65.437  1.00  0.00     0.073 C 
BRANCH   6   7
HETATM    7  C3  UNL     1      12.335  42.513  65.752  1.00  0.00    -0.056 A 
HETATM    8  C4  UNL     1      11.299  43.224  65.197  1.00  0.00     0.010 A 
HETATM    9  C5  UNL     1       9.989  42.922  65.485  1.00  0.00     0.037 A 
HETATM   10  C6  UNL     1       9.637  41.893  66.341  1.00  0.00     0.069 A 
HETATM   11  C14 UNL     1      10.681  41.183  66.895  1.00  0.00     0.037 A 
HETATM   12  C15 UNL     1      12.002  41.476  66.614  1.00  0.00     0.010 A 
BRANCH  10  13
HETATM   13  O1  UNL     1       8.323  41.572  66.645  1.00  0.00    -0.347 OA
BRANCH  13  14
HETATM   14  C7  UNL     1       7.967  41.503  68.012  1.00  0.00     0.214 C 
BRANCH  14  15
HETATM   15  C8  UNL     1       7.889  40.097  68.485  1.00  0.00    -0.034 A 
HETATM   16  C9  UNL     1       7.903  39.849  69.835  1.00  0.00     0.009 A 
HETATM   17  C10 UNL     1       7.829  38.544  70.270  1.00  0.00     0.001 A 
HETATM   18  C11 UNL     1       7.743  37.493  69.377  1.00  0.00     0.000 A 
HETATM   19  C12 UNL     1       7.731  37.781  68.022  1.00  0.00     0.001 A 
HETATM   20  C13 UNL     1       7.804  39.079  67.578  1.00  0.00     0.009 A 
ENDBRANCH  14  15
ENDBRANCH  13  14
ENDBRANCH  10  13
ENDBRANCH   6   7
ENDBRANCH   1   6
BRANCH   1  21
HETATM   21  C16 UNL     1      15.507  42.489  63.816  1.00  0.00     0.192 C 
BRANCH  21  22
HETATM   22  N2  UNL     1      16.254  41.750  64.816  1.00  0.00    -0.227 N 
HETATM   23  C17 UNL     1      17.262  42.349  65.618  1.00  0.00     0.243 C 
HETATM   24  O3  UNL     1      17.852  41.612  66.450  1.00  0.00    -0.271 OA
BRANCH  22  25
HETATM   25  O2  UNL     1      15.988  40.433  65.008  1.00  0.00    -0.285 OA
ATOM     26  H2  UNL     1      16.614  39.895  65.478  1.00  0.00     0.245 HD
ENDBRANCH  22  25
BRANCH  23  27
HETATM   27  C18 UNL     1      17.622  43.751  65.511  1.00  0.00     0.105 C 
BRANCH  27  28
HETATM   28  C19 UNL     1      18.998  44.162  65.815  1.00  0.00     0.010 C 
BRANCH  28  29
HETATM   29  C20 UNL     1      19.294  44.871  67.066  1.00  0.00     0.011 C 
BRANCH  29  30
HETATM   30  C21 UNL     1      19.003  44.232  68.365  1.00  0.00     0.113 C 
BRANCH  30  31
HETATM   31  C22 UNL     1      18.362  45.288  69.242  1.00  0.00     0.172 C 
HETATM   32  O4  UNL     1      18.061  45.024  70.413  1.00  0.00    -0.648 OA
HETATM   33  O5  UNL     1      18.131  46.534  68.692  1.00  0.00    -0.648 OA
ENDBRANCH  30  31
ENDBRANCH  29  30
ENDBRANCH  28  29
ENDBRANCH  27  28
ENDBRANCH  23  27
ENDBRANCH  21  22
ENDBRANCH   1  21
TORSDOF 14
ENDMDL
