MODEL 6
REMARK VINA RESULT: -10.494279477      3.615      6.849
REMARK  14 active torsions:
REMARK  status: ('A' for Active; 'I' for Inactive)
REMARK    1  A    between atoms: N1_1  and  C1_5 
REMARK    2  A    between atoms: C1_5  and  C2_6 
REMARK    3  A    between atoms: C1_5  and  C16_21 
REMARK    4  A    between atoms: C2_6  and  C3_7 
REMARK    5  A    between atoms: C6_10  and  O1_11 
REMARK    6  A    between atoms: O1_11  and  C7_12 
REMARK    7  A    between atoms: C7_12  and  C8_13 
REMARK    8  A    between atoms: C16_21  and  N2_22 
REMARK    9  A    between atoms: N2_22  and  O2_23 
REMARK       I    between atoms: N2_22  and  C17_25 
REMARK   10  A    between atoms: C17_25  and  C18_27 
REMARK   11  A    between atoms: C18_27  and  C19_28 
REMARK   12  A    between atoms: C19_28  and  C20_29 
REMARK   13  A    between atoms: C20_29  and  C21_30 
REMARK   14  A    between atoms: C21_30  and  C22_31 
ROOT
HETATM    1  C1  UNL     1      13.462  42.043  64.187  1.00  0.00     0.208 C 
ENDROOT
BRANCH   1   2
HETATM    2  N1  UNL     1      13.629  40.604  64.168  1.00  0.00    -0.073 N 
ATOM      3  H13 UNL     1      14.221  40.284  63.402  1.00  0.00     0.274 HD
ATOM      4  H12 UNL     1      14.206  40.261  64.936  1.00  0.00     0.274 HD
ATOM      5  H11 UNL     1      12.699  40.186  64.152  1.00  0.00     0.274 HD
ENDBRANCH   1   2
BRANCH   1   6
HETATM    6  C2  UNL     1      13.248  42.460  65.626  1.00  0.00     0.073 C 
BRANCH   6   7
HETATM    7  C3  UNL     1      11.852  42.127  65.988  1.00  0.00    -0.056 A 
HETATM    8  C4  UNL     1      11.555  40.956  66.643  1.00  0.00     0.010 A 
HETATM    9  C5  UNL     1      10.262  40.634  66.982  1.00  0.00     0.037 A 
HETATM   10  C6  UNL     1       9.191  41.462  66.689  1.00  0.00     0.069 A 
HETATM   11  C14 UNL     1       9.496  42.636  66.032  1.00  0.00     0.037 A 
HETATM   12  C15 UNL     1      10.792  42.970  65.686  1.00  0.00     0.010 A 
BRANCH  10  13
HETATM   13  O1  UNL     1       7.881  41.157  67.021  1.00  0.00    -0.347 OA
BRANCH  13  14
HETATM   14  C7  UNL     1       7.555  41.089  68.396  1.00  0.00     0.214 C 
BRANCH  14  15
HETATM   15  C8  UNL     1       7.620  39.695  68.904  1.00  0.00    -0.034 A 
HETATM   16  C9  UNL     1       8.070  39.473  70.182  1.00  0.00     0.009 A 
HETATM   17  C10 UNL     1       8.128  38.179  70.650  1.00  0.00     0.001 A 
HETATM   18  C11 UNL     1       7.745  37.113  69.860  1.00  0.00     0.000 A 
HETATM   19  C12 UNL     1       7.296  37.373  68.576  1.00  0.00     0.001 A 
HETATM   20  C13 UNL     1       7.234  38.660  68.100  1.00  0.00     0.009 A 
ENDBRANCH  14  15
ENDBRANCH  13  14
ENDBRANCH  10  13
ENDBRANCH   6   7
ENDBRANCH   1   6
BRANCH   1  21
HETATM   21  C16 UNL     1      14.703  42.762  63.710  1.00  0.00     0.192 C 
BRANCH  21  22
HETATM   22  N2  UNL     1      15.934  42.134  64.148  1.00  0.00    -0.227 N 
HETATM   23  C17 UNL     1      16.800  42.728  65.104  1.00  0.00     0.243 C 
HETATM   24  O3  UNL     1      17.847  42.098  65.406  1.00  0.00    -0.271 OA
BRANCH  22  25
HETATM   25  O2  UNL     1      16.286  40.928  63.633  1.00  0.00    -0.285 OA
ATOM     26  H2  UNL     1      17.099  40.522  63.912  1.00  0.00     0.245 HD
ENDBRANCH  22  25
BRANCH  23  27
HETATM   27  C18 UNL     1      16.520  44.006  65.733  1.00  0.00     0.105 C 
BRANCH  27  28
HETATM   28  C19 UNL     1      15.914  44.029  67.069  1.00  0.00     0.010 C 
BRANCH  28  29
HETATM   29  C20 UNL     1      16.431  44.942  68.096  1.00  0.00     0.011 C 
BRANCH  29  30
HETATM   30  C21 UNL     1      17.497  44.495  69.014  1.00  0.00     0.113 C 
BRANCH  30  31
HETATM   31  C22 UNL     1      18.544  45.590  69.042  1.00  0.00     0.172 C 
HETATM   32  O4  UNL     1      18.221  46.763  68.816  1.00  0.00    -0.648 OA
HETATM   33  O5  UNL     1      19.848  45.233  69.322  1.00  0.00    -0.648 OA
ENDBRANCH  30  31
ENDBRANCH  29  30
ENDBRANCH  28  29
ENDBRANCH  27  28
ENDBRANCH  23  27
ENDBRANCH  21  22
ENDBRANCH   1  21
TORSDOF 14
ENDMDL
