MODEL 1
REMARK VINA RESULT: -7.408571038      0.000      0.000
REMARK  4 active torsions:
REMARK  status: ('A' for Active; 'I' for Inactive)
REMARK    1  A    between atoms: C3_6  and  C4_7 
REMARK    2  A    between atoms: C4_7  and  O2_8 
REMARK    3  A    between atoms: C5_10  and  O3_11 
REMARK    4  A    between atoms: C6_13  and  O4_14 
ROOT
HETATM    1  O1  UNL     1      28.410  45.479   0.507  1.00  0.00    -0.271 OA
HETATM    2  C1  UNL     1      28.221  46.312  -0.410  1.00  0.00     0.249 C 
HETATM    3  N1  UNL     1      27.809  45.806  -1.681  1.00  0.00    -0.358 N 
ATOM      4  H1  UNL     1      27.844  44.809  -1.898  1.00  0.00     0.162 HD
HETATM    5  C2  UNL     1      27.341  46.778  -2.647  1.00  0.00     0.132 C 
HETATM    6  C3  UNL     1      26.733  47.980  -1.966  1.00  0.00     0.059 C 
HETATM    7  C5  UNL     1      27.677  48.661  -1.032  1.00  0.00     0.163 C 
HETATM    8  C6  UNL     1      28.429  47.741  -0.128  1.00  0.00     0.239 C 
ENDROOT
BRANCH   6   9
HETATM    9  C4  UNL     1      26.312  48.939  -3.059  1.00  0.00     0.173 C 
BRANCH   9  10
HETATM   10  O2  UNL     1      27.198  49.999  -3.187  1.00  0.00    -0.400 OA
ATOM     11  H2  UNL     1      26.848  50.799  -2.814  1.00  0.00     0.209 HD
ENDBRANCH   9  10
ENDBRANCH   6   9
BRANCH   7  12
HETATM   12  O3  UNL     1      26.904  49.518  -0.217  1.00  0.00    -0.392 OA
ATOM     13  H3  UNL     1      27.152  49.344   0.684  1.00  0.00     0.210 HD
ENDBRANCH   7  12
BRANCH   8  14
HETATM   14  O4  UNL     1      29.806  48.039  -0.235  1.00  0.00    -0.384 OA
ATOM     15  H4  UNL     1      30.061  48.600   0.488  1.00  0.00     0.210 HD
ENDBRANCH   8  14
TORSDOF 4
ENDMDL
