MODEL 9
REMARK VINA RESULT: -4.940639076      1.477      4.331
REMARK  6 active torsions:
REMARK  status: ('A' for Active; 'I' for Inactive)
REMARK    1  A    between atoms: O1_1  and  C1_3 
REMARK    2  A    between atoms: C2_4  and  O2_5 
REMARK    3  A    between atoms: C2_4  and  C3_7 
REMARK    4  A    between atoms: C4_9  and  O4_10 
REMARK    5  A    between atoms: C5_12  and  O5_13 
REMARK    6  A    between atoms: C6_15  and  O6_16 
ROOT
HETATM    1  C3  UNL     1      33.080  28.200  14.114  1.00  0.00     0.242 C 
HETATM    2  O3  UNL     1      34.265  28.084  14.794  1.00  0.00    -0.337 OA
HETATM    3  C4  UNL     1      34.526  26.715  14.883  1.00  0.00     0.318 C 
HETATM    4  C5  UNL     1      33.864  26.122  13.697  1.00  0.00     0.130 C 
HETATM    5  C6  UNL     1      33.006  27.009  13.245  1.00  0.00     0.113 C 
ENDROOT
BRANCH   1   6
HETATM    6  C2  UNL     1      33.016  29.393  13.239  1.00  0.00     0.100 C 
HETATM    7  C1  UNL     1      34.017  29.599  12.400  1.00  0.00     0.166 C 
BRANCH   7   8
HETATM    8  O1  UNL     1      33.951  30.718  11.583  1.00  0.00    -0.370 OA
ATOM      9  H1  UNL     1      33.277  31.361  11.770  1.00  0.00     0.216 HD
ENDBRANCH   7   8
BRANCH   6  10
HETATM   10  O2  UNL     1      31.960  30.267  13.282  1.00  0.00    -0.360 OA
ATOM     11  H2  UNL     1      32.106  31.200  13.173  1.00  0.00     0.217 HD
ENDBRANCH   6  10
ENDBRANCH   1   6
BRANCH   5  12
HETATM   12  O6  UNL     1      32.192  26.799  12.126  1.00  0.00    -0.359 OA
ATOM     13  H6  UNL     1      32.156  26.038  11.558  1.00  0.00     0.217 HD
ENDBRANCH   5  12
BRANCH   3  14
HETATM   14  O4  UNL     1      34.095  26.163  16.078  1.00  0.00    -0.365 OA
ATOM     15  H4  UNL     1      33.332  26.604  16.433  1.00  0.00     0.213 HD
ENDBRANCH   3  14
BRANCH   4  16
HETATM   16  O5  UNL     1      34.122  24.840  13.170  1.00  0.00    -0.358 OA
ATOM     17  H5  UNL     1      33.690  24.456  12.417  1.00  0.00     0.217 HD
ENDBRANCH   4  16
TORSDOF 6
ENDMDL
