MODEL 8
REMARK VINA RESULT: -5.078331184      1.232      1.334
REMARK  6 active torsions:
REMARK  status: ('A' for Active; 'I' for Inactive)
REMARK    1  A    between atoms: O1_1  and  C1_3 
REMARK    2  A    between atoms: C2_4  and  O2_5 
REMARK    3  A    between atoms: C2_4  and  C3_7 
REMARK    4  A    between atoms: C4_9  and  O4_10 
REMARK    5  A    between atoms: C5_12  and  O5_13 
REMARK    6  A    between atoms: C6_15  and  O6_16 
ROOT
HETATM    1  C3  UNL     1      33.597  27.163  12.366  1.00  0.00     0.242 C 
HETATM    2  O3  UNL     1      34.558  27.933  11.763  1.00  0.00    -0.337 OA
HETATM    3  C4  UNL     1      33.928  29.125  11.400  1.00  0.00     0.318 C 
HETATM    4  C5  UNL     1      32.829  29.289  12.381  1.00  0.00     0.130 C 
HETATM    5  C6  UNL     1      32.637  28.120  12.951  1.00  0.00     0.113 C 
ENDROOT
BRANCH   1   6
HETATM    6  C2  UNL     1      34.118  26.325  13.469  1.00  0.00     0.100 C 
HETATM    7  C1  UNL     1      34.873  26.908  14.385  1.00  0.00     0.166 C 
BRANCH   7   8
HETATM    8  O1  UNL     1      35.359  26.118  15.417  1.00  0.00    -0.370 OA
ATOM      9  H1  UNL     1      35.161  25.188  15.390  1.00  0.00     0.216 HD
ENDBRANCH   7   8
BRANCH   6  10
HETATM   10  O2  UNL     1      33.836  24.986  13.557  1.00  0.00    -0.360 OA
ATOM     11  H2  UNL     1      34.237  24.372  12.952  1.00  0.00     0.217 HD
ENDBRANCH   6  10
ENDBRANCH   1   6
BRANCH   5  12
HETATM   12  O6  UNL     1      31.673  27.889  13.938  1.00  0.00    -0.359 OA
ATOM     13  H6  UNL     1      30.731  27.820  13.836  1.00  0.00     0.217 HD
ENDBRANCH   5  12
BRANCH   3  14
HETATM   14  O4  UNL     1      33.488  29.122  10.088  1.00  0.00    -0.365 OA
ATOM     15  H4  UNL     1      34.174  28.899   9.469  1.00  0.00     0.213 HD
ENDBRANCH   3  14
BRANCH   4  16
HETATM   16  O5  UNL     1      32.132  30.487  12.638  1.00  0.00    -0.358 OA
ATOM     17  H5  UNL     1      32.527  31.344  12.744  1.00  0.00     0.217 HD
ENDBRANCH   4  16
TORSDOF 6
ENDMDL
