MODEL 2
REMARK VINA RESULT: -6.191459561      0.980      1.080
REMARK  6 active torsions:
REMARK  status: ('A' for Active; 'I' for Inactive)
REMARK    1  A    between atoms: O1_1  and  C1_3 
REMARK    2  A    between atoms: C2_4  and  O2_5 
REMARK    3  A    between atoms: C2_4  and  C3_7 
REMARK    4  A    between atoms: C4_9  and  O4_10 
REMARK    5  A    between atoms: C5_12  and  O5_13 
REMARK    6  A    between atoms: C6_15  and  O6_16 
ROOT
HETATM    1  C3  UNL     1      32.983  27.342  12.715  1.00  0.00     0.242 C 
HETATM    2  O3  UNL     1      33.578  27.166  11.492  1.00  0.00    -0.337 OA
HETATM    3  C4  UNL     1      33.591  28.423  10.884  1.00  0.00     0.318 C 
HETATM    4  C5  UNL     1      33.628  29.389  12.007  1.00  0.00     0.130 C 
HETATM    5  C6  UNL     1      33.266  28.741  13.091  1.00  0.00     0.113 C 
ENDROOT
BRANCH   1   6
HETATM    6  C2  UNL     1      33.544  26.474  13.775  1.00  0.00     0.100 C 
HETATM    7  C1  UNL     1      33.685  26.988  14.986  1.00  0.00     0.166 C 
BRANCH   7   8
HETATM    8  O1  UNL     1      34.210  26.171  15.975  1.00  0.00    -0.370 OA
ATOM      9  H1  UNL     1      34.103  26.447  16.878  1.00  0.00     0.216 HD
ENDBRANCH   7   8
BRANCH   6  10
HETATM   10  O2  UNL     1      33.910  25.177  13.530  1.00  0.00    -0.360 OA
ATOM     11  H2  UNL     1      34.824  24.919  13.582  1.00  0.00     0.217 HD
ENDBRANCH   6  10
ENDBRANCH   1   6
BRANCH   5  12
HETATM   12  O6  UNL     1      33.183  29.334  14.356  1.00  0.00    -0.359 OA
ATOM     13  H6  UNL     1      32.792  30.167  14.593  1.00  0.00     0.217 HD
ENDBRANCH   5  12
BRANCH   3  14
HETATM   14  O4  UNL     1      32.516  28.619  10.034  1.00  0.00    -0.365 OA
ATOM     15  H4  UNL     1      32.231  29.525  10.004  1.00  0.00     0.213 HD
ENDBRANCH   3  14
BRANCH   4  16
HETATM   16  O5  UNL     1      33.988  30.748  11.906  1.00  0.00    -0.358 OA
ATOM     17  H5  UNL     1      34.218  31.201  11.104  1.00  0.00     0.217 HD
ENDBRANCH   4  16
TORSDOF 6
ENDMDL
