MODEL 17
REMARK VINA RESULT: -3.273977392      1.323      1.510
REMARK  6 active torsions:
REMARK  status: ('A' for Active; 'I' for Inactive)
REMARK    1  A    between atoms: O1_1  and  C1_3 
REMARK    2  A    between atoms: C2_4  and  O2_5 
REMARK    3  A    between atoms: C2_4  and  C3_7 
REMARK    4  A    between atoms: C4_9  and  O4_10 
REMARK    5  A    between atoms: C5_12  and  O5_13 
REMARK    6  A    between atoms: C6_15  and  O6_16 
ROOT
HETATM    1  C3  UNL     1      32.930  28.141  12.783  1.00  0.00     0.242 C 
HETATM    2  O3  UNL     1      33.021  27.079  11.920  1.00  0.00    -0.337 OA
HETATM    3  C4  UNL     1      33.345  27.621  10.674  1.00  0.00     0.318 C 
HETATM    4  C5  UNL     1      34.084  28.868  10.981  1.00  0.00     0.130 C 
HETATM    5  C6  UNL     1      33.833  29.172  12.235  1.00  0.00     0.113 C 
ENDROOT
BRANCH   1   6
HETATM    6  C2  UNL     1      33.392  27.827  14.155  1.00  0.00     0.100 C 
HETATM    7  C1  UNL     1      33.581  26.556  14.469  1.00  0.00     0.166 C 
BRANCH   7   8
HETATM    8  O1  UNL     1      34.014  26.269  15.754  1.00  0.00    -0.370 OA
ATOM      9  H1  UNL     1      34.461  25.442  15.894  1.00  0.00     0.216 HD
ENDBRANCH   7   8
BRANCH   6  10
HETATM   10  O2  UNL     1      33.624  28.809  15.082  1.00  0.00    -0.360 OA
ATOM     11  H2  UNL     1      33.970  29.652  14.811  1.00  0.00     0.217 HD
ENDBRANCH   6  10
ENDBRANCH   1   6
BRANCH   5  12
HETATM   12  O6  UNL     1      34.363  30.294  12.882  1.00  0.00    -0.359 OA
ATOM     13  H6  UNL     1      33.928  30.889  13.481  1.00  0.00     0.217 HD
ENDBRANCH   5  12
BRANCH   3  14
HETATM   14  O4  UNL     1      32.234  27.831   9.875  1.00  0.00    -0.365 OA
ATOM     15  H4  UNL     1      31.709  28.569  10.161  1.00  0.00     0.213 HD
ENDBRANCH   3  14
BRANCH   4  16
HETATM   16  O5  UNL     1      34.899  29.581  10.079  1.00  0.00    -0.358 OA
ATOM     17  H5  UNL     1      35.113  29.309   9.195  1.00  0.00     0.217 HD
ENDBRANCH   4  16
TORSDOF 6
ENDMDL
