MODEL 6
REMARK VINA RESULT: -5.347539525      1.273      1.598
REMARK  6 active torsions:
REMARK  status: ('A' for Active; 'I' for Inactive)
REMARK    1  A    between atoms: O1_1  and  C1_3 
REMARK    2  A    between atoms: C2_4  and  O2_5 
REMARK    3  A    between atoms: C2_4  and  C3_7 
REMARK    4  A    between atoms: C4_9  and  O4_10 
REMARK    5  A    between atoms: C5_12  and  O5_13 
REMARK    6  A    between atoms: C6_15  and  O6_16 
ROOT
HETATM    1  C3  UNL     1      33.653  27.178  13.480  1.00  0.00     0.242 C 
HETATM    2  O3  UNL     1      34.424  26.946  12.371  1.00  0.00    -0.337 OA
HETATM    3  C4  UNL     1      34.240  28.049  11.534  1.00  0.00     0.318 C 
HETATM    4  C5  UNL     1      33.918  29.171  12.448  1.00  0.00     0.130 C 
HETATM    5  C6  UNL     1      33.570  28.647  13.602  1.00  0.00     0.113 C 
ENDROOT
BRANCH   1   6
HETATM    6  C2  UNL     1      34.250  26.661  14.733  1.00  0.00     0.100 C 
HETATM    7  C1  UNL     1      33.483  26.613  15.810  1.00  0.00     0.166 C 
BRANCH   7   8
HETATM    8  O1  UNL     1      34.047  26.127  16.980  1.00  0.00    -0.370 OA
ATOM      9  H1  UNL     1      33.617  25.394  17.404  1.00  0.00     0.216 HD
ENDBRANCH   7   8
BRANCH   6  10
HETATM   10  O2  UNL     1      35.552  26.239  14.794  1.00  0.00    -0.360 OA
ATOM     11  H2  UNL     1      36.259  26.834  14.572  1.00  0.00     0.217 HD
ENDBRANCH   6  10
ENDBRANCH   1   6
BRANCH   5  12
HETATM   12  O6  UNL     1      33.197  29.406  14.716  1.00  0.00    -0.359 OA
ATOM     13  H6  UNL     1      33.614  30.186  15.065  1.00  0.00     0.217 HD
ENDBRANCH   5  12
BRANCH   3  14
HETATM   14  O4  UNL     1      33.267  27.837  10.573  1.00  0.00    -0.365 OA
ATOM     15  H4  UNL     1      32.388  28.005  10.894  1.00  0.00     0.213 HD
ENDBRANCH   3  14
BRANCH   4  16
HETATM   16  O5  UNL     1      33.980  30.540  12.118  1.00  0.00    -0.358 OA
ATOM     17  H5  UNL     1      34.259  31.236  12.700  1.00  0.00     0.217 HD
ENDBRANCH   4  16
TORSDOF 6
ENDMDL
