MODEL 1
REMARK VINA RESULT: -6.959907555      0.000      0.000
REMARK  6 active torsions:
REMARK  status: ('A' for Active; 'I' for Inactive)
REMARK    1  A    between atoms: O1_1  and  C1_3 
REMARK    2  A    between atoms: C2_4  and  O2_5 
REMARK    3  A    between atoms: C2_4  and  C3_7 
REMARK    4  A    between atoms: C4_9  and  O4_10 
REMARK    5  A    between atoms: C5_12  and  O5_13 
REMARK    6  A    between atoms: C6_15  and  O6_16 
ROOT
HETATM    1  C3  UNL     1      32.921  27.636  12.707  1.00  0.00     0.242 C 
HETATM    2  O3  UNL     1      33.677  27.454  11.578  1.00  0.00    -0.337 OA
HETATM    3  C4  UNL     1      33.497  28.602  10.803  1.00  0.00     0.318 C 
HETATM    4  C5  UNL     1      33.199  29.677  11.779  1.00  0.00     0.130 C 
HETATM    5  C6  UNL     1      32.858  29.097  12.908  1.00  0.00     0.113 C 
ENDROOT
BRANCH   1   6
HETATM    6  C2  UNL     1      33.526  27.045  13.924  1.00  0.00     0.100 C 
HETATM    7  C1  UNL     1      34.805  26.712  13.879  1.00  0.00     0.166 C 
BRANCH   7   8
HETATM    8  O1  UNL     1      35.366  26.160  15.020  1.00  0.00    -0.370 OA
ATOM      9  H1  UNL     1      35.983  26.693  15.510  1.00  0.00     0.216 HD
ENDBRANCH   7   8
BRANCH   6  10
HETATM   10  O2  UNL     1      32.800  26.845  15.069  1.00  0.00    -0.360 OA
ATOM     11  H2  UNL     1      32.998  26.110  15.639  1.00  0.00     0.217 HD
ENDBRANCH   6  10
ENDBRANCH   1   6
BRANCH   5  12
HETATM   12  O6  UNL     1      32.507  29.800  14.065  1.00  0.00    -0.359 OA
ATOM     13  H6  UNL     1      31.718  30.301  14.234  1.00  0.00     0.217 HD
ENDBRANCH   5  12
BRANCH   3  14
HETATM   14  O4  UNL     1      32.510  28.452   9.844  1.00  0.00    -0.365 OA
ATOM     15  H4  UNL     1      31.725  28.950  10.041  1.00  0.00     0.213 HD
ENDBRANCH   3  14
BRANCH   4  16
HETATM   16  O5  UNL     1      33.274  31.061  11.521  1.00  0.00    -0.358 OA
ATOM     17  H5  UNL     1      33.937  31.651  11.860  1.00  0.00     0.217 HD
ENDBRANCH   4  16
TORSDOF 6
ENDMDL
