MODEL 14
REMARK VINA RESULT: -3.885584248      1.186      4.502
REMARK  6 active torsions:
REMARK  status: ('A' for Active; 'I' for Inactive)
REMARK    1  A    between atoms: O1_1  and  C1_3 
REMARK    2  A    between atoms: C2_4  and  O2_5 
REMARK    3  A    between atoms: C2_4  and  C3_7 
REMARK    4  A    between atoms: C4_9  and  O4_10 
REMARK    5  A    between atoms: C5_12  and  O5_13 
REMARK    6  A    between atoms: C6_15  and  O6_16 
ROOT
HETATM    1  C3  UNL     1      32.582  28.621  12.278  1.00  0.00     0.242 C 
HETATM    2  O3  UNL     1      32.801  29.026  13.570  1.00  0.00    -0.337 OA
HETATM    3  C4  UNL     1      33.465  27.971  14.199  1.00  0.00     0.318 C 
HETATM    4  C5  UNL     1      34.201  27.282  13.112  1.00  0.00     0.130 C 
HETATM    5  C6  UNL     1      33.672  27.673  11.974  1.00  0.00     0.113 C 
ENDROOT
BRANCH   1   6
HETATM    6  C2  UNL     1      32.664  29.723  11.292  1.00  0.00     0.100 C 
HETATM    7  C1  UNL     1      32.368  29.449  10.032  1.00  0.00     0.166 C 
BRANCH   7   8
HETATM    8  O1  UNL     1      32.446  30.484   9.113  1.00  0.00    -0.370 OA
ATOM      9  H1  UNL     1      33.300  30.870   8.955  1.00  0.00     0.216 HD
ENDBRANCH   7   8
BRANCH   6  10
HETATM   10  O2  UNL     1      33.029  30.993  11.655  1.00  0.00    -0.360 OA
ATOM     11  H2  UNL     1      32.566  31.444  12.352  1.00  0.00     0.217 HD
ENDBRANCH   6  10
ENDBRANCH   1   6
BRANCH   5  12
HETATM   12  O6  UNL     1      34.112  27.229  10.722  1.00  0.00    -0.359 OA
ATOM     13  H6  UNL     1      33.596  27.051   9.945  1.00  0.00     0.217 HD
ENDBRANCH   5  12
BRANCH   3  14
HETATM   14  O4  UNL     1      32.608  27.132  14.889  1.00  0.00    -0.365 OA
ATOM     15  H4  UNL     1      33.005  26.297  15.107  1.00  0.00     0.213 HD
ENDBRANCH   3  14
BRANCH   4  16
HETATM   16  O5  UNL     1      35.268  26.379  13.290  1.00  0.00    -0.358 OA
ATOM     17  H5  UNL     1      35.746  25.944  12.594  1.00  0.00     0.217 HD
ENDBRANCH   4  16
TORSDOF 6
ENDMDL
