MODEL 5
REMARK VINA RESULT: -6.748101743      2.197      5.070
REMARK  9 active torsions:
REMARK  status: ('A' for Active; 'I' for Inactive)
REMARK       I    between atoms: C2_2  and  N1_4 
REMARK    1  A    between atoms: N1_4  and  C3_6 
REMARK    2  A    between atoms: C4_7  and  O2_8 
REMARK    3  A    between atoms: C6_11  and  C7_12 
REMARK    4  A    between atoms: C8_16  and  C9_17 
REMARK    5  A    between atoms: C9_17  and  O6_18 
REMARK    6  A    between atoms: C9_17  and  C10_20 
REMARK    7  A    between atoms: C10_20  and  O7_21 
REMARK    8  A    between atoms: C10_20  and  C11_23 
REMARK    9  A    between atoms: C11_23  and  O8_24 
ROOT
HETATM    1  C3  UNL     1       4.765  36.262  19.872  1.00  0.00     0.149 C 
HETATM    2  C4  UNL     1       6.270  36.194  19.906  1.00  0.00     0.169 C 
HETATM    3  C5  UNL     1       6.787  37.266  19.030  1.00  0.00     0.050 C 
HETATM    4  C6  UNL     1       6.094  38.367  18.837  1.00  0.00     0.144 C 
HETATM    5  O5  UNL     1       4.871  38.575  19.432  1.00  0.00    -0.335 OA
HETATM    6  C8  UNL     1       4.249  37.637  20.277  1.00  0.00     0.186 C 
ENDROOT
BRANCH   6   7
HETATM    7  C9  UNL     1       2.768  37.577  20.112  1.00  0.00     0.180 C 
BRANCH   7   8
HETATM    8  O6  UNL     1       2.432  36.956  18.922  1.00  0.00    -0.390 OA
ATOM      9  H6  UNL     1       1.577  37.240  18.624  1.00  0.00     0.210 HD
ENDBRANCH   7   8
BRANCH   7  10
HETATM   10  C10 UNL     1       2.060  38.876  20.266  1.00  0.00     0.173 C 
BRANCH  10  11
HETATM   11  O7  UNL     1       2.897  39.709  21.046  1.00  0.00    -0.391 OA
ATOM     12  H7  UNL     1       3.125  39.218  21.826  1.00  0.00     0.210 HD
ENDBRANCH  10  11
BRANCH  10  13
HETATM   13  C11 UNL     1       0.772  38.747  21.067  1.00  0.00     0.198 C 
BRANCH  13  14
HETATM   14  O8  UNL     1       0.128  37.551  20.761  1.00  0.00    -0.398 OA
ATOM     15  H8  UNL     1       0.363  36.879  21.389  1.00  0.00     0.209 HD
ENDBRANCH  13  14
ENDBRANCH  10  13
ENDBRANCH   7  10
ENDBRANCH   6   7
BRANCH   1  16
HETATM   16  N1  UNL     1       4.252  35.321  20.846  1.00  0.00    -0.351 N 
HETATM   17  C2  UNL     1       3.825  34.009  20.523  1.00  0.00     0.214 C 
HETATM   18  C1  UNL     1       3.301  33.072  21.574  1.00  0.00     0.117 C 
HETATM   19  O1  UNL     1       3.895  33.640  19.329  1.00  0.00    -0.274 OA
ATOM     20  H1  UNL     1       4.195  35.619  21.820  1.00  0.00     0.163 HD
ENDBRANCH   1  16
BRANCH   2  21
HETATM   21  O2  UNL     1       6.642  34.968  19.357  1.00  0.00    -0.389 OA
ATOM     22  H2  UNL     1       5.855  34.563  19.012  1.00  0.00     0.210 HD
ENDBRANCH   2  21
BRANCH   4  23
HETATM   23  C7  UNL     1       6.665  39.401  17.951  1.00  0.00     0.233 C 
HETATM   24  O3  UNL     1       6.183  40.542  17.883  1.00  0.00    -0.642 OA
HETATM   25  O4  UNL     1       7.773  39.120  17.159  1.00  0.00    -0.642 OA
ENDBRANCH   4  23
TORSDOF 9
ENDMDL
