MODEL 6
REMARK VINA RESULT: -6.445676259      2.537      4.881
REMARK  9 active torsions:
REMARK  status: ('A' for Active; 'I' for Inactive)
REMARK       I    between atoms: C2_2  and  N1_4 
REMARK    1  A    between atoms: N1_4  and  C3_6 
REMARK    2  A    between atoms: C4_7  and  O2_8 
REMARK    3  A    between atoms: C6_11  and  C7_12 
REMARK    4  A    between atoms: C8_16  and  C9_17 
REMARK    5  A    between atoms: C9_17  and  O6_18 
REMARK    6  A    between atoms: C9_17  and  C10_20 
REMARK    7  A    between atoms: C10_20  and  O7_21 
REMARK    8  A    between atoms: C10_20  and  C11_23 
REMARK    9  A    between atoms: C11_23  and  O8_24 
ROOT
HETATM    1  C3  UNL     1       4.229  38.217  19.206  1.00  0.00     0.149 C 
HETATM    2  C4  UNL     1       3.531  39.436  19.750  1.00  0.00     0.169 C 
HETATM    3  C5  UNL     1       2.152  39.041  20.107  1.00  0.00     0.050 C 
HETATM    4  C6  UNL     1       1.880  37.805  20.464  1.00  0.00     0.144 C 
HETATM    5  O5  UNL     1       2.850  36.830  20.522  1.00  0.00    -0.335 OA
HETATM    6  C8  UNL     1       4.200  37.057  20.195  1.00  0.00     0.186 C 
ENDROOT
BRANCH   6   7
HETATM    7  C9  UNL     1       4.843  35.910  19.491  1.00  0.00     0.180 C 
BRANCH   7   8
HETATM    8  O6  UNL     1       4.319  35.759  18.219  1.00  0.00    -0.390 OA
ATOM      9  H6  UNL     1       4.517  34.897  17.874  1.00  0.00     0.210 HD
ENDBRANCH   7   8
BRANCH   7  10
HETATM   10  C10 UNL     1       4.836  34.625  20.238  1.00  0.00     0.173 C 
BRANCH  10  11
HETATM   11  O7  UNL     1       6.135  34.073  20.117  1.00  0.00    -0.391 OA
ATOM     12  H7  UNL     1       6.057  33.306  19.563  1.00  0.00     0.210 HD
ENDBRANCH  10  11
BRANCH  10  13
HETATM   13  C11 UNL     1       3.908  33.592  19.615  1.00  0.00     0.198 C 
BRANCH  13  14
HETATM   14  O8  UNL     1       2.585  34.020  19.692  1.00  0.00    -0.398 OA
ATOM     15  H8  UNL     1       2.168  33.959  18.841  1.00  0.00     0.209 HD
ENDBRANCH  13  14
ENDBRANCH  10  13
ENDBRANCH   7  10
ENDBRANCH   6   7
BRANCH   1  16
HETATM   16  N1  UNL     1       5.623  38.553  19.000  1.00  0.00    -0.351 N 
HETATM   17  C2  UNL     1       6.247  38.571  17.728  1.00  0.00     0.214 C 
HETATM   18  C1  UNL     1       7.699  38.928  17.571  1.00  0.00     0.117 C 
HETATM   19  O1  UNL     1       5.558  38.282  16.725  1.00  0.00    -0.274 OA
ATOM     20  H1  UNL     1       6.187  38.789  19.816  1.00  0.00     0.163 HD
ENDBRANCH   1  16
BRANCH   2  21
HETATM   21  O2  UNL     1       3.460  40.368  18.715  1.00  0.00    -0.389 OA
ATOM     22  H2  UNL     1       4.014  41.100  18.957  1.00  0.00     0.210 HD
ENDBRANCH   2  21
BRANCH   4  23
HETATM   23  C7  UNL     1       0.484  37.473  20.810  1.00  0.00     0.233 C 
HETATM   24  O3  UNL     1      -0.084  36.474  20.345  1.00  0.00    -0.642 OA
HETATM   25  O4  UNL     1      -0.240  38.282  21.678  1.00  0.00    -0.642 OA
ENDBRANCH   4  23
TORSDOF 9
ENDMDL
