MODEL 3
REMARK VINA RESULT: -7.286799169      0.941      1.420
REMARK  9 active torsions:
REMARK  status: ('A' for Active; 'I' for Inactive)
REMARK       I    between atoms: C2_2  and  N1_4 
REMARK    1  A    between atoms: N1_4  and  C3_6 
REMARK    2  A    between atoms: C4_7  and  O2_8 
REMARK    3  A    between atoms: C6_11  and  C7_12 
REMARK    4  A    between atoms: C8_16  and  C9_17 
REMARK    5  A    between atoms: C9_17  and  O6_18 
REMARK    6  A    between atoms: C9_17  and  C10_20 
REMARK    7  A    between atoms: C10_20  and  O7_21 
REMARK    8  A    between atoms: C10_20  and  C11_23 
REMARK    9  A    between atoms: C11_23  and  O8_24 
ROOT
HETATM    1  C3  UNL     1       3.929  34.304  20.698  1.00  0.00     0.149 C 
HETATM    2  C4  UNL     1       2.538  33.802  20.986  1.00  0.00     0.169 C 
HETATM    3  C5  UNL     1       1.621  34.959  20.926  1.00  0.00     0.050 C 
HETATM    4  C6  UNL     1       1.896  35.993  20.161  1.00  0.00     0.144 C 
HETATM    5  O5  UNL     1       3.035  36.050  19.390  1.00  0.00    -0.335 OA
HETATM    6  C8  UNL     1       4.004  35.030  19.360  1.00  0.00     0.186 C 
ENDROOT
BRANCH   6   7
HETATM    7  C9  UNL     1       5.401  35.540  19.254  1.00  0.00     0.180 C 
BRANCH   7   8
HETATM    8  O6  UNL     1       5.787  36.159  20.431  1.00  0.00    -0.390 OA
ATOM      9  H6  UNL     1       6.626  35.826  20.726  1.00  0.00     0.210 HD
ENDBRANCH   7   8
BRANCH   7  10
HETATM   10  C10 UNL     1       5.676  36.398  18.072  1.00  0.00     0.173 C 
BRANCH  10  11
HETATM   11  O7  UNL     1       6.980  36.078  17.626  1.00  0.00    -0.391 OA
ATOM     12  H7  UNL     1       7.584  36.590  18.150  1.00  0.00     0.210 HD
ENDBRANCH  10  11
BRANCH  10  13
HETATM   13  C11 UNL     1       5.730  37.878  18.425  1.00  0.00     0.198 C 
BRANCH  13  14
HETATM   14  O8  UNL     1       4.445  38.377  18.621  1.00  0.00    -0.398 OA
ATOM     15  H8  UNL     1       4.328  39.187  18.139  1.00  0.00     0.209 HD
ENDBRANCH  13  14
ENDBRANCH  10  13
ENDBRANCH   7  10
ENDBRANCH   6   7
BRANCH   1  16
HETATM   16  N1  UNL     1       4.808  33.158  20.600  1.00  0.00    -0.351 N 
HETATM   17  C2  UNL     1       5.880  32.911  21.493  1.00  0.00     0.214 C 
HETATM   18  C1  UNL     1       6.763  31.704  21.345  1.00  0.00     0.117 C 
HETATM   19  O1  UNL     1       6.080  33.728  22.419  1.00  0.00    -0.274 OA
ATOM     20  H1  UNL     1       4.647  32.490  19.846  1.00  0.00     0.163 HD
ENDBRANCH   1  16
BRANCH   2  21
HETATM   21  O2  UNL     1       2.537  33.316  22.293  1.00  0.00    -0.389 OA
ATOM     22  H2  UNL     1       1.648  33.391  22.621  1.00  0.00     0.210 HD
ENDBRANCH   2  21
BRANCH   4  23
HETATM   23  C7  UNL     1       0.940  37.118  20.143  1.00  0.00     0.233 C 
HETATM   24  O3  UNL     1      -0.173  37.038  20.684  1.00  0.00    -0.642 OA
HETATM   25  O4  UNL     1       1.268  38.313  19.513  1.00  0.00    -0.642 OA
ENDBRANCH   4  23
TORSDOF 9
ENDMDL
