MODEL 4
REMARK VINA RESULT: -7.174609708      1.373      1.600
REMARK  9 active torsions:
REMARK  status: ('A' for Active; 'I' for Inactive)
REMARK       I    between atoms: C2_2  and  N1_4 
REMARK    1  A    between atoms: N1_4  and  C3_6 
REMARK    2  A    between atoms: C4_7  and  O2_8 
REMARK    3  A    between atoms: C6_11  and  C7_12 
REMARK    4  A    between atoms: C8_16  and  C9_17 
REMARK    5  A    between atoms: C9_17  and  O6_18 
REMARK    6  A    between atoms: C9_17  and  C10_20 
REMARK    7  A    between atoms: C10_20  and  O7_21 
REMARK    8  A    between atoms: C10_20  and  C11_23 
REMARK    9  A    between atoms: C11_23  and  O8_24 
ROOT
HETATM    1  C3  UNL     1       4.304  34.952  20.270  1.00  0.00     0.149 C 
HETATM    2  C4  UNL     1       2.959  34.398  20.662  1.00  0.00     0.169 C 
HETATM    3  C5  UNL     1       2.001  35.523  20.690  1.00  0.00     0.050 C 
HETATM    4  C6  UNL     1       2.178  36.574  19.920  1.00  0.00     0.144 C 
HETATM    5  O5  UNL     1       3.249  36.679  19.061  1.00  0.00    -0.335 OA
HETATM    6  C8  UNL     1       4.246  35.694  18.940  1.00  0.00     0.186 C 
ENDROOT
BRANCH   6   7
HETATM    7  C9  UNL     1       5.613  36.254  18.730  1.00  0.00     0.180 C 
BRANCH   7   8
HETATM    8  O6  UNL     1       6.045  36.928  19.859  1.00  0.00    -0.390 OA
ATOM      9  H6  UNL     1       6.029  37.867  19.717  1.00  0.00     0.210 HD
ENDBRANCH   7   8
BRANCH   7  10
HETATM   10  C10 UNL     1       5.778  37.081  17.506  1.00  0.00     0.173 C 
BRANCH  10  11
HETATM   11  O7  UNL     1       4.984  38.240  17.684  1.00  0.00    -0.391 OA
ATOM     12  H7  UNL     1       5.359  38.722  18.411  1.00  0.00     0.210 HD
ENDBRANCH  10  11
BRANCH  10  13
HETATM   13  C11 UNL     1       5.217  36.404  16.263  1.00  0.00     0.198 C 
BRANCH  13  14
HETATM   14  O8  UNL     1       5.274  37.267  15.173  1.00  0.00    -0.398 OA
ATOM     15  H8  UNL     1       6.014  37.051  14.618  1.00  0.00     0.209 HD
ENDBRANCH  13  14
ENDBRANCH  10  13
ENDBRANCH   7  10
ENDBRANCH   6   7
BRANCH   1  16
HETATM   16  N1  UNL     1       5.211  33.838  20.086  1.00  0.00    -0.351 N 
HETATM   17  C2  UNL     1       6.114  33.388  21.080  1.00  0.00     0.214 C 
HETATM   18  C1  UNL     1       7.035  32.226  20.837  1.00  0.00     0.117 C 
HETATM   19  O1  UNL     1       6.130  33.984  22.181  1.00  0.00    -0.274 OA
ATOM     20  H1  UNL     1       5.200  33.350  19.190  1.00  0.00     0.163 HD
ENDBRANCH   1  16
BRANCH   2  21
HETATM   21  O2  UNL     1       3.079  33.898  21.958  1.00  0.00    -0.389 OA
ATOM     22  H2  UNL     1       2.927  32.962  21.914  1.00  0.00     0.210 HD
ENDBRANCH   2  21
BRANCH   4  23
HETATM   23  C7  UNL     1       1.186  37.665  19.994  1.00  0.00     0.233 C 
HETATM   24  O3  UNL     1       0.069  37.498  20.507  1.00  0.00    -0.642 OA
HETATM   25  O4  UNL     1       1.482  38.925  19.486  1.00  0.00    -0.642 OA
ENDBRANCH   4  23
TORSDOF 9
ENDMDL
