MODEL 1
REMARK VINA RESULT: -7.432936269      0.000      0.000
REMARK  9 active torsions:
REMARK  status: ('A' for Active; 'I' for Inactive)
REMARK       I    between atoms: C2_2  and  N1_4 
REMARK    1  A    between atoms: N1_4  and  C3_6 
REMARK    2  A    between atoms: C4_7  and  O2_8 
REMARK    3  A    between atoms: C6_11  and  C7_12 
REMARK    4  A    between atoms: C8_16  and  C9_17 
REMARK    5  A    between atoms: C9_17  and  O6_18 
REMARK    6  A    between atoms: C9_17  and  C10_20 
REMARK    7  A    between atoms: C10_20  and  O7_21 
REMARK    8  A    between atoms: C10_20  and  C11_23 
REMARK    9  A    between atoms: C11_23  and  O8_24 
ROOT
HETATM    1  C3  UNL     1       4.171  34.034  21.131  1.00  0.00     0.149 C 
HETATM    2  C4  UNL     1       2.777  33.475  21.015  1.00  0.00     0.169 C 
HETATM    3  C5  UNL     1       1.831  34.609  21.084  1.00  0.00     0.050 C 
HETATM    4  C6  UNL     1       2.191  35.806  20.676  1.00  0.00     0.144 C 
HETATM    5  O5  UNL     1       3.446  36.062  20.174  1.00  0.00    -0.335 OA
HETATM    6  C8  UNL     1       4.452  35.085  20.064  1.00  0.00     0.186 C 
ENDROOT
BRANCH   6   7
HETATM    7  C9  UNL     1       5.819  35.603  20.357  1.00  0.00     0.180 C 
BRANCH   7   8
HETATM    8  O6  UNL     1       5.934  35.957  21.690  1.00  0.00    -0.390 OA
ATOM      9  H6  UNL     1       5.349  35.437  22.227  1.00  0.00     0.210 HD
ENDBRANCH   7   8
BRANCH   7  10
HETATM   10  C10 UNL     1       6.290  36.693  19.462  1.00  0.00     0.173 C 
BRANCH  10  11
HETATM   11  O7  UNL     1       5.635  37.878  19.879  1.00  0.00    -0.391 OA
ATOM     12  H7  UNL     1       6.313  38.517  20.061  1.00  0.00     0.210 HD
ENDBRANCH  10  11
BRANCH  10  13
HETATM   13  C11 UNL     1       5.858  36.490  18.017  1.00  0.00     0.198 C 
BRANCH  13  14
HETATM   14  O8  UNL     1       6.940  36.086  17.240  1.00  0.00    -0.398 OA
ATOM     15  H8  UNL     1       6.676  35.983  16.333  1.00  0.00     0.209 HD
ENDBRANCH  13  14
ENDBRANCH  10  13
ENDBRANCH   7  10
ENDBRANCH   6   7
BRANCH   1  16
HETATM   16  N1  UNL     1       5.108  32.953  20.907  1.00  0.00    -0.351 N 
HETATM   17  C2  UNL     1       6.137  32.604  21.817  1.00  0.00     0.214 C 
HETATM   18  C1  UNL     1       7.083  31.470  21.535  1.00  0.00     0.117 C 
HETATM   19  O1  UNL     1       6.243  33.264  22.874  1.00  0.00    -0.274 OA
ATOM     20  H1  UNL     1       5.023  32.412  20.047  1.00  0.00     0.163 HD
ENDBRANCH   1  16
BRANCH   2  21
HETATM   21  O2  UNL     1       2.563  32.664  22.128  1.00  0.00    -0.389 OA
ATOM     22  H2  UNL     1       1.688  32.850  22.449  1.00  0.00     0.210 HD
ENDBRANCH   2  21
BRANCH   4  23
HETATM   23  C7  UNL     1       1.200  36.898  20.771  1.00  0.00     0.233 C 
HETATM   24  O3  UNL     1       0.991  37.500  21.835  1.00  0.00    -0.642 OA
HETATM   25  O4  UNL     1       0.468  37.286  19.655  1.00  0.00    -0.642 OA
ENDBRANCH   4  23
TORSDOF 9
ENDMDL
