MODEL 2
REMARK VINA RESULT: -7.328459406      0.470      1.263
REMARK  9 active torsions:
REMARK  status: ('A' for Active; 'I' for Inactive)
REMARK       I    between atoms: C2_2  and  N1_4 
REMARK    1  A    between atoms: N1_4  and  C3_6 
REMARK    2  A    between atoms: C4_7  and  O2_8 
REMARK    3  A    between atoms: C6_11  and  C7_12 
REMARK    4  A    between atoms: C8_16  and  C9_17 
REMARK    5  A    between atoms: C9_17  and  O6_18 
REMARK    6  A    between atoms: C9_17  and  C10_20 
REMARK    7  A    between atoms: C10_20  and  O7_21 
REMARK    8  A    between atoms: C10_20  and  C11_23 
REMARK    9  A    between atoms: C11_23  and  O8_24 
ROOT
HETATM    1  C3  UNL     1       4.081  34.031  21.097  1.00  0.00     0.149 C 
HETATM    2  C4  UNL     1       2.687  33.461  21.084  1.00  0.00     0.169 C 
HETATM    3  C5  UNL     1       1.739  34.594  21.147  1.00  0.00     0.050 C 
HETATM    4  C6  UNL     1       2.068  35.771  20.661  1.00  0.00     0.144 C 
HETATM    5  O5  UNL     1       3.293  36.005  20.079  1.00  0.00    -0.335 OA
HETATM    6  C8  UNL     1       4.298  35.027  19.965  1.00  0.00     0.186 C 
ENDROOT
BRANCH   6   7
HETATM    7  C9  UNL     1       5.676  35.564  20.157  1.00  0.00     0.180 C 
BRANCH   7   8
HETATM    8  O6  UNL     1       5.872  35.951  21.472  1.00  0.00    -0.390 OA
ATOM      9  H6  UNL     1       6.624  35.507  21.844  1.00  0.00     0.210 HD
ENDBRANCH   7   8
BRANCH   7  10
HETATM   10  C10 UNL     1       6.077  36.637  19.209  1.00  0.00     0.173 C 
BRANCH  10  11
HETATM   11  O7  UNL     1       6.812  36.013  18.172  1.00  0.00    -0.391 OA
ATOM     12  H7  UNL     1       7.586  36.544  18.026  1.00  0.00     0.210 HD
ENDBRANCH  10  11
BRANCH  10  13
HETATM   13  C11 UNL     1       7.041  37.637  19.832  1.00  0.00     0.198 C 
BRANCH  13  14
HETATM   14  O8  UNL     1       6.342  38.593  20.563  1.00  0.00    -0.398 OA
ATOM     15  H8  UNL     1       5.804  39.123  19.986  1.00  0.00     0.209 HD
ENDBRANCH  13  14
ENDBRANCH  10  13
ENDBRANCH   7  10
ENDBRANCH   6   7
BRANCH   1  16
HETATM   16  N1  UNL     1       5.012  32.942  20.878  1.00  0.00    -0.351 N 
HETATM   17  C2  UNL     1       6.070  32.623  21.765  1.00  0.00     0.214 C 
HETATM   18  C1  UNL     1       7.007  31.481  21.489  1.00  0.00     0.117 C 
HETATM   19  O1  UNL     1       6.210  33.318  22.796  1.00  0.00    -0.274 OA
ATOM     20  H1  UNL     1       4.899  32.374  20.039  1.00  0.00     0.163 HD
ENDBRANCH   1  16
BRANCH   2  21
HETATM   21  O2  UNL     1       2.537  32.707  22.247  1.00  0.00    -0.389 OA
ATOM     22  H2  UNL     1       3.022  33.149  22.934  1.00  0.00     0.210 HD
ENDBRANCH   2  21
BRANCH   4  23
HETATM   23  C7  UNL     1       1.078  36.863  20.753  1.00  0.00     0.233 C 
HETATM   24  O3  UNL     1       0.874  37.471  21.814  1.00  0.00    -0.642 OA
HETATM   25  O4  UNL     1       0.339  37.243  19.638  1.00  0.00    -0.642 OA
ENDBRANCH   4  23
TORSDOF 9
ENDMDL
