MODEL 8
REMARK VINA RESULT: -6.385906395      3.135      5.498
REMARK  9 active torsions:
REMARK  status: ('A' for Active; 'I' for Inactive)
REMARK       I    between atoms: C2_2  and  N1_4 
REMARK    1  A    between atoms: N1_4  and  C3_6 
REMARK    2  A    between atoms: C4_7  and  O2_8 
REMARK    3  A    between atoms: C6_11  and  C7_12 
REMARK    4  A    between atoms: C8_16  and  C9_17 
REMARK    5  A    between atoms: C9_17  and  O6_18 
REMARK    6  A    between atoms: C9_17  and  C10_20 
REMARK    7  A    between atoms: C10_20  and  O7_21 
REMARK    8  A    between atoms: C10_20  and  C11_23 
REMARK    9  A    between atoms: C11_23  and  O8_24 
ROOT
HETATM    1  C3  UNL     1       5.999  37.679  20.088  1.00  0.00     0.149 C 
HETATM    2  C4  UNL     1       6.662  37.209  21.356  1.00  0.00     0.169 C 
HETATM    3  C5  UNL     1       6.405  35.759  21.486  1.00  0.00     0.050 C 
HETATM    4  C6  UNL     1       6.223  35.012  20.419  1.00  0.00     0.144 C 
HETATM    5  O5  UNL     1       6.261  35.534  19.146  1.00  0.00    -0.335 OA
HETATM    6  C8  UNL     1       6.481  36.896  18.872  1.00  0.00     0.186 C 
ENDROOT
BRANCH   6   7
HETATM    7  C9  UNL     1       5.682  37.407  17.720  1.00  0.00     0.180 C 
BRANCH   7   8
HETATM    8  O6  UNL     1       4.392  37.714  18.116  1.00  0.00    -0.390 OA
ATOM      9  H6  UNL     1       4.370  37.952  19.035  1.00  0.00     0.210 HD
ENDBRANCH   7   8
BRANCH   7  10
HETATM   10  C10 UNL     1       5.689  36.543  16.511  1.00  0.00     0.173 C 
BRANCH  10  11
HETATM   11  O7  UNL     1       5.749  37.406  15.390  1.00  0.00    -0.391 OA
ATOM     12  H7  UNL     1       6.191  36.929  14.699  1.00  0.00     0.210 HD
ENDBRANCH  10  11
BRANCH  10  13
HETATM   13  C11 UNL     1       4.393  35.763  16.342  1.00  0.00     0.198 C 
BRANCH  13  14
HETATM   14  O8  UNL     1       4.070  35.098  17.522  1.00  0.00    -0.398 OA
ATOM     15  H8  UNL     1       4.071  34.159  17.383  1.00  0.00     0.209 HD
ENDBRANCH  13  14
ENDBRANCH  10  13
ENDBRANCH   7  10
ENDBRANCH   6   7
BRANCH   1  16
HETATM   16  N1  UNL     1       6.377  39.060  19.870  1.00  0.00    -0.351 N 
HETATM   17  C2  UNL     1       5.567  40.163  20.236  1.00  0.00     0.214 C 
HETATM   18  C1  UNL     1       6.008  41.578  19.988  1.00  0.00     0.117 C 
HETATM   19  O1  UNL     1       4.464  39.934  20.780  1.00  0.00    -0.274 OA
ATOM     20  H1  UNL     1       7.277  39.250  19.427  1.00  0.00     0.163 HD
ENDBRANCH   1  16
BRANCH   2  21
HETATM   21  O2  UNL     1       6.032  37.858  22.417  1.00  0.00    -0.389 OA
ATOM     22  H2  UNL     1       6.712  38.154  23.010  1.00  0.00     0.210 HD
ENDBRANCH   2  21
BRANCH   4  23
HETATM   23  C7  UNL     1       5.969  33.570  20.615  1.00  0.00     0.233 C 
HETATM   24  O3  UNL     1       5.082  33.161  21.379  1.00  0.00    -0.642 OA
HETATM   25  O4  UNL     1       6.729  32.622  19.940  1.00  0.00    -0.642 OA
ENDBRANCH   4  23
TORSDOF 9
ENDMDL
