MODEL 13
REMARK VINA RESULT: -10.652260653      1.818      5.404
REMARK  16 active torsions:
REMARK  status: ('A' for Active; 'I' for Inactive)
REMARK    1  A    between atoms: O1_2  and  C2_3 
REMARK    2  A    between atoms: C6_7  and  C7_8 
REMARK    3  A    between atoms: C7_8  and  N1_9 
REMARK    4  A    between atoms: N1_9  and  C8_11 
REMARK    5  A    between atoms: C8_11  and  C9_12 
REMARK    6  A    between atoms: C9_12  and  O2_13 
REMARK    7  A    between atoms: C9_12  and  C10_15 
REMARK    8  A    between atoms: C10_15  and  C11_16 
REMARK    9  A    between atoms: C10_15  and  N2_23 
REMARK   10  A    between atoms: C11_16  and  C12_17 
REMARK       I    between atoms: N2_23  and  C18_25 
REMARK   11  A    between atoms: C18_25  and  C19_27 
REMARK   12  A    between atoms: C21_29  and  C22_30 
REMARK       I    between atoms: C22_30  and  N3_32 
REMARK   13  A    between atoms: N3_32  and  C23_34 
REMARK   14  A    between atoms: C23_34  and  C25_36 
REMARK   15  A    between atoms: C32_43  and  N4_44 
REMARK   16  A    between atoms: N4_44  and  S1_46 
ROOT
HETATM    1  N2  UNL     1      -3.308  -3.979  31.932  1.00  0.00    -0.349 N 
ATOM      2  H2  UNL     1      -2.547  -4.134  32.593  1.00  0.00     0.163 HD
HETATM    3  C18 UNL     1      -3.047  -3.674  30.567  1.00  0.00     0.252 C 
HETATM    4  O3  UNL     1      -3.998  -3.479  29.738  1.00  0.00    -0.268 OA
ENDROOT
BRANCH   3   5
HETATM    5  C19 UNL     1      -1.693  -3.572  30.042  1.00  0.00     0.035 A 
HETATM    6  C20 UNL     1      -1.350  -2.551  29.185  1.00  0.00     0.034 A 
HETATM    7  C21 UNL     1      -0.082  -2.397  28.653  1.00  0.00     0.035 A 
HETATM    8  C31 UNL     1       0.887  -3.308  28.997  1.00  0.00     0.047 A 
HETATM    9  C32 UNL     1       0.588  -4.348  29.854  1.00  0.00     0.046 A 
HETATM   10  C35 UNL     1      -0.696  -4.460  30.361  1.00  0.00     0.047 A 
BRANCH   7  11
HETATM   11  C22 UNL     1       0.190  -1.287  27.735  1.00  0.00     0.252 C 
HETATM   12  O4  UNL     1       0.713  -0.232  28.185  1.00  0.00    -0.268 OA
HETATM   13  N3  UNL     1      -0.096  -1.306  26.351  1.00  0.00    -0.349 N 
ATOM     14  H3  UNL     1      -0.515  -2.147  25.954  1.00  0.00     0.163 HD
BRANCH  13  15
HETATM   15  C23 UNL     1       0.178  -0.185  25.467  1.00  0.00     0.114 C 
HETATM   16  C24 UNL     1      -1.032  -0.088  24.543  1.00  0.00     0.037 C 
BRANCH  15  17
HETATM   17  C25 UNL     1       1.375  -0.419  24.628  1.00  0.00    -0.036 A 
HETATM   18  C26 UNL     1       2.329  -1.352  24.968  1.00  0.00     0.009 A 
HETATM   19  C27 UNL     1       3.449  -1.555  24.167  1.00  0.00     0.001 A 
HETATM   20  C28 UNL     1       3.637  -0.827  23.007  1.00  0.00     0.000 A 
HETATM   21  C29 UNL     1       2.691   0.101  22.668  1.00  0.00     0.001 A 
HETATM   22  C30 UNL     1       1.585   0.297  23.466  1.00  0.00     0.009 A 
ENDBRANCH  15  17
ENDBRANCH  13  15
ENDBRANCH   7  11
BRANCH   9  23
HETATM   23  N4  UNL     1       1.619  -5.283  30.206  1.00  0.00    -0.281 N 
HETATM   24  C33 UNL     1       2.399  -5.941  29.198  1.00  0.00     0.169 C 
BRANCH  23  25
HETATM   25  S1  UNL     1       1.908  -5.605  31.875  1.00  0.00     0.228 S 
HETATM   26  C34 UNL     1       3.444  -6.472  32.069  1.00  0.00     0.186 C 
HETATM   27  O5  UNL     1       1.942  -4.327  32.665  1.00  0.00    -0.206 OA
HETATM   28  O6  UNL     1       0.792  -6.474  32.436  1.00  0.00    -0.206 OA
ENDBRANCH  23  25
ENDBRANCH   9  23
ENDBRANCH   3   5
BRANCH   1  29
HETATM   29  C10 UNL     1      -4.700  -4.061  32.351  1.00  0.00     0.119 C 
BRANCH  29  30
HETATM   30  C9  UNL     1      -5.170  -2.853  33.059  1.00  0.00     0.158 C 
BRANCH  30  31
HETATM   31  C8  UNL     1      -6.530  -3.006  33.681  1.00  0.00     0.147 C 
BRANCH  31  32
HETATM   32  N1  UNL     1      -7.468  -1.979  33.326  1.00  0.00    -0.415 N 
ATOM     33  H1  UNL     1      -7.896  -1.378  34.030  1.00  0.00     0.153 HD
BRANCH  32  34
HETATM   34  C7  UNL     1      -7.772  -1.841  31.946  1.00  0.00     0.153 C 
BRANCH  34  35
HETATM   35  C6  UNL     1      -7.734  -0.407  31.575  1.00  0.00    -0.038 A 
HETATM   36  C5  UNL     1      -6.512   0.270  31.502  1.00  0.00     0.009 A 
HETATM   37  C4  UNL     1      -6.402   1.594  31.171  1.00  0.00     0.003 A 
HETATM   38  C3  UNL     1      -7.530   2.315  30.892  1.00  0.00     0.037 A 
HETATM   39  C2  UNL     1      -8.748   1.695  30.952  1.00  0.00     0.068 A 
HETATM   40  C36 UNL     1      -8.842   0.362  31.287  1.00  0.00     0.045 A 
BRANCH  39  41
HETATM   41  O1  UNL     1      -9.901   2.392  30.679  1.00  0.00    -0.356 OA
HETATM   42  C1  UNL     1     -10.639   2.114  29.494  1.00  0.00     0.210 C 
ENDBRANCH  39  41
ENDBRANCH  34  35
ENDBRANCH  32  34
ENDBRANCH  31  32
ENDBRANCH  30  31
BRANCH  30  43
HETATM   43  O2  UNL     1      -4.209  -2.431  33.973  1.00  0.00    -0.392 OA
ATOM     44  H2  UNL     1      -3.886  -1.558  33.786  1.00  0.00     0.210 HD
ENDBRANCH  30  43
ENDBRANCH  29  30
BRANCH  29  45
HETATM   45  C11 UNL     1      -4.762  -5.299  33.271  1.00  0.00     0.066 C 
BRANCH  45  46
HETATM   46  C12 UNL     1      -3.901  -6.405  32.815  1.00  0.00    -0.056 A 
HETATM   47  C13 UNL     1      -4.059  -6.946  31.560  1.00  0.00     0.007 A 
HETATM   48  C14 UNL     1      -3.256  -7.974  31.132  1.00  0.00     0.001 A 
HETATM   49  C15 UNL     1      -2.274  -8.473  31.977  1.00  0.00     0.000 A 
HETATM   50  C16 UNL     1      -2.124  -7.933  33.214  1.00  0.00     0.001 A 
HETATM   51  C17 UNL     1      -2.912  -6.905  33.669  1.00  0.00     0.007 A 
ENDBRANCH  45  46
ENDBRANCH  29  45
ENDBRANCH   1  29
TORSDOF 16
ENDMDL
