MODEL 3
REMARK VINA RESULT: -12.030714245      2.359      3.020
REMARK  16 active torsions:
REMARK  status: ('A' for Active; 'I' for Inactive)
REMARK    1  A    between atoms: O1_2  and  C2_3 
REMARK    2  A    between atoms: C6_7  and  C7_8 
REMARK    3  A    between atoms: C7_8  and  N1_9 
REMARK    4  A    between atoms: N1_9  and  C8_11 
REMARK    5  A    between atoms: C8_11  and  C9_12 
REMARK    6  A    between atoms: C9_12  and  O2_13 
REMARK    7  A    between atoms: C9_12  and  C10_15 
REMARK    8  A    between atoms: C10_15  and  C11_16 
REMARK    9  A    between atoms: C10_15  and  N2_23 
REMARK   10  A    between atoms: C11_16  and  C12_17 
REMARK       I    between atoms: N2_23  and  C18_25 
REMARK   11  A    between atoms: C18_25  and  C19_27 
REMARK   12  A    between atoms: C21_29  and  C22_30 
REMARK       I    between atoms: C22_30  and  N3_32 
REMARK   13  A    between atoms: N3_32  and  C23_34 
REMARK   14  A    between atoms: C23_34  and  C25_36 
REMARK   15  A    between atoms: C32_43  and  N4_44 
REMARK   16  A    between atoms: N4_44  and  S1_46 
ROOT
HETATM    1  N2  UNL     1      -3.744  -3.269  31.862  1.00  0.00    -0.349 N 
ATOM      2  H2  UNL     1      -2.998  -3.162  32.548  1.00  0.00     0.163 HD
HETATM    3  C18 UNL     1      -3.465  -3.281  30.467  1.00  0.00     0.252 C 
HETATM    4  O3  UNL     1      -4.397  -3.415  29.605  1.00  0.00    -0.268 OA
ENDROOT
BRANCH   3   5
HETATM    5  C19 UNL     1      -2.111  -3.147  29.947  1.00  0.00     0.035 A 
HETATM    6  C20 UNL     1      -1.099  -3.955  30.411  1.00  0.00     0.034 A 
HETATM    7  C21 UNL     1       0.205  -3.879  29.957  1.00  0.00     0.035 A 
HETATM    8  C31 UNL     1       0.510  -2.949  28.991  1.00  0.00     0.047 A 
HETATM    9  C32 UNL     1      -0.474  -2.118  28.496  1.00  0.00     0.046 A 
HETATM   10  C35 UNL     1      -1.766  -2.231  28.982  1.00  0.00     0.047 A 
BRANCH   7  11
HETATM   11  C22 UNL     1       1.223  -4.771  30.519  1.00  0.00     0.252 C 
HETATM   12  O4  UNL     1       1.999  -5.387  29.739  1.00  0.00    -0.268 OA
HETATM   13  N3  UNL     1       1.407  -5.004  31.901  1.00  0.00    -0.349 N 
ATOM     14  H3  UNL     1       0.799  -4.518  32.560  1.00  0.00     0.163 HD
BRANCH  13  15
HETATM   15  C23 UNL     1       2.422  -5.902  32.429  1.00  0.00     0.114 C 
HETATM   16  C24 UNL     1       1.685  -6.830  33.390  1.00  0.00     0.037 C 
BRANCH  15  17
HETATM   17  C25 UNL     1       3.459  -5.179  33.198  1.00  0.00    -0.036 A 
HETATM   18  C26 UNL     1       3.151  -4.453  34.326  1.00  0.00     0.009 A 
HETATM   19  C27 UNL     1       4.141  -3.777  35.034  1.00  0.00     0.001 A 
HETATM   20  C28 UNL     1       5.461  -3.814  34.626  1.00  0.00     0.000 A 
HETATM   21  C29 UNL     1       5.768  -4.535  33.505  1.00  0.00     0.001 A 
HETATM   22  C30 UNL     1       4.783  -5.201  32.809  1.00  0.00     0.009 A 
ENDBRANCH  15  17
ENDBRANCH  13  15
ENDBRANCH   7  11
BRANCH   9  23
HETATM   23  N4  UNL     1      -0.135  -1.159  27.483  1.00  0.00    -0.281 N 
HETATM   24  C33 UNL     1       0.820  -0.119  27.735  1.00  0.00     0.169 C 
BRANCH  23  25
HETATM   25  S1  UNL     1      -0.900  -1.280  25.942  1.00  0.00     0.228 S 
HETATM   26  C34 UNL     1       0.264  -0.912  24.655  1.00  0.00     0.186 C 
HETATM   27  O5  UNL     1      -1.466  -2.657  25.737  1.00  0.00    -0.206 OA
HETATM   28  O6  UNL     1      -2.047  -0.283  25.853  1.00  0.00    -0.206 OA
ENDBRANCH  23  25
ENDBRANCH   9  23
ENDBRANCH   3   5
BRANCH   1  29
HETATM   29  C10 UNL     1      -5.132  -3.415  32.274  1.00  0.00     0.119 C 
BRANCH  29  30
HETATM   30  C9  UNL     1      -5.754  -2.145  32.699  1.00  0.00     0.158 C 
BRANCH  30  31
HETATM   31  C8  UNL     1      -7.105  -1.897  32.090  1.00  0.00     0.147 C 
BRANCH  31  32
HETATM   32  N1  UNL     1      -8.196  -1.927  33.023  1.00  0.00    -0.415 N 
ATOM     33  H1  UNL     1      -8.121  -2.409  33.918  1.00  0.00     0.153 HD
BRANCH  32  34
HETATM   34  C7  UNL     1      -9.384  -1.253  32.637  1.00  0.00     0.153 C 
BRANCH  34  35
HETATM   35  C6  UNL     1     -10.550  -2.134  32.878  1.00  0.00    -0.038 A 
HETATM   36  C5  UNL     1     -10.382  -3.367  33.520  1.00  0.00     0.009 A 
HETATM   37  C4  UNL     1     -11.412  -4.232  33.770  1.00  0.00     0.003 A 
HETATM   38  C3  UNL     1     -12.681  -3.901  33.384  1.00  0.00     0.037 A 
HETATM   39  C2  UNL     1     -12.894  -2.706  32.753  1.00  0.00     0.068 A 
HETATM   40  C36 UNL     1     -11.846  -1.845  32.508  1.00  0.00     0.045 A 
BRANCH  39  41
HETATM   41  O1  UNL     1     -14.157  -2.343  32.352  1.00  0.00    -0.356 OA
HETATM   42  C1  UNL     1     -14.859  -1.316  33.044  1.00  0.00     0.210 C 
ENDBRANCH  39  41
ENDBRANCH  34  35
ENDBRANCH  32  34
ENDBRANCH  31  32
ENDBRANCH  30  31
BRANCH  30  43
HETATM   43  O2  UNL     1      -5.772  -2.065  34.089  1.00  0.00    -0.392 OA
ATOM     44  H2  UNL     1      -4.916  -2.210  34.473  1.00  0.00     0.210 HD
ENDBRANCH  30  43
ENDBRANCH  29  30
BRANCH  29  45
HETATM   45  C11 UNL     1      -5.094  -4.428  33.438  1.00  0.00     0.066 C 
BRANCH  45  46
HETATM   46  C12 UNL     1      -4.268  -5.615  33.148  1.00  0.00    -0.056 A 
HETATM   47  C13 UNL     1      -4.434  -6.315  31.976  1.00  0.00     0.007 A 
HETATM   48  C14 UNL     1      -3.665  -7.419  31.702  1.00  0.00     0.001 A 
HETATM   49  C15 UNL     1      -2.709  -7.832  32.621  1.00  0.00     0.000 A 
HETATM   50  C16 UNL     1      -2.552  -7.135  33.776  1.00  0.00     0.001 A 
HETATM   51  C17 UNL     1      -3.306  -6.028  34.076  1.00  0.00     0.007 A 
ENDBRANCH  45  46
ENDBRANCH  29  45
ENDBRANCH   1  29
TORSDOF 16
ENDMDL
