MODEL 2
REMARK VINA RESULT: -12.143035207      1.882      2.428
REMARK  16 active torsions:
REMARK  status: ('A' for Active; 'I' for Inactive)
REMARK    1  A    between atoms: O1_2  and  C2_3 
REMARK    2  A    between atoms: C6_7  and  C7_8 
REMARK    3  A    between atoms: C7_8  and  N1_9 
REMARK    4  A    between atoms: N1_9  and  C8_11 
REMARK    5  A    between atoms: C8_11  and  C9_12 
REMARK    6  A    between atoms: C9_12  and  O2_13 
REMARK    7  A    between atoms: C9_12  and  C10_15 
REMARK    8  A    between atoms: C10_15  and  C11_16 
REMARK    9  A    between atoms: C10_15  and  N2_23 
REMARK   10  A    between atoms: C11_16  and  C12_17 
REMARK       I    between atoms: N2_23  and  C18_25 
REMARK   11  A    between atoms: C18_25  and  C19_27 
REMARK   12  A    between atoms: C21_29  and  C22_30 
REMARK       I    between atoms: C22_30  and  N3_32 
REMARK   13  A    between atoms: N3_32  and  C23_34 
REMARK   14  A    between atoms: C23_34  and  C25_36 
REMARK   15  A    between atoms: C32_43  and  N4_44 
REMARK   16  A    between atoms: N4_44  and  S1_46 
ROOT
HETATM    1  N2  UNL     1      -3.735  -3.552  32.067  1.00  0.00    -0.349 N 
ATOM      2  H2  UNL     1      -2.936  -3.515  32.700  1.00  0.00     0.163 HD
HETATM    3  C18 UNL     1      -3.564  -3.459  30.658  1.00  0.00     0.252 C 
HETATM    4  O3  UNL     1      -4.562  -3.505  29.864  1.00  0.00    -0.268 OA
ENDROOT
BRANCH   3   5
HETATM    5  C19 UNL     1      -2.251  -3.312  30.046  1.00  0.00     0.035 A 
HETATM    6  C20 UNL     1      -1.189  -4.077  30.473  1.00  0.00     0.034 A 
HETATM    7  C21 UNL     1       0.081  -3.987  29.932  1.00  0.00     0.035 A 
HETATM    8  C31 UNL     1       0.297  -3.089  28.914  1.00  0.00     0.047 A 
HETATM    9  C32 UNL     1      -0.739  -2.302  28.454  1.00  0.00     0.046 A 
HETATM   10  C35 UNL     1      -1.993  -2.428  29.027  1.00  0.00     0.047 A 
BRANCH   7  11
HETATM   11  C22 UNL     1       1.157  -4.831  30.460  1.00  0.00     0.252 C 
HETATM   12  O4  UNL     1       1.964  -5.370  29.656  1.00  0.00    -0.268 OA
HETATM   13  N3  UNL     1       1.364  -5.096  31.833  1.00  0.00    -0.349 N 
ATOM     14  H3  UNL     1       0.731  -4.671  32.510  1.00  0.00     0.163 HD
BRANCH  13  15
HETATM   15  C23 UNL     1       2.436  -5.945  32.325  1.00  0.00     0.114 C 
HETATM   16  C24 UNL     1       1.763  -6.963  33.241  1.00  0.00     0.037 C 
BRANCH  15  17
HETATM   17  C25 UNL     1       3.420  -5.188  33.131  1.00  0.00    -0.036 A 
HETATM   18  C26 UNL     1       3.042  -4.448  34.229  1.00  0.00     0.009 A 
HETATM   19  C27 UNL     1       3.982  -3.739  34.972  1.00  0.00     0.001 A 
HETATM   20  C28 UNL     1       5.321  -3.758  34.631  1.00  0.00     0.000 A 
HETATM   21  C29 UNL     1       5.698  -4.492  33.540  1.00  0.00     0.001 A 
HETATM   22  C30 UNL     1       4.762  -5.191  32.809  1.00  0.00     0.009 A 
ENDBRANCH  15  17
ENDBRANCH  13  15
ENDBRANCH   7  11
BRANCH   9  23
HETATM   23  N4  UNL     1      -0.492  -1.376  27.384  1.00  0.00    -0.281 N 
HETATM   24  C33 UNL     1      -1.556  -0.914  26.542  1.00  0.00     0.169 C 
BRANCH  23  25
HETATM   25  S1  UNL     1       1.121  -0.822  27.128  1.00  0.00     0.228 S 
HETATM   26  C34 UNL     1       2.033  -2.022  26.191  1.00  0.00     0.186 C 
HETATM   27  O5  UNL     1       1.123   0.495  26.406  1.00  0.00    -0.206 OA
HETATM   28  O6  UNL     1       1.821  -0.625  28.465  1.00  0.00    -0.206 OA
ENDBRANCH  23  25
ENDBRANCH   9  23
ENDBRANCH   3   5
BRANCH   1  29
HETATM   29  C10 UNL     1      -5.091  -3.701  32.574  1.00  0.00     0.119 C 
BRANCH  29  30
HETATM   30  C9  UNL     1      -5.585  -2.506  33.287  1.00  0.00     0.158 C 
BRANCH  30  31
HETATM   31  C8  UNL     1      -6.581  -1.700  32.502  1.00  0.00     0.147 C 
BRANCH  31  32
HETATM   32  N1  UNL     1      -7.947  -1.874  32.913  1.00  0.00    -0.415 N 
ATOM     33  H1  UNL     1      -8.223  -1.813  33.892  1.00  0.00     0.153 HD
BRANCH  32  34
HETATM   34  C7  UNL     1      -8.893  -2.133  31.888  1.00  0.00     0.153 C 
BRANCH  34  35
HETATM   35  C6  UNL     1     -10.262  -2.044  32.448  1.00  0.00    -0.038 A 
HETATM   36  C5  UNL     1     -10.455  -1.996  33.833  1.00  0.00     0.009 A 
HETATM   37  C4  UNL     1     -11.689  -1.919  34.420  1.00  0.00     0.003 A 
HETATM   38  C3  UNL     1     -12.809  -1.886  33.635  1.00  0.00     0.037 A 
HETATM   39  C2  UNL     1     -12.669  -1.932  32.275  1.00  0.00     0.068 A 
HETATM   40  C36 UNL     1     -11.420  -2.010  31.700  1.00  0.00     0.045 A 
BRANCH  39  41
HETATM   41  O1  UNL     1     -13.774  -1.901  31.458  1.00  0.00    -0.356 OA
HETATM   42  C1  UNL     1     -14.478  -0.681  31.255  1.00  0.00     0.210 C 
ENDBRANCH  39  41
ENDBRANCH  34  35
ENDBRANCH  32  34
ENDBRANCH  31  32
ENDBRANCH  30  31
BRANCH  30  43
HETATM   43  O2  UNL     1      -6.061  -2.863  34.545  1.00  0.00    -0.392 OA
ATOM     44  H2  UNL     1      -5.548  -3.555  34.945  1.00  0.00     0.210 HD
ENDBRANCH  30  43
ENDBRANCH  29  30
BRANCH  29  45
HETATM   45  C11 UNL     1      -5.028  -4.920  33.519  1.00  0.00     0.066 C 
BRANCH  45  46
HETATM   46  C12 UNL     1      -4.100  -5.967  33.054  1.00  0.00    -0.056 A 
HETATM   47  C13 UNL     1      -4.335  -6.642  31.879  1.00  0.00     0.007 A 
HETATM   48  C14 UNL     1      -3.471  -7.615  31.443  1.00  0.00     0.001 A 
HETATM   49  C15 UNL     1      -2.346  -7.921  32.198  1.00  0.00     0.000 A 
HETATM   50  C16 UNL     1      -2.122  -7.250  33.357  1.00  0.00     0.001 A 
HETATM   51  C17 UNL     1      -2.968  -6.272  33.818  1.00  0.00     0.007 A 
ENDBRANCH  45  46
ENDBRANCH  29  45
ENDBRANCH   1  29
TORSDOF 16
ENDMDL
