MODEL 15
REMARK VINA RESULT: -10.586611656      2.784      5.959
REMARK  16 active torsions:
REMARK  status: ('A' for Active; 'I' for Inactive)
REMARK    1  A    between atoms: O1_2  and  C2_3 
REMARK    2  A    between atoms: C6_7  and  C7_8 
REMARK    3  A    between atoms: C7_8  and  N1_9 
REMARK    4  A    between atoms: N1_9  and  C8_11 
REMARK    5  A    between atoms: C8_11  and  C9_12 
REMARK    6  A    between atoms: C9_12  and  O2_13 
REMARK    7  A    between atoms: C9_12  and  C10_15 
REMARK    8  A    between atoms: C10_15  and  C11_16 
REMARK    9  A    between atoms: C10_15  and  N2_23 
REMARK   10  A    between atoms: C11_16  and  C12_17 
REMARK       I    between atoms: N2_23  and  C18_25 
REMARK   11  A    between atoms: C18_25  and  C19_27 
REMARK   12  A    between atoms: C21_29  and  C22_30 
REMARK       I    between atoms: C22_30  and  N3_32 
REMARK   13  A    between atoms: N3_32  and  C23_34 
REMARK   14  A    between atoms: C23_34  and  C25_36 
REMARK   15  A    between atoms: C32_43  and  N4_44 
REMARK   16  A    between atoms: N4_44  and  S1_46 
ROOT
HETATM    1  N2  UNL     1      -3.172  -4.098  31.788  1.00  0.00    -0.349 N 
ATOM      2  H2  UNL     1      -2.459  -4.352  32.472  1.00  0.00     0.163 HD
HETATM    3  C18 UNL     1      -2.819  -3.716  30.464  1.00  0.00     0.252 C 
HETATM    4  O3  UNL     1      -3.710  -3.398  29.607  1.00  0.00    -0.268 OA
ENDROOT
BRANCH   3   5
HETATM    5  C19 UNL     1      -1.435  -3.670  30.014  1.00  0.00     0.035 A 
HETATM    6  C20 UNL     1      -1.003  -2.665  29.179  1.00  0.00     0.034 A 
HETATM    7  C21 UNL     1       0.297  -2.563  28.719  1.00  0.00     0.035 A 
HETATM    8  C31 UNL     1       1.208  -3.513  29.114  1.00  0.00     0.047 A 
HETATM    9  C32 UNL     1       0.819  -4.539  29.951  1.00  0.00     0.046 A 
HETATM   10  C35 UNL     1      -0.494  -4.599  30.386  1.00  0.00     0.047 A 
BRANCH   7  11
HETATM   11  C22 UNL     1       0.665  -1.466  27.819  1.00  0.00     0.252 C 
HETATM   12  O4  UNL     1       1.390  -0.531  28.255  1.00  0.00    -0.268 OA
HETATM   13  N3  UNL     1       0.259  -1.369  26.469  1.00  0.00    -0.349 N 
ATOM     14  H3  UNL     1      -0.325  -2.111  26.083  1.00  0.00     0.163 HD
BRANCH  13  15
HETATM   15  C23 UNL     1       0.633  -0.262  25.603  1.00  0.00     0.114 C 
HETATM   16  C24 UNL     1      -0.584  -0.005  24.720  1.00  0.00     0.037 C 
BRANCH  15  17
HETATM   17  C25 UNL     1       1.772  -0.607  24.722  1.00  0.00    -0.036 A 
HETATM   18  C26 UNL     1       2.560  -1.711  24.955  1.00  0.00     0.009 A 
HETATM   19  C27 UNL     1       3.629  -2.017  24.116  1.00  0.00     0.001 A 
HETATM   20  C28 UNL     1       3.930  -1.221  23.027  1.00  0.00     0.000 A 
HETATM   21  C29 UNL     1       3.148  -0.123  22.795  1.00  0.00     0.001 A 
HETATM   22  C30 UNL     1       2.092   0.173  23.629  1.00  0.00     0.009 A 
ENDBRANCH  15  17
ENDBRANCH  13  15
ENDBRANCH   7  11
BRANCH   9  23
HETATM   23  N4  UNL     1       1.790  -5.516  30.357  1.00  0.00    -0.281 N 
HETATM   24  C33 UNL     1       2.424  -6.375  29.399  1.00  0.00     0.169 C 
BRANCH  23  25
HETATM   25  S1  UNL     1       2.187  -5.641  32.031  1.00  0.00     0.228 S 
HETATM   26  C34 UNL     1       1.169  -6.870  32.805  1.00  0.00     0.186 C 
HETATM   27  O5  UNL     1       3.636  -5.995  32.209  1.00  0.00    -0.206 OA
HETATM   28  O6  UNL     1       1.941  -4.308  32.723  1.00  0.00    -0.206 OA
ENDBRANCH  23  25
ENDBRANCH   9  23
ENDBRANCH   3   5
BRANCH   1  29
HETATM   29  C10 UNL     1      -4.586  -4.114  32.132  1.00  0.00     0.119 C 
BRANCH  29  30
HETATM   30  C9  UNL     1      -5.035  -2.888  32.821  1.00  0.00     0.158 C 
BRANCH  30  31
HETATM   31  C8  UNL     1      -6.307  -3.062  33.602  1.00  0.00     0.147 C 
BRANCH  31  32
HETATM   32  N1  UNL     1      -7.294  -2.044  33.373  1.00  0.00    -0.415 N 
ATOM     33  H1  UNL     1      -7.521  -1.349  34.084  1.00  0.00     0.153 HD
BRANCH  32  34
HETATM   34  C7  UNL     1      -7.937  -2.053  32.108  1.00  0.00     0.153 C 
BRANCH  34  35
HETATM   35  C6  UNL     1      -9.392  -2.262  32.298  1.00  0.00    -0.038 A 
HETATM   36  C5  UNL     1     -10.288  -1.960  31.266  1.00  0.00     0.009 A 
HETATM   37  C4  UNL     1     -11.643  -2.124  31.372  1.00  0.00     0.003 A 
HETATM   38  C3  UNL     1     -12.175  -2.605  32.537  1.00  0.00     0.037 A 
HETATM   39  C2  UNL     1     -11.337  -2.913  33.573  1.00  0.00     0.068 A 
HETATM   40  C36 UNL     1      -9.976  -2.743  33.451  1.00  0.00     0.045 A 
BRANCH  39  41
HETATM   41  O1  UNL     1     -11.840  -3.398  34.757  1.00  0.00    -0.356 OA
HETATM   42  C1  UNL     1     -12.172  -4.777  34.880  1.00  0.00     0.210 C 
ENDBRANCH  39  41
ENDBRANCH  34  35
ENDBRANCH  32  34
ENDBRANCH  31  32
ENDBRANCH  30  31
BRANCH  30  43
HETATM   43  O2  UNL     1      -4.001  -2.368  33.594  1.00  0.00    -0.392 OA
ATOM     44  H2  UNL     1      -3.893  -1.432  33.477  1.00  0.00     0.210 HD
ENDBRANCH  30  43
ENDBRANCH  29  30
BRANCH  29  45
HETATM   45  C11 UNL     1      -4.757  -5.351  33.040  1.00  0.00     0.066 C 
BRANCH  45  46
HETATM   46  C12 UNL     1      -3.889  -6.479  32.655  1.00  0.00    -0.056 A 
HETATM   47  C13 UNL     1      -3.954  -7.013  31.389  1.00  0.00     0.007 A 
HETATM   48  C14 UNL     1      -3.145  -8.061  31.027  1.00  0.00     0.001 A 
HETATM   49  C15 UNL     1      -2.252  -8.588  31.951  1.00  0.00     0.000 A 
HETATM   50  C16 UNL     1      -2.194  -8.055  33.199  1.00  0.00     0.001 A 
HETATM   51  C17 UNL     1      -2.991  -7.006  33.588  1.00  0.00     0.007 A 
ENDBRANCH  45  46
ENDBRANCH  29  45
ENDBRANCH   1  29
TORSDOF 16
ENDMDL
