MODEL 4
REMARK VINA RESULT: -11.976546424      1.584      2.293
REMARK  16 active torsions:
REMARK  status: ('A' for Active; 'I' for Inactive)
REMARK    1  A    between atoms: O1_2  and  C2_3 
REMARK    2  A    between atoms: C6_7  and  C7_8 
REMARK    3  A    between atoms: C7_8  and  N1_9 
REMARK    4  A    between atoms: N1_9  and  C8_11 
REMARK    5  A    between atoms: C8_11  and  C9_12 
REMARK    6  A    between atoms: C9_12  and  O2_13 
REMARK    7  A    between atoms: C9_12  and  C10_15 
REMARK    8  A    between atoms: C10_15  and  C11_16 
REMARK    9  A    between atoms: C10_15  and  N2_23 
REMARK   10  A    between atoms: C11_16  and  C12_17 
REMARK       I    between atoms: N2_23  and  C18_25 
REMARK   11  A    between atoms: C18_25  and  C19_27 
REMARK   12  A    between atoms: C21_29  and  C22_30 
REMARK       I    between atoms: C22_30  and  N3_32 
REMARK   13  A    between atoms: N3_32  and  C23_34 
REMARK   14  A    between atoms: C23_34  and  C25_36 
REMARK   15  A    between atoms: C32_43  and  N4_44 
REMARK   16  A    between atoms: N4_44  and  S1_46 
ROOT
HETATM    1  N2  UNL     1      -3.701  -3.760  32.137  1.00  0.00    -0.349 N 
ATOM      2  H2  UNL     1      -2.895  -3.775  32.762  1.00  0.00     0.163 HD
HETATM    3  C18 UNL     1      -3.543  -3.565  30.737  1.00  0.00     0.252 C 
HETATM    4  O3  UNL     1      -4.550  -3.546  29.952  1.00  0.00    -0.268 OA
ENDROOT
BRANCH   3   5
HETATM    5  C19 UNL     1      -2.235  -3.381  30.123  1.00  0.00     0.035 A 
HETATM    6  C20 UNL     1      -1.158  -4.136  30.528  1.00  0.00     0.034 A 
HETATM    7  C21 UNL     1       0.107  -4.012  29.985  1.00  0.00     0.035 A 
HETATM    8  C31 UNL     1       0.304  -3.087  28.988  1.00  0.00     0.047 A 
HETATM    9  C32 UNL     1      -0.748  -2.308  28.549  1.00  0.00     0.046 A 
HETATM   10  C35 UNL     1      -1.997  -2.469  29.124  1.00  0.00     0.047 A 
BRANCH   7  11
HETATM   11  C22 UNL     1       1.200  -4.849  30.490  1.00  0.00     0.252 C 
HETATM   12  O4  UNL     1       1.978  -5.404  29.667  1.00  0.00    -0.268 OA
HETATM   13  N3  UNL     1       1.455  -5.091  31.859  1.00  0.00    -0.349 N 
ATOM     14  H3  UNL     1       0.847  -4.653  32.550  1.00  0.00     0.163 HD
BRANCH  13  15
HETATM   15  C23 UNL     1       2.543  -5.934  32.328  1.00  0.00     0.114 C 
HETATM   16  C24 UNL     1       1.886  -6.996  33.205  1.00  0.00     0.037 C 
BRANCH  15  17
HETATM   17  C25 UNL     1       3.507  -5.183  33.164  1.00  0.00    -0.036 A 
HETATM   18  C26 UNL     1       4.858  -5.194  32.900  1.00  0.00     0.009 A 
HETATM   19  C27 UNL     1       5.749  -4.483  33.700  1.00  0.00     0.001 A 
HETATM   20  C28 UNL     1       5.304  -3.747  34.781  1.00  0.00     0.000 A 
HETATM   21  C29 UNL     1       3.962  -3.736  35.045  1.00  0.00     0.001 A 
HETATM   22  C30 UNL     1       3.086  -4.441  34.249  1.00  0.00     0.009 A 
ENDBRANCH  15  17
ENDBRANCH  13  15
ENDBRANCH   7  11
BRANCH   9  23
HETATM   23  N4  UNL     1      -0.521  -1.353  27.501  1.00  0.00    -0.281 N 
HETATM   24  C33 UNL     1      -1.602  -0.864  26.696  1.00  0.00     0.169 C 
BRANCH  23  25
HETATM   25  S1  UNL     1       1.089  -0.799  27.223  1.00  0.00     0.228 S 
HETATM   26  C34 UNL     1       1.996  -2.009  26.296  1.00  0.00     0.186 C 
HETATM   27  O5  UNL     1       1.080   0.508  26.481  1.00  0.00    -0.206 OA
HETATM   28  O6  UNL     1       1.798  -0.580  28.552  1.00  0.00    -0.206 OA
ENDBRANCH  23  25
ENDBRANCH   9  23
ENDBRANCH   3   5
BRANCH   1  29
HETATM   29  C10 UNL     1      -5.053  -3.938  32.645  1.00  0.00     0.119 C 
BRANCH  29  30
HETATM   30  C9  UNL     1      -5.546  -2.780  33.416  1.00  0.00     0.158 C 
BRANCH  30  31
HETATM   31  C8  UNL     1      -6.073  -1.662  32.561  1.00  0.00     0.147 C 
BRANCH  31  32
HETATM   32  N1  UNL     1      -6.825  -0.667  33.274  1.00  0.00    -0.415 N 
ATOM     33  H1  UNL     1      -6.622  -0.438  34.247  1.00  0.00     0.153 HD
BRANCH  32  34
HETATM   34  C7  UNL     1      -7.864  -0.018  32.558  1.00  0.00     0.153 C 
BRANCH  34  35
HETATM   35  C6  UNL     1      -8.955  -0.983  32.290  1.00  0.00    -0.038 A 
HETATM   36  C5  UNL     1      -9.407  -1.191  30.982  1.00  0.00     0.009 A 
HETATM   37  C4  UNL     1     -10.413  -2.062  30.661  1.00  0.00     0.003 A 
HETATM   38  C3  UNL     1     -11.025  -2.780  31.652  1.00  0.00     0.037 A 
HETATM   39  C2  UNL     1     -10.616  -2.610  32.946  1.00  0.00     0.068 A 
HETATM   40  C36 UNL     1      -9.603  -1.728  33.253  1.00  0.00     0.045 A 
BRANCH  39  41
HETATM   41  O1  UNL     1     -11.211  -3.315  33.965  1.00  0.00    -0.356 OA
HETATM   42  C1  UNL     1     -12.122  -4.368  33.667  1.00  0.00     0.210 C 
ENDBRANCH  39  41
ENDBRANCH  34  35
ENDBRANCH  32  34
ENDBRANCH  31  32
ENDBRANCH  30  31
BRANCH  30  43
HETATM   43  O2  UNL     1      -6.466  -3.200  34.372  1.00  0.00    -0.392 OA
ATOM     44  H2  UNL     1      -6.058  -3.672  35.088  1.00  0.00     0.210 HD
ENDBRANCH  30  43
ENDBRANCH  29  30
BRANCH  29  45
HETATM   45  C11 UNL     1      -4.979  -5.200  33.531  1.00  0.00     0.066 C 
BRANCH  45  46
HETATM   46  C12 UNL     1      -4.034  -6.212  33.023  1.00  0.00    -0.056 A 
HETATM   47  C13 UNL     1      -4.249  -6.825  31.811  1.00  0.00     0.007 A 
HETATM   48  C14 UNL     1      -3.370  -7.765  31.333  1.00  0.00     0.001 A 
HETATM   49  C15 UNL     1      -2.252  -8.101  32.085  1.00  0.00     0.000 A 
HETATM   50  C16 UNL     1      -2.047  -7.491  33.281  1.00  0.00     0.001 A 
HETATM   51  C17 UNL     1      -2.909  -6.547  33.783  1.00  0.00     0.007 A 
ENDBRANCH  45  46
ENDBRANCH  29  45
ENDBRANCH   1  29
TORSDOF 16
ENDMDL
