MODEL 16
REMARK VINA RESULT: -10.574687456      2.726      5.829
REMARK  16 active torsions:
REMARK  status: ('A' for Active; 'I' for Inactive)
REMARK    1  A    between atoms: O1_2  and  C2_3 
REMARK    2  A    between atoms: C6_7  and  C7_8 
REMARK    3  A    between atoms: C7_8  and  N1_9 
REMARK    4  A    between atoms: N1_9  and  C8_11 
REMARK    5  A    between atoms: C8_11  and  C9_12 
REMARK    6  A    between atoms: C9_12  and  O2_13 
REMARK    7  A    between atoms: C9_12  and  C10_15 
REMARK    8  A    between atoms: C10_15  and  C11_16 
REMARK    9  A    between atoms: C10_15  and  N2_23 
REMARK   10  A    between atoms: C11_16  and  C12_17 
REMARK       I    between atoms: N2_23  and  C18_25 
REMARK   11  A    between atoms: C18_25  and  C19_27 
REMARK   12  A    between atoms: C21_29  and  C22_30 
REMARK       I    between atoms: C22_30  and  N3_32 
REMARK   13  A    between atoms: N3_32  and  C23_34 
REMARK   14  A    between atoms: C23_34  and  C25_36 
REMARK   15  A    between atoms: C32_43  and  N4_44 
REMARK   16  A    between atoms: N4_44  and  S1_46 
ROOT
HETATM    1  N2  UNL     1      -3.216  -4.076  31.822  1.00  0.00    -0.349 N 
ATOM      2  H2  UNL     1      -2.504  -4.291  32.520  1.00  0.00     0.163 HD
HETATM    3  C18 UNL     1      -2.860  -3.741  30.486  1.00  0.00     0.252 C 
HETATM    4  O3  UNL     1      -3.749  -3.471  29.611  1.00  0.00    -0.268 OA
ENDROOT
BRANCH   3   5
HETATM    5  C19 UNL     1      -1.473  -3.691  30.044  1.00  0.00     0.035 A 
HETATM    6  C20 UNL     1      -1.040  -2.684  29.212  1.00  0.00     0.034 A 
HETATM    7  C21 UNL     1       0.262  -2.578  28.758  1.00  0.00     0.035 A 
HETATM    8  C31 UNL     1       1.174  -3.526  29.158  1.00  0.00     0.047 A 
HETATM    9  C32 UNL     1       0.784  -4.553  29.993  1.00  0.00     0.046 A 
HETATM   10  C35 UNL     1      -0.532  -4.617  30.421  1.00  0.00     0.047 A 
BRANCH   7  11
HETATM   11  C22 UNL     1       0.632  -1.480  27.861  1.00  0.00     0.252 C 
HETATM   12  O4  UNL     1       1.366  -0.551  28.297  1.00  0.00    -0.268 OA
HETATM   13  N3  UNL     1       0.219  -1.375  26.513  1.00  0.00    -0.349 N 
ATOM     14  H3  UNL     1      -0.371  -2.112  26.128  1.00  0.00     0.163 HD
BRANCH  13  15
HETATM   15  C23 UNL     1       0.596  -0.267  25.650  1.00  0.00     0.114 C 
HETATM   16  C24 UNL     1      -0.624   0.000  24.773  1.00  0.00     0.037 C 
BRANCH  15  17
HETATM   17  C25 UNL     1       1.728  -0.614  24.762  1.00  0.00    -0.036 A 
HETATM   18  C26 UNL     1       2.047   0.148  23.661  1.00  0.00     0.009 A 
HETATM   19  C27 UNL     1       3.115  -0.197  22.837  1.00  0.00     0.001 A 
HETATM   20  C28 UNL     1       3.886  -1.314  23.099  1.00  0.00     0.000 A 
HETATM   21  C29 UNL     1       3.571  -2.072  24.193  1.00  0.00     0.001 A 
HETATM   22  C30 UNL     1       2.512  -1.724  25.005  1.00  0.00     0.009 A 
ENDBRANCH  15  17
ENDBRANCH  13  15
ENDBRANCH   7  11
BRANCH   9  23
HETATM   23  N4  UNL     1       1.755  -5.527  30.404  1.00  0.00    -0.281 N 
HETATM   24  C33 UNL     1       2.375  -6.403  29.453  1.00  0.00     0.169 C 
BRANCH  23  25
HETATM   25  S1  UNL     1       2.169  -5.627  32.075  1.00  0.00     0.228 S 
HETATM   26  C34 UNL     1       1.134  -6.818  32.886  1.00  0.00     0.186 C 
HETATM   27  O5  UNL     1       3.612  -6.010  32.243  1.00  0.00    -0.206 OA
HETATM   28  O6  UNL     1       1.961  -4.276  32.742  1.00  0.00    -0.206 OA
ENDBRANCH  23  25
ENDBRANCH   9  23
ENDBRANCH   3   5
BRANCH   1  29
HETATM   29  C10 UNL     1      -4.632  -4.101  32.157  1.00  0.00     0.119 C 
BRANCH  29  30
HETATM   30  C9  UNL     1      -5.092  -2.880  32.849  1.00  0.00     0.158 C 
BRANCH  30  31
HETATM   31  C8  UNL     1      -6.397  -3.050  33.575  1.00  0.00     0.147 C 
BRANCH  31  32
HETATM   32  N1  UNL     1      -7.383  -2.050  33.273  1.00  0.00    -0.415 N 
ATOM     33  H1  UNL     1      -7.520  -1.236  33.871  1.00  0.00     0.153 HD
BRANCH  32  34
HETATM   34  C7  UNL     1      -8.157  -2.251  32.100  1.00  0.00     0.153 C 
BRANCH  34  35
HETATM   35  C6  UNL     1      -9.596  -2.219  32.449  1.00  0.00    -0.038 A 
HETATM   36  C5  UNL     1      -9.996  -2.033  33.778  1.00  0.00     0.009 A 
HETATM   37  C4  UNL     1     -11.305  -1.998  34.173  1.00  0.00     0.003 A 
HETATM   38  C3  UNL     1     -12.296  -2.149  33.242  1.00  0.00     0.037 A 
HETATM   39  C2  UNL     1     -11.953  -2.333  31.931  1.00  0.00     0.068 A 
HETATM   40  C36 UNL     1     -10.630  -2.367  31.549  1.00  0.00     0.045 A 
BRANCH  39  41
HETATM   41  O1  UNL     1     -12.924  -2.490  30.971  1.00  0.00    -0.356 OA
HETATM   42  C1  UNL     1     -12.774  -1.871  29.697  1.00  0.00     0.210 C 
ENDBRANCH  39  41
ENDBRANCH  34  35
ENDBRANCH  32  34
ENDBRANCH  31  32
ENDBRANCH  30  31
BRANCH  30  43
HETATM   43  O2  UNL     1      -4.083  -2.389  33.672  1.00  0.00    -0.392 OA
ATOM     44  H2  UNL     1      -3.936  -1.459  33.553  1.00  0.00     0.210 HD
ENDBRANCH  30  43
ENDBRANCH  29  30
BRANCH  29  45
HETATM   45  C11 UNL     1      -4.803  -5.343  33.058  1.00  0.00     0.066 C 
BRANCH  45  46
HETATM   46  C12 UNL     1      -3.907  -6.455  32.690  1.00  0.00    -0.056 A 
HETATM   47  C13 UNL     1      -2.996  -6.949  33.594  1.00  0.00     0.007 A 
HETATM   48  C14 UNL     1      -2.162  -7.986  33.255  1.00  0.00     0.001 A 
HETATM   49  C15 UNL     1      -2.240  -8.541  31.985  1.00  0.00     0.000 A 
HETATM   50  C16 UNL     1      -3.144  -8.047  31.098  1.00  0.00     0.001 A 
HETATM   51  C17 UNL     1      -3.990  -7.012  31.410  1.00  0.00     0.007 A 
ENDBRANCH  45  46
ENDBRANCH  29  45
ENDBRANCH   1  29
TORSDOF 16
ENDMDL
