MODEL 7
REMARK VINA RESULT: -11.852259005      2.309      3.267
REMARK  16 active torsions:
REMARK  status: ('A' for Active; 'I' for Inactive)
REMARK    1  A    between atoms: O1_2  and  C2_3 
REMARK    2  A    between atoms: C6_7  and  C7_8 
REMARK    3  A    between atoms: C7_8  and  N1_9 
REMARK    4  A    between atoms: N1_9  and  C8_11 
REMARK    5  A    between atoms: C8_11  and  C9_12 
REMARK    6  A    between atoms: C9_12  and  O2_13 
REMARK    7  A    between atoms: C9_12  and  C10_15 
REMARK    8  A    between atoms: C10_15  and  C11_16 
REMARK    9  A    between atoms: C10_15  and  N2_23 
REMARK   10  A    between atoms: C11_16  and  C12_17 
REMARK       I    between atoms: N2_23  and  C18_25 
REMARK   11  A    between atoms: C18_25  and  C19_27 
REMARK   12  A    between atoms: C21_29  and  C22_30 
REMARK       I    between atoms: C22_30  and  N3_32 
REMARK   13  A    between atoms: N3_32  and  C23_34 
REMARK   14  A    between atoms: C23_34  and  C25_36 
REMARK   15  A    between atoms: C32_43  and  N4_44 
REMARK   16  A    between atoms: N4_44  and  S1_46 
ROOT
HETATM    1  N2  UNL     1      -3.722  -3.225  31.846  1.00  0.00    -0.349 N 
ATOM      2  H2  UNL     1      -2.971  -3.142  32.531  1.00  0.00     0.163 HD
HETATM    3  C18 UNL     1      -3.446  -3.235  30.450  1.00  0.00     0.252 C 
HETATM    4  O3  UNL     1      -4.383  -3.338  29.590  1.00  0.00    -0.268 OA
ENDROOT
BRANCH   3   5
HETATM    5  C19 UNL     1      -2.090  -3.132  29.928  1.00  0.00     0.035 A 
HETATM    6  C20 UNL     1      -1.092  -3.950  30.405  1.00  0.00     0.034 A 
HETATM    7  C21 UNL     1       0.213  -3.904  29.949  1.00  0.00     0.035 A 
HETATM    8  C31 UNL     1       0.533  -2.995  28.969  1.00  0.00     0.047 A 
HETATM    9  C32 UNL     1      -0.437  -2.155  28.461  1.00  0.00     0.046 A 
HETATM   10  C35 UNL     1      -1.730  -2.238  28.949  1.00  0.00     0.047 A 
BRANCH   7  11
HETATM   11  C22 UNL     1       1.216  -4.804  30.526  1.00  0.00     0.252 C 
HETATM   12  O4  UNL     1       1.962  -5.467  29.755  1.00  0.00    -0.268 OA
HETATM   13  N3  UNL     1       1.416  -4.995  31.912  1.00  0.00    -0.349 N 
ATOM     14  H3  UNL     1       0.832  -4.471  32.563  1.00  0.00     0.163 HD
BRANCH  13  15
HETATM   15  C23 UNL     1       2.414  -5.903  32.454  1.00  0.00     0.114 C 
HETATM   16  C24 UNL     1       1.666  -6.787  33.447  1.00  0.00     0.037 C 
BRANCH  15  17
HETATM   17  C25 UNL     1       3.476  -5.184  33.193  1.00  0.00    -0.036 A 
HETATM   18  C26 UNL     1       4.795  -5.235  32.800  1.00  0.00     0.009 A 
HETATM   19  C27 UNL     1       5.780  -4.554  33.511  1.00  0.00     0.001 A 
HETATM   20  C28 UNL     1       5.463  -3.807  34.630  1.00  0.00     0.000 A 
HETATM   21  C29 UNL     1       4.154  -3.755  35.021  1.00  0.00     0.001 A 
HETATM   22  C30 UNL     1       3.184  -4.433  34.313  1.00  0.00     0.009 A 
ENDBRANCH  15  17
ENDBRANCH  13  15
ENDBRANCH   7  11
BRANCH   9  23
HETATM   23  N4  UNL     1      -0.081  -1.219  27.432  1.00  0.00    -0.281 N 
HETATM   24  C33 UNL     1       0.958  -0.252  27.635  1.00  0.00     0.169 C 
BRANCH  23  25
HETATM   25  S1  UNL     1      -0.932  -1.277  25.933  1.00  0.00     0.228 S 
HETATM   26  C34 UNL     1       0.129  -0.749  24.612  1.00  0.00     0.186 C 
HETATM   27  O5  UNL     1      -1.431  -2.667  25.659  1.00  0.00    -0.206 OA
HETATM   28  O6  UNL     1      -2.136  -0.347  25.983  1.00  0.00    -0.206 OA
ENDBRANCH  23  25
ENDBRANCH   9  23
ENDBRANCH   3   5
BRANCH   1  29
HETATM   29  C10 UNL     1      -5.112  -3.338  32.260  1.00  0.00     0.119 C 
BRANCH  29  30
HETATM   30  C9  UNL     1      -5.703  -2.053  32.686  1.00  0.00     0.158 C 
BRANCH  30  31
HETATM   31  C8  UNL     1      -7.005  -1.731  32.010  1.00  0.00     0.147 C 
BRANCH  31  32
HETATM   32  N1  UNL     1      -8.127  -1.615  32.899  1.00  0.00    -0.415 N 
ATOM     33  H1  UNL     1      -8.077  -1.928  33.868  1.00  0.00     0.153 HD
BRANCH  32  34
HETATM   34  C7  UNL     1      -9.310  -1.044  32.363  1.00  0.00     0.153 C 
BRANCH  34  35
HETATM   35  C6  UNL     1     -10.423  -2.015  32.481  1.00  0.00    -0.038 A 
HETATM   36  C5  UNL     1     -11.567  -1.876  31.686  1.00  0.00     0.009 A 
HETATM   37  C4  UNL     1     -12.634  -2.731  31.746  1.00  0.00     0.003 A 
HETATM   38  C3  UNL     1     -12.608  -3.784  32.619  1.00  0.00     0.037 A 
HETATM   39  C2  UNL     1     -11.510  -3.959  33.416  1.00  0.00     0.068 A 
HETATM   40  C36 UNL     1     -10.444  -3.089  33.345  1.00  0.00     0.045 A 
BRANCH  39  41
HETATM   41  O1  UNL     1     -11.452  -5.006  34.304  1.00  0.00    -0.356 OA
HETATM   42  C1  UNL     1     -12.328  -5.040  35.427  1.00  0.00     0.210 C 
ENDBRANCH  39  41
ENDBRANCH  34  35
ENDBRANCH  32  34
ENDBRANCH  31  32
ENDBRANCH  30  31
BRANCH  30  43
HETATM   43  O2  UNL     1      -5.795  -2.007  34.074  1.00  0.00    -0.392 OA
ATOM     44  H2  UNL     1      -5.800  -1.119  34.410  1.00  0.00     0.210 HD
ENDBRANCH  30  43
ENDBRANCH  29  30
BRANCH  29  45
HETATM   45  C11 UNL     1      -5.097  -4.351  33.425  1.00  0.00     0.066 C 
BRANCH  45  46
HETATM   46  C12 UNL     1      -4.257  -5.532  33.155  1.00  0.00    -0.056 A 
HETATM   47  C13 UNL     1      -3.311  -5.942  34.066  1.00  0.00     0.007 A 
HETATM   48  C14 UNL     1      -2.529  -7.044  33.819  1.00  0.00     0.001 A 
HETATM   49  C15 UNL     1      -2.697  -7.751  32.636  1.00  0.00     0.000 A 
HETATM   50  C16 UNL     1      -3.634  -7.340  31.742  1.00  0.00     0.001 A 
HETATM   51  C17 UNL     1      -4.429  -6.242  31.962  1.00  0.00     0.007 A 
ENDBRANCH  45  46
ENDBRANCH  29  45
ENDBRANCH   1  29
TORSDOF 16
ENDMDL
