MODEL 3
REMARK VINA RESULT: -4.806299883      4.129      6.429
REMARK  6 active torsions:
REMARK  status: ('A' for Active; 'I' for Inactive)
REMARK       I    between atoms: C2_2  and  N1_4 
REMARK    1  A    between atoms: N1_4  and  C3_6 
REMARK    2  A    between atoms: C4_7  and  O2_8 
REMARK    3  A    between atoms: C5_11  and  C6_12 
REMARK    4  A    between atoms: C6_12  and  O4_13 
REMARK    5  A    between atoms: C7_15  and  O5_16 
REMARK    6  A    between atoms: C8_18  and  O6_19 
ROOT
HETATM    1  C3  UNL     1      12.086   9.873 120.606  1.00  0.00     0.170 C 
HETATM    2  C4  UNL     1      11.788   9.492 122.012  1.00  0.00     0.282 C 
HETATM    3  O3  UNL     1      10.762  10.135 122.623  1.00  0.00    -0.349 OA
HETATM    4  C5  UNL     1       9.667  10.434 121.876  1.00  0.00     0.179 C 
HETATM    5  C7  UNL     1       9.652   9.838 120.500  1.00  0.00     0.180 C 
HETATM    6  C8  UNL     1      10.908  10.353 119.819  1.00  0.00     0.177 C 
ENDROOT
BRANCH   1   7
HETATM    7  N1  UNL     1      13.194  10.810 120.540  1.00  0.00    -0.349 N 
HETATM    8  C2  UNL     1      14.186  10.803 119.537  1.00  0.00     0.214 C 
HETATM    9  C1  UNL     1      15.315  11.780 119.496  1.00  0.00     0.117 C 
HETATM   10  O1  UNL     1      14.117   9.936 118.640  1.00  0.00    -0.274 OA
ATOM     11  H1  UNL     1      13.260  11.521 121.269  1.00  0.00     0.163 HD
ENDBRANCH   1   7
BRANCH   2  12
HETATM   12  O2  UNL     1      11.653   8.089 122.131  1.00  0.00    -0.369 OA
ATOM     13  H2  UNL     1      12.362   7.645 121.680  1.00  0.00     0.212 HD
ENDBRANCH   2  12
BRANCH   6  14
HETATM   14  O6  UNL     1      10.958   9.976 118.482  1.00  0.00    -0.391 OA
ATOM     15  H6  UNL     1      10.621  10.644 117.896  1.00  0.00     0.210 HD
ENDBRANCH   6  14
BRANCH   5  16
HETATM   16  O5  UNL     1       9.620   8.464 120.492  1.00  0.00    -0.390 OA
ATOM     17  H5  UNL     1       9.055   8.098 119.823  1.00  0.00     0.210 HD
ENDBRANCH   5  16
BRANCH   4  18
HETATM   18  C6  UNL     1       8.401  10.128 122.649  1.00  0.00     0.198 C 
BRANCH  18  19
HETATM   19  O4  UNL     1       7.412   9.594 121.829  1.00  0.00    -0.398 OA
ATOM     20  H4  UNL     1       6.619  10.118 121.845  1.00  0.00     0.209 HD
ENDBRANCH  18  19
ENDBRANCH   4  18
TORSDOF 6
ENDMDL
