MODEL 2
REMARK VINA RESULT: -4.886668831      2.527      6.545
REMARK  6 active torsions:
REMARK  status: ('A' for Active; 'I' for Inactive)
REMARK       I    between atoms: C2_2  and  N1_4 
REMARK    1  A    between atoms: N1_4  and  C3_6 
REMARK    2  A    between atoms: C4_7  and  O2_8 
REMARK    3  A    between atoms: C5_11  and  C6_12 
REMARK    4  A    between atoms: C6_12  and  O4_13 
REMARK    5  A    between atoms: C7_15  and  O5_16 
REMARK    6  A    between atoms: C8_18  and  O6_19 
ROOT
HETATM    1  C3  UNL     1       9.253   9.644 122.425  1.00  0.00     0.170 C 
HETATM    2  C4  UNL     1       9.382   9.703 120.944  1.00  0.00     0.282 C 
HETATM    3  O3  UNL     1      10.280  10.583 120.437  1.00  0.00    -0.349 OA
HETATM    4  C5  UNL     1      11.447  10.760 121.113  1.00  0.00     0.179 C 
HETATM    5  C7  UNL     1      11.678   9.805 122.246  1.00  0.00     0.180 C 
HETATM    6  C8  UNL     1      10.496   9.990 123.182  1.00  0.00     0.177 C 
ENDROOT
BRANCH   1   7
HETATM    7  N1  UNL     1       8.113  10.419 122.882  1.00  0.00    -0.349 N 
HETATM    8  C2  UNL     1       7.297  10.067 123.979  1.00  0.00     0.214 C 
HETATM    9  C1  UNL     1       6.130  10.884 124.426  1.00  0.00     0.117 C 
HETATM   10  O1  UNL     1       7.565   9.020 124.606  1.00  0.00    -0.274 OA
ATOM     11  H1  UNL     1       7.886  11.275 122.377  1.00  0.00     0.163 HD
ENDBRANCH   1   7
BRANCH   2  12
HETATM   12  O2  UNL     1       9.579   8.409 120.409  1.00  0.00    -0.369 OA
ATOM     13  H2  UNL     1       9.128   7.757 120.934  1.00  0.00     0.212 HD
ENDBRANCH   2  12
BRANCH   6  14
HETATM   14  O6  UNL     1      10.645   9.249 124.349  1.00  0.00    -0.391 OA
ATOM     15  H6  UNL     1      10.331   9.706 125.120  1.00  0.00     0.210 HD
ENDBRANCH   6  14
BRANCH   5  16
HETATM   16  O5  UNL     1      11.787   8.493 121.850  1.00  0.00    -0.390 OA
ATOM     17  H5  UNL     1      12.551   8.317 121.314  1.00  0.00     0.210 HD
ENDBRANCH   5  16
BRANCH   4  18
HETATM   18  C6  UNL     1      12.614  10.801 120.149  1.00  0.00     0.198 C 
BRANCH  18  19
HETATM   19  O4  UNL     1      12.518   9.807 119.178  1.00  0.00    -0.398 OA
ATOM     20  H4  UNL     1      11.898   9.131 119.427  1.00  0.00     0.209 HD
ENDBRANCH  18  19
ENDBRANCH   4  18
TORSDOF 6
ENDMDL
