MODEL 4
REMARK VINA RESULT: -4.453502511      2.753      3.906
REMARK  6 active torsions:
REMARK  status: ('A' for Active; 'I' for Inactive)
REMARK       I    between atoms: C2_2  and  N1_4 
REMARK    1  A    between atoms: N1_4  and  C3_6 
REMARK    2  A    between atoms: C4_7  and  O2_8 
REMARK    3  A    between atoms: C5_11  and  C6_12 
REMARK    4  A    between atoms: C6_12  and  O4_13 
REMARK    5  A    between atoms: C7_15  and  O5_16 
REMARK    6  A    between atoms: C8_18  and  O6_19 
ROOT
HETATM    1  C3  UNL     1       5.509  10.469 125.397  1.00  0.00     0.170 C 
HETATM    2  C4  UNL     1       4.063  10.767 125.213  1.00  0.00     0.282 C 
HETATM    3  O3  UNL     1       3.543  11.783 125.946  1.00  0.00    -0.349 OA
HETATM    4  C5  UNL     1       4.322  12.877 126.155  1.00  0.00     0.179 C 
HETATM    5  C7  UNL     1       5.604  12.905 125.378  1.00  0.00     0.180 C 
HETATM    6  C8  UNL     1       6.351  11.645 125.780  1.00  0.00     0.177 C 
ENDROOT
BRANCH   1   7
HETATM    7  N1  UNL     1       5.703   9.351 126.302  1.00  0.00    -0.349 N 
HETATM    8  C2  UNL     1       6.730   8.392 126.177  1.00  0.00     0.214 C 
HETATM    9  C1  UNL     1       6.905   7.251 127.124  1.00  0.00     0.117 C 
HETATM   10  O1  UNL     1       7.532   8.504 125.226  1.00  0.00    -0.274 OA
ATOM     11  H1  UNL     1       5.052   9.251 127.082  1.00  0.00     0.163 HD
ENDBRANCH   1   7
BRANCH   2  12
HETATM   12  O2  UNL     1       3.755  10.919 123.842  1.00  0.00    -0.369 OA
ATOM     13  H2  UNL     1       4.434  11.414 123.399  1.00  0.00     0.212 HD
ENDBRANCH   2  12
BRANCH   6  14
HETATM   14  O6  UNL     1       7.625  11.604 125.225  1.00  0.00    -0.391 OA
ATOM     15  H6  UNL     1       7.762  12.271 124.563  1.00  0.00     0.210 HD
ENDBRANCH   6  14
BRANCH   5  16
HETATM   16  O5  UNL     1       5.425  12.953 124.016  1.00  0.00    -0.390 OA
ATOM     17  H5  UNL     1       5.620  13.801 123.634  1.00  0.00     0.210 HD
ENDBRANCH   5  16
BRANCH   4  18
HETATM   18  C6  UNL     1       3.512  14.144 125.972  1.00  0.00     0.198 C 
BRANCH  18  19
HETATM   19  O4  UNL     1       2.637  14.046 124.894  1.00  0.00    -0.398 OA
ATOM     20  H4  UNL     1       2.570  14.866 124.418  1.00  0.00     0.209 HD
ENDBRANCH  18  19
ENDBRANCH   4  18
TORSDOF 6
ENDMDL
