MODEL 1
REMARK VINA RESULT: -4.945800281      0.000      0.000
REMARK  6 active torsions:
REMARK  status: ('A' for Active; 'I' for Inactive)
REMARK       I    between atoms: C2_2  and  N1_4 
REMARK    1  A    between atoms: N1_4  and  C3_6 
REMARK    2  A    between atoms: C4_7  and  O2_8 
REMARK    3  A    between atoms: C5_11  and  C6_12 
REMARK    4  A    between atoms: C6_12  and  O4_13 
REMARK    5  A    between atoms: C7_15  and  O5_16 
REMARK    6  A    between atoms: C8_18  and  O6_19 
ROOT
HETATM    1  C3  UNL     1       6.768  10.200 123.956  1.00  0.00     0.170 C 
HETATM    2  C4  UNL     1       7.245   9.817 125.312  1.00  0.00     0.282 C 
HETATM    3  O3  UNL     1       7.097  10.734 126.300  1.00  0.00    -0.349 OA
HETATM    4  C5  UNL     1       5.974  11.499 126.293  1.00  0.00     0.179 C 
HETATM    5  C7  UNL     1       4.935  11.097 125.289  1.00  0.00     0.180 C 
HETATM    6  C8  UNL     1       5.626  11.168 123.938  1.00  0.00     0.177 C 
ENDROOT
BRANCH   1   7
HETATM    7  N1  UNL     1       7.868  10.651 123.122  1.00  0.00    -0.349 N 
HETATM    8  C2  UNL     1       8.550   9.837 122.193  1.00  0.00     0.214 C 
HETATM    9  C1  UNL     1       9.678  10.329 121.348  1.00  0.00     0.117 C 
HETATM   10  O1  UNL     1       8.192   8.647 122.072  1.00  0.00    -0.274 OA
ATOM     11  H1  UNL     1       8.167  11.622 123.213  1.00  0.00     0.163 HD
ENDBRANCH   1   7
BRANCH   2  12
HETATM   12  O2  UNL     1       6.710   8.565 125.693  1.00  0.00    -0.369 OA
ATOM     13  H2  UNL     1       6.667   7.978 124.948  1.00  0.00     0.212 HD
ENDBRANCH   2  12
BRANCH   6  14
HETATM   14  O6  UNL     1       4.737  10.939 122.894  1.00  0.00    -0.391 OA
ATOM     15  H6  UNL     1       3.831  11.076 123.143  1.00  0.00     0.210 HD
ENDBRANCH   6  14
BRANCH   5  16
HETATM   16  O5  UNL     1       4.411   9.845 125.505  1.00  0.00    -0.390 OA
ATOM     17  H5  UNL     1       5.068   9.169 125.617  1.00  0.00     0.210 HD
ENDBRANCH   5  16
BRANCH   4  18
HETATM   18  C6  UNL     1       5.406  11.616 127.692  1.00  0.00     0.198 C 
BRANCH  18  19
HETATM   19  O4  UNL     1       5.171  10.366 128.260  1.00  0.00    -0.398 OA
ATOM     20  H4  UNL     1       4.265  10.097 128.157  1.00  0.00     0.209 HD
ENDBRANCH  18  19
ENDBRANCH   4  18
TORSDOF 6
ENDMDL
