MODEL 2
REMARK VINA RESULT: -4.066024252      1.392      2.952
REMARK  6 active torsions:
REMARK  status: ('A' for Active; 'I' for Inactive)
REMARK    1  A    between atoms: O1_2  and  C2_3 
REMARK    2  A    between atoms: C3_5  and  C4_6 
REMARK    3  A    between atoms: C4_6  and  O3_7 
REMARK    4  A    between atoms: C5_9  and  O4_10 
REMARK    5  A    between atoms: C6_12  and  O5_13 
REMARK    6  A    between atoms: C7_15  and  O6_16 
ROOT
HETATM    1  C2  UNL     1       5.361  10.773   5.381  1.00  0.00     0.290 C 
HETATM    2  O2  UNL     1       5.922   9.722   4.724  1.00  0.00    -0.349 OA
HETATM    3  C3  UNL     1       7.275   9.618   4.744  1.00  0.00     0.179 C 
HETATM    4  C5  UNL     1       7.986  10.426   5.767  1.00  0.00     0.180 C 
HETATM    5  C6  UNL     1       7.218  10.509   7.052  1.00  0.00     0.183 C 
HETATM    6  C7  UNL     1       5.805  10.924   6.814  1.00  0.00     0.204 C 
ENDROOT
BRANCH   3   7
HETATM    7  C4  UNL     1       7.603   8.136   4.967  1.00  0.00     0.198 C 
BRANCH   7   8
HETATM    8  O3  UNL     1       7.518   7.527   3.717  1.00  0.00    -0.398 OA
ATOM      9  H3  UNL     1       7.699   8.206   3.078  1.00  0.00     0.209 HD
ENDBRANCH   7   8
ENDBRANCH   3   7
BRANCH   4  10
HETATM   10  O4  UNL     1       9.202   9.766   6.064  1.00  0.00    -0.390 OA
ATOM     11  H4  UNL     1       9.873  10.431   6.168  1.00  0.00     0.210 HD
ENDBRANCH   4  10
BRANCH   1  12
HETATM   12  O1  UNL     1       3.976  10.631   5.278  1.00  0.00    -0.363 OA
HETATM   13  C1  UNL     1       3.602   9.837   4.205  1.00  0.00     0.204 C 
ENDBRANCH   1  12
BRANCH   5  14
HETATM   14  O5  UNL     1       7.292   9.300   7.759  1.00  0.00    -0.390 OA
ATOM     15  H5  UNL     1       6.425   8.944   7.915  1.00  0.00     0.210 HD
ENDBRANCH   5  14
BRANCH   6  16
HETATM   16  O6  UNL     1       5.701  12.284   7.139  1.00  0.00    -0.388 OA
ATOM     17  H6  UNL     1       4.777  12.478   7.243  1.00  0.00     0.210 HD
ENDBRANCH   6  16
TORSDOF 6
ENDMDL
