MODEL 3
REMARK VINA RESULT: -4.029541797      1.331      3.130
REMARK  6 active torsions:
REMARK  status: ('A' for Active; 'I' for Inactive)
REMARK    1  A    between atoms: O1_2  and  C2_3 
REMARK    2  A    between atoms: C3_5  and  C4_6 
REMARK    3  A    between atoms: C4_6  and  O3_7 
REMARK    4  A    between atoms: C5_9  and  O4_10 
REMARK    5  A    between atoms: C6_12  and  O5_13 
REMARK    6  A    between atoms: C7_15  and  O6_16 
ROOT
HETATM    1  C2  UNL     1       4.593  11.012   5.021  1.00  0.00     0.290 C 
HETATM    2  O2  UNL     1       5.544  10.294   4.365  1.00  0.00    -0.349 OA
HETATM    3  C3  UNL     1       6.842  10.616   4.592  1.00  0.00     0.179 C 
HETATM    4  C5  UNL     1       7.119  11.450   5.789  1.00  0.00     0.180 C 
HETATM    5  C6  UNL     1       6.217  11.105   6.935  1.00  0.00     0.183 C 
HETATM    6  C7  UNL     1       4.785  11.087   6.514  1.00  0.00     0.204 C 
ENDROOT
BRANCH   3   7
HETATM    7  C4  UNL     1       7.611   9.295   4.721  1.00  0.00     0.198 C 
BRANCH   7   8
HETATM    8  O3  UNL     1       6.659   8.315   4.992  1.00  0.00    -0.398 OA
ATOM      9  H3  UNL     1       6.195   8.164   4.178  1.00  0.00     0.209 HD
ENDBRANCH   7   8
ENDBRANCH   3   7
BRANCH   4  10
HETATM   10  O4  UNL     1       8.439  11.168   6.213  1.00  0.00    -0.390 OA
ATOM     11  H4  UNL     1       8.521  11.459   7.113  1.00  0.00     0.210 HD
ENDBRANCH   4  10
BRANCH   1  12
HETATM   12  O1  UNL     1       3.355  10.461   4.684  1.00  0.00    -0.363 OA
HETATM   13  C1  UNL     1       3.471   9.386   3.817  1.00  0.00     0.204 C 
ENDBRANCH   1  12
BRANCH   5  14
HETATM   14  O5  UNL     1       6.599   9.891   7.525  1.00  0.00    -0.390 OA
ATOM     15  H5  UNL     1       6.820  10.014   8.441  1.00  0.00     0.210 HD
ENDBRANCH   5  14
BRANCH   6  16
HETATM   16  O6  UNL     1       4.201  12.285   6.948  1.00  0.00    -0.388 OA
ATOM     17  H6  UNL     1       3.261  12.150   6.966  1.00  0.00     0.210 HD
ENDBRANCH   6  16
TORSDOF 6
ENDMDL
