MODEL 1
REMARK VINA RESULT: -4.098977672      0.000      0.000
REMARK  6 active torsions:
REMARK  status: ('A' for Active; 'I' for Inactive)
REMARK    1  A    between atoms: O1_2  and  C2_3 
REMARK    2  A    between atoms: C3_5  and  C4_6 
REMARK    3  A    between atoms: C4_6  and  O3_7 
REMARK    4  A    between atoms: C5_9  and  O4_10 
REMARK    5  A    between atoms: C6_12  and  O5_13 
REMARK    6  A    between atoms: C7_15  and  O6_16 
ROOT
HETATM    1  C2  UNL     1       5.935  11.014   6.564  1.00  0.00     0.290 C 
HETATM    2  O2  UNL     1       5.018  10.962   5.561  1.00  0.00    -0.349 OA
HETATM    3  C3  UNL     1       5.481  10.890   4.288  1.00  0.00     0.179 C 
HETATM    4  C5  UNL     1       6.906  10.503   4.123  1.00  0.00     0.180 C 
HETATM    5  C6  UNL     1       7.335   9.489   5.140  1.00  0.00     0.183 C 
HETATM    6  C7  UNL     1       6.970   9.918   6.522  1.00  0.00     0.204 C 
ENDROOT
BRANCH   3   7
HETATM    7  C4  UNL     1       4.603   9.869   3.553  1.00  0.00     0.198 C 
BRANCH   7   8
HETATM    8  O3  UNL     1       3.980   9.110   4.541  1.00  0.00    -0.398 OA
ATOM      9  H3  UNL     1       3.630   8.343   4.105  1.00  0.00     0.209 HD
ENDBRANCH   7   8
ENDBRANCH   3   7
BRANCH   4  10
HETATM   10  O4  UNL     1       7.039   9.888   2.856  1.00  0.00    -0.390 OA
ATOM     11  H4  UNL     1       6.339  10.215   2.302  1.00  0.00     0.210 HD
ENDBRANCH   4  10
BRANCH   1  12
HETATM   12  O1  UNL     1       5.230  11.016   7.769  1.00  0.00    -0.363 OA
HETATM   13  C1  UNL     1       4.508  12.183   7.959  1.00  0.00     0.204 C 
ENDBRANCH   1  12
BRANCH   5  14
HETATM   14  O5  UNL     1       6.815   8.223   4.835  1.00  0.00    -0.390 OA
ATOM     15  H5  UNL     1       7.514   7.594   4.697  1.00  0.00     0.210 HD
ENDBRANCH   5  14
BRANCH   6  16
HETATM   16  O6  UNL     1       8.129  10.417   7.132  1.00  0.00    -0.388 OA
ATOM     17  H6  UNL     1       8.179  10.032   7.998  1.00  0.00     0.210 HD
ENDBRANCH   6  16
TORSDOF 6
ENDMDL
