MODEL 15
REMARK VINA RESULT: -5.644563531      2.713      3.739
REMARK  5 active torsions:
REMARK  status: ('A' for Active; 'I' for Inactive)
REMARK    1  A    between atoms: O1_1  and  C1_3 
REMARK    2  A    between atoms: C1_3  and  C2_4 
REMARK    3  A    between atoms: C3_5  and  O2_6 
REMARK    4  A    between atoms: C4_8  and  O3_9 
REMARK    5  A    between atoms: C5_11  and  O4_12 
ROOT
HETATM    1  C2  UNL     1      29.835  45.456  -5.238  1.00  0.00     0.145 C 
HETATM    2  C3  UNL     1      28.846  45.927  -4.199  1.00  0.00     0.175 C 
HETATM    3  C4  UNL     1      29.715  46.601  -3.127  1.00  0.00     0.185 C 
HETATM    4  C5  UNL     1      30.170  47.906  -3.728  1.00  0.00     0.217 C 
HETATM    5  C6  UNL     1      30.523  47.737  -5.145  1.00  0.00     0.115 A 
HETATM    6  N1  UNL     1      31.057  48.702  -5.955  1.00  0.00    -0.352 N 
ATOM      7  H1  UNL     1      31.274  49.655  -5.666  1.00  0.00     0.166 HD
HETATM    8  C7  UNL     1      31.254  48.210  -7.180  1.00  0.00     0.106 A 
HETATM    9  C8  UNL     1      30.827  46.901  -7.123  1.00  0.00     0.110 A 
HETATM   10  N2  UNL     1      30.382  46.621  -5.872  1.00  0.00    -0.334 N 
ENDROOT
BRANCH   1  11
HETATM   11  C1  UNL     1      29.277  44.437  -6.167  1.00  0.00     0.192 C 
BRANCH  11  12
HETATM   12  O1  UNL     1      29.474  43.177  -5.625  1.00  0.00    -0.399 OA
ATOM     13  H1  UNL     1      28.934  42.551  -6.093  1.00  0.00     0.209 HD
ENDBRANCH  11  12
ENDBRANCH   1  11
BRANCH   2  14
HETATM   14  O2  UNL     1      28.085  44.912  -3.676  1.00  0.00    -0.391 OA
ATOM     15  H2  UNL     1      28.445  44.548  -2.875  1.00  0.00     0.210 HD
ENDBRANCH   2  14
BRANCH   3  16
HETATM   16  O3  UNL     1      29.054  46.734  -1.936  1.00  0.00    -0.390 OA
ATOM     17  H3  UNL     1      29.348  46.101  -1.291  1.00  0.00     0.210 HD
ENDBRANCH   3  16
BRANCH   4  18
HETATM   18  O4  UNL     1      29.098  48.821  -3.680  1.00  0.00    -0.385 OA
ATOM     19  H4  UNL     1      29.267  49.449  -2.988  1.00  0.00     0.210 HD
ENDBRANCH   4  18
TORSDOF 5
ENDMDL
