MODEL 10
REMARK VINA RESULT: -5.825581360      2.436      3.683
REMARK  5 active torsions:
REMARK  status: ('A' for Active; 'I' for Inactive)
REMARK    1  A    between atoms: O1_1  and  C1_3 
REMARK    2  A    between atoms: C1_3  and  C2_4 
REMARK    3  A    between atoms: C3_5  and  O2_6 
REMARK    4  A    between atoms: C4_8  and  O3_9 
REMARK    5  A    between atoms: C5_11  and  O4_12 
ROOT
HETATM    1  C2  UNL     1      29.660  45.803  -4.491  1.00  0.00     0.145 C 
HETATM    2  C3  UNL     1      28.354  45.894  -3.741  1.00  0.00     0.175 C 
HETATM    3  C4  UNL     1      28.750  46.418  -2.353  1.00  0.00     0.185 C 
HETATM    4  C5  UNL     1      29.093  47.872  -2.545  1.00  0.00     0.217 C 
HETATM    5  C6  UNL     1      29.846  48.074  -3.792  1.00  0.00     0.115 A 
HETATM    6  N1  UNL     1      30.386  49.258  -4.215  1.00  0.00    -0.352 N 
ATOM      7  H1  UNL     1      30.327  50.142  -3.710  1.00  0.00     0.166 HD
HETATM    8  C7  UNL     1      31.000  49.085  -5.386  1.00  0.00     0.106 A 
HETATM    9  C8  UNL     1      30.834  47.752  -5.695  1.00  0.00     0.110 A 
HETATM   10  N2  UNL     1      30.126  47.142  -4.711  1.00  0.00    -0.334 N 
ENDROOT
BRANCH   1  11
HETATM   11  C1  UNL     1      29.584  44.955  -5.711  1.00  0.00     0.192 C 
BRANCH  11  12
HETATM   12  O1  UNL     1      29.661  43.622  -5.339  1.00  0.00    -0.399 OA
ATOM     13  H1  UNL     1      29.262  43.088  -6.016  1.00  0.00     0.209 HD
ENDBRANCH  11  12
ENDBRANCH   1  11
BRANCH   2  14
HETATM   14  O2  UNL     1      27.688  44.696  -3.664  1.00  0.00    -0.391 OA
ATOM     15  H2  UNL     1      28.268  43.944  -3.673  1.00  0.00     0.210 HD
ENDBRANCH   2  14
BRANCH   3  16
HETATM   16  O3  UNL     1      27.776  46.191  -1.418  1.00  0.00    -0.390 OA
ATOM     17  H3  UNL     1      27.540  45.273  -1.363  1.00  0.00     0.210 HD
ENDBRANCH   3  16
BRANCH   4  18
HETATM   18  O4  UNL     1      27.894  48.604  -2.668  1.00  0.00    -0.385 OA
ATOM     19  H4  UNL     1      27.292  48.109  -3.211  1.00  0.00     0.210 HD
ENDBRANCH   4  18
TORSDOF 5
ENDMDL
