MODEL 2
REMARK VINA RESULT: -6.871122345      2.007      2.718
REMARK  5 active torsions:
REMARK  status: ('A' for Active; 'I' for Inactive)
REMARK    1  A    between atoms: O1_1  and  C1_3 
REMARK    2  A    between atoms: C1_3  and  C2_4 
REMARK    3  A    between atoms: C3_5  and  O2_6 
REMARK    4  A    between atoms: C4_8  and  O3_9 
REMARK    5  A    between atoms: C5_11  and  O4_12 
ROOT
HETATM    1  C2  UNL     1      26.559  47.634  -2.056  1.00  0.00     0.145 C 
HETATM    2  C3  UNL     1      27.418  48.144  -0.924  1.00  0.00     0.175 C 
HETATM    3  C4  UNL     1      27.765  46.884  -0.117  1.00  0.00     0.185 C 
HETATM    4  C5  UNL     1      28.771  46.129  -0.946  1.00  0.00     0.217 C 
HETATM    5  C6  UNL     1      28.413  46.168  -2.371  1.00  0.00     0.115 A 
HETATM    6  N1  UNL     1      29.064  45.507  -3.377  1.00  0.00    -0.352 N 
ATOM      7  H1  UNL     1      29.878  44.906  -3.251  1.00  0.00     0.166 HD
HETATM    8  C7  UNL     1      28.476  45.764  -4.546  1.00  0.00     0.106 A 
HETATM    9  C8  UNL     1      27.429  46.611  -4.252  1.00  0.00     0.110 A 
HETATM   10  N2  UNL     1      27.399  46.852  -2.917  1.00  0.00    -0.334 N 
ENDROOT
BRANCH   1  11
HETATM   11  C1  UNL     1      25.783  48.705  -2.738  1.00  0.00     0.192 C 
BRANCH  11  12
HETATM   12  O1  UNL     1      26.654  49.704  -3.144  1.00  0.00    -0.399 OA
ATOM     13  H1  UNL     1      26.158  50.497  -3.309  1.00  0.00     0.209 HD
ENDBRANCH  11  12
ENDBRANCH   1  11
BRANCH   2  14
HETATM   14  O2  UNL     1      26.792  49.089  -0.152  1.00  0.00    -0.391 OA
ATOM     15  H2  UNL     1      25.852  49.121  -0.286  1.00  0.00     0.210 HD
ENDBRANCH   2  14
BRANCH   3  16
HETATM   16  O3  UNL     1      28.196  47.185   1.148  1.00  0.00    -0.390 OA
ATOM     17  H3  UNL     1      28.642  46.453   1.557  1.00  0.00     0.210 HD
ENDBRANCH   3  16
BRANCH   4  18
HETATM   18  O4  UNL     1      30.024  46.763  -0.822  1.00  0.00    -0.385 OA
ATOM     19  H4  UNL     1      30.366  46.931  -1.692  1.00  0.00     0.210 HD
ENDBRANCH   4  18
TORSDOF 5
ENDMDL
