MODEL 4
REMARK VINA RESULT: -3.605997831      2.026      2.924
REMARK  6 active torsions:
REMARK  status: ('A' for Active; 'I' for Inactive)
REMARK    1  A    between atoms: O1_2  and  C2_3 
REMARK    2  A    between atoms: C3_5  and  C4_6 
REMARK    3  A    between atoms: C4_6  and  O3_7 
REMARK    4  A    between atoms: C5_9  and  O4_10 
REMARK    5  A    between atoms: C6_12  and  O5_13 
REMARK    6  A    between atoms: C7_15  and  O6_16 
ROOT
HETATM    1  C2  UNL     1      -2.571 -17.851   5.980  1.00  0.00     0.290 C 
HETATM    2  O2  UNL     1      -3.240 -17.038   6.842  1.00  0.00    -0.349 OA
HETATM    3  C3  UNL     1      -2.803 -15.760   6.968  1.00  0.00     0.179 C 
HETATM    4  C5  UNL     1      -1.892 -15.263   5.906  1.00  0.00     0.180 C 
HETATM    5  C6  UNL     1      -2.254 -15.806   4.556  1.00  0.00     0.183 C 
HETATM    6  C7  UNL     1      -2.408 -17.289   4.590  1.00  0.00     0.204 C 
ENDROOT
BRANCH   3   7
HETATM    7  C4  UNL     1      -4.049 -14.867   7.010  1.00  0.00     0.198 C 
BRANCH   7   8
HETATM    8  O3  UNL     1      -3.819 -13.926   8.011  1.00  0.00    -0.398 OA
ATOM      9  H3  UNL     1      -4.663 -13.537   8.209  1.00  0.00     0.209 HD
ENDBRANCH   7   8
ENDBRANCH   3   7
BRANCH   4  10
HETATM   10  O4  UNL     1      -2.045 -13.859   5.832  1.00  0.00    -0.390 OA
ATOM     11  H4  UNL     1      -1.399 -13.468   6.408  1.00  0.00     0.210 HD
ENDBRANCH   4  10
BRANCH   1  12
HETATM   12  O1  UNL     1      -3.237 -19.078   5.969  1.00  0.00    -0.363 OA
HETATM   13  C1  UNL     1      -4.493 -18.996   5.389  1.00  0.00     0.204 C 
ENDBRANCH   1  12
BRANCH   5  14
HETATM   14  O5  UNL     1      -3.403 -15.175   4.055  1.00  0.00    -0.390 OA
ATOM     15  H5  UNL     1      -3.514 -15.360   3.130  1.00  0.00     0.210 HD
ENDBRANCH   5  14
BRANCH   6  16
HETATM   16  O6  UNL     1      -1.242 -17.850   4.050  1.00  0.00    -0.388 OA
ATOM     17  H6  UNL     1      -1.262 -17.691   3.113  1.00  0.00     0.210 HD
ENDBRANCH   6  16
TORSDOF 6
ENDMDL
