MODEL 3
REMARK VINA RESULT: -7.342111206      1.317      2.010
REMARK  7 active torsions:
REMARK  status: ('A' for Active; 'I' for Inactive)
REMARK    1  A    between atoms: N5_13  and  C6_14 
REMARK    2  A    between atoms: C7_16  and  C8_17 
REMARK    3  A    between atoms: C8_17  and  O2_18 
REMARK    4  A    between atoms: O2_18  and  P1_19 
REMARK    5  A    between atoms: C9_23  and  O6_24 
REMARK    6  A    between atoms: C10_26  and  O7_27 
REMARK    7  A    between atoms: O7_27  and  P2_28 
ROOT
HETATM    1  C6  UNL     1     -13.234  59.006   9.903  1.00  0.00     0.263 C 
HETATM    2  O1  UNL     1     -13.299  60.330  10.252  1.00  0.00    -0.353 OA
HETATM    3  C7  UNL     1     -14.611  60.723  10.309  1.00  0.00     0.180 C 
HETATM    4  C9  UNL     1     -15.330  59.474  10.777  1.00  0.00     0.183 C 
HETATM    5  C10 UNL     1     -14.661  58.489   9.804  1.00  0.00     0.216 C 
ENDROOT
BRANCH   1   6
HETATM    6  N5  UNL     1     -12.582  58.247  10.956  1.00  0.00    -0.297 N 
HETATM    7  C3  UNL     1     -11.538  58.615  11.714  1.00  0.00     0.142 A 
HETATM    8  N3  UNL     1     -10.829  59.749  11.709  1.00  0.00    -0.336 N 
HETATM    9  C4  UNL     1     -11.211  57.616  12.607  1.00  0.00     0.119 A 
HETATM   10  C2  UNL     1      -9.821  59.888  12.567  1.00  0.00     0.183 A 
ATOM     11  H3  UNL     1     -11.058  60.498  11.056  1.00  0.00     0.168 HD
HETATM   12  N2  UNL     1      -9.449  58.954  13.464  1.00  0.00    -0.339 N 
HETATM   13  C1  UNL     1     -10.157  57.809  13.476  1.00  0.00     0.148 A 
ATOM     14  H2  UNL     1      -8.669  59.108  14.104  1.00  0.00     0.167 HD
HETATM   15  N1  UNL     1      -9.846  56.758  14.385  1.00  0.00    -0.080 NA
HETATM   16  N4  UNL     1     -12.088  56.623  12.374  1.00  0.00    -0.346 N 
HETATM   17  C5  UNL     1     -12.915  57.001  11.380  1.00  0.00     0.188 A 
ATOM     18  H4  UNL     1     -12.121  55.731  12.867  1.00  0.00     0.167 HD
ENDBRANCH   1   6
BRANCH   5  19
HETATM   19  O7  UNL     1     -15.172  58.791   8.564  1.00  0.00    -0.270 OA
BRANCH  19  20
HETATM   20  P2  UNL     1     -16.305  57.719   7.992  1.00  0.00     0.422 P 
HETATM   21  O8  UNL     1     -16.582  56.657   9.022  1.00  0.00    -0.617 OA
HETATM   22  O9  UNL     1     -15.906  57.061   6.488  1.00  0.00    -0.617 OA
HETATM   23  O10 UNL     1     -17.760  58.594   7.766  1.00  0.00    -0.617 OA
ENDBRANCH  19  20
ENDBRANCH   5  19
BRANCH   3  24
HETATM   24  C8  UNL     1     -14.861  61.895  11.207  1.00  0.00     0.217 C 
BRANCH  24  25
HETATM   25  O2  UNL     1     -15.383  61.547  12.434  1.00  0.00    -0.280 OA
BRANCH  25  26
HETATM   26  P1  UNL     1     -14.241  62.033  13.611  1.00  0.00     0.422 P 
HETATM   27  O3  UNL     1     -12.883  61.507  13.265  1.00  0.00    -0.617 OA
HETATM   28  O4  UNL     1     -14.244  63.712  13.788  1.00  0.00    -0.617 OA
HETATM   29  O5  UNL     1     -14.770  61.376  15.096  1.00  0.00    -0.617 OA
ENDBRANCH  25  26
ENDBRANCH  24  25
ENDBRANCH   3  24
BRANCH   4  30
HETATM   30  O6  UNL     1     -16.692  59.528  10.583  1.00  0.00    -0.390 OA
ATOM     31  H6  UNL     1     -17.190  59.235  11.337  1.00  0.00     0.210 HD
ENDBRANCH   4  30
TORSDOF 7
ENDMDL
