MODEL 2
REMARK VINA RESULT: -7.345780460      3.737      5.973
REMARK  7 active torsions:
REMARK  status: ('A' for Active; 'I' for Inactive)
REMARK    1  A    between atoms: N5_13  and  C6_14 
REMARK    2  A    between atoms: C7_16  and  C8_17 
REMARK    3  A    between atoms: C8_17  and  O2_18 
REMARK    4  A    between atoms: O2_18  and  P1_19 
REMARK    5  A    between atoms: C9_23  and  O6_24 
REMARK    6  A    between atoms: C10_26  and  O7_27 
REMARK    7  A    between atoms: O7_27  and  P2_28 
ROOT
HETATM    1  C6  UNL     1     -12.620  57.491  11.230  1.00  0.00     0.263 C 
HETATM    2  O1  UNL     1     -12.055  57.107  12.418  1.00  0.00    -0.353 OA
HETATM    3  C7  UNL     1     -11.693  58.219  13.133  1.00  0.00     0.180 C 
HETATM    4  C9  UNL     1     -12.746  59.239  12.749  1.00  0.00     0.183 C 
HETATM    5  C10 UNL     1     -12.692  59.010  11.229  1.00  0.00     0.216 C 
ENDROOT
BRANCH   1   6
HETATM    6  N5  UNL     1     -13.985  57.003  11.151  1.00  0.00    -0.297 N 
HETATM    7  C3  UNL     1     -14.953  57.389  10.306  1.00  0.00     0.142 A 
HETATM    8  N3  UNL     1     -14.929  58.305   9.331  1.00  0.00    -0.336 N 
HETATM    9  C4  UNL     1     -16.115  56.687  10.545  1.00  0.00     0.119 A 
HETATM   10  C2  UNL     1     -16.029  58.519   8.614  1.00  0.00     0.183 A 
ATOM     11  H3  UNL     1     -14.077  58.833   9.140  1.00  0.00     0.168 HD
HETATM   12  N2  UNL     1     -17.196  57.870   8.795  1.00  0.00    -0.339 N 
HETATM   13  C1  UNL     1     -17.229  56.947   9.773  1.00  0.00     0.148 A 
ATOM     14  H2  UNL     1     -18.013  58.068   8.217  1.00  0.00     0.167 HD
HETATM   15  N1  UNL     1     -18.413  56.204  10.047  1.00  0.00    -0.080 NA
HETATM   16  N4  UNL     1     -15.831  55.857  11.564  1.00  0.00    -0.346 N 
HETATM   17  C5  UNL     1     -14.549  56.045  11.930  1.00  0.00     0.188 A 
ATOM     18  H4  UNL     1     -16.479  55.194  11.990  1.00  0.00     0.167 HD
ENDBRANCH   1   6
BRANCH   5  19
HETATM   19  O7  UNL     1     -11.484  59.525  10.821  1.00  0.00    -0.270 OA
BRANCH  19  20
HETATM   20  P2  UNL     1     -11.585  60.900   9.895  1.00  0.00     0.422 P 
HETATM   21  O8  UNL     1     -10.762  60.747   8.645  1.00  0.00    -0.617 OA
HETATM   22  O9  UNL     1     -11.200  62.309  10.744  1.00  0.00    -0.617 OA
HETATM   23  O10 UNL     1     -13.218  61.062   9.406  1.00  0.00    -0.617 OA
ENDBRANCH  19  20
ENDBRANCH   5  19
BRANCH   3  24
HETATM   24  C8  UNL     1     -11.624  58.001  14.613  1.00  0.00     0.217 C 
BRANCH  24  25
HETATM   25  O2  UNL     1     -10.402  58.326  15.161  1.00  0.00    -0.280 OA
BRANCH  25  26
HETATM   26  P1  UNL     1     -10.578  59.870  15.876  1.00  0.00     0.422 P 
HETATM   27  O3  UNL     1     -12.025  60.166  16.122  1.00  0.00    -0.617 OA
HETATM   28  O4  UNL     1      -9.660  59.980  17.289  1.00  0.00    -0.617 OA
HETATM   29  O5  UNL     1      -9.923  60.992  14.769  1.00  0.00    -0.617 OA
ENDBRANCH  25  26
ENDBRANCH  24  25
ENDBRANCH   3  24
BRANCH   4  30
HETATM   30  O6  UNL     1     -12.397  60.529  13.078  1.00  0.00    -0.390 OA
ATOM     31  H6  UNL     1     -12.511  61.142  12.362  1.00  0.00     0.210 HD
ENDBRANCH   4  30
TORSDOF 7
ENDMDL
