MODEL 2
REMARK VINA RESULT: -6.274399441      4.258      5.590
REMARK  6 active torsions:
REMARK  status: ('A' for Active; 'I' for Inactive)
REMARK    1  A    between atoms: N1_2  and  C3_4 
REMARK    2  A    between atoms: C3_4  and  C4_5 
REMARK    3  A    between atoms: C4_5  and  O1_6 
REMARK    4  A    between atoms: O1_6  and  P1_7 
REMARK    5  A    between atoms: P1_7  and  O4_10 
REMARK    6  A    between atoms: O4_10  and  P2_11 
ROOT
HETATM    1  P1  UNL     1      -2.530  -0.251  19.542  1.00  0.00     0.418 P 
HETATM    2  O2  UNL     1      -3.551   0.858  18.910  1.00  0.00    -0.624 OA
HETATM    3  O3  UNL     1      -1.941   0.023  21.047  1.00  0.00    -0.624 OA
ENDROOT
BRANCH   1   4
HETATM    4  O1  UNL     1      -1.317   0.382  18.835  1.00  0.00    -0.288 OA
BRANCH   4   5
HETATM    5  C4  UNL     1      -0.551  -0.386  17.964  1.00  0.00     0.211 C 
BRANCH   5   6
HETATM    6  C3  UNL     1       0.126  -1.395  18.859  1.00  0.00     0.298 C 
BRANCH   6   7
HETATM    7  N1  UNL     1       1.029  -2.255  18.167  1.00  0.00     0.082 N 
HETATM    8  C1  UNL     1       2.313  -1.556  18.040  1.00  0.00     0.309 C 
HETATM    9  C2  UNL     1       0.569  -2.527  16.822  1.00  0.00     0.309 C 
ENDBRANCH   6   7
ENDBRANCH   5   6
ENDBRANCH   4   5
ENDBRANCH   1   4
BRANCH   1  10
HETATM   10  O4  UNL     1      -3.700  -1.089  20.089  1.00  0.00    -0.173 OA
BRANCH  10  11
HETATM   11  P2  UNL     1      -4.138  -2.530  19.768  1.00  0.00     0.431 P 
HETATM   12  O5  UNL     1      -3.025  -2.846  18.634  1.00  0.00    -0.616 OA
HETATM   13  O6  UNL     1      -4.932  -3.858  19.607  1.00  0.00    -0.616 OA
HETATM   14  O7  UNL     1      -5.567  -1.770  19.265  1.00  0.00    -0.616 OA
ENDBRANCH  10  11
ENDBRANCH   1  10
TORSDOF 6
ENDMDL
