MODEL 4
REMARK VINA RESULT: -6.231649922      4.081      5.324
REMARK  6 active torsions:
REMARK  status: ('A' for Active; 'I' for Inactive)
REMARK    1  A    between atoms: N1_2  and  C3_4 
REMARK    2  A    between atoms: C3_4  and  C4_5 
REMARK    3  A    between atoms: C4_5  and  O1_6 
REMARK    4  A    between atoms: O1_6  and  P1_7 
REMARK    5  A    between atoms: P1_7  and  O4_10 
REMARK    6  A    between atoms: O4_10  and  P2_11 
ROOT
HETATM    1  P1  UNL     1      -2.413  -0.831  19.372  1.00  0.00     0.418 P 
HETATM    2  O2  UNL     1      -3.675  -0.012  18.732  1.00  0.00    -0.624 OA
HETATM    3  O3  UNL     1      -1.591  -0.126  20.603  1.00  0.00    -0.624 OA
ENDROOT
BRANCH   1   4
HETATM    4  O1  UNL     1      -1.452  -0.308  18.288  1.00  0.00    -0.288 OA
BRANCH   4   5
HETATM    5  C4  UNL     1      -0.224  -0.933  18.100  1.00  0.00     0.211 C 
BRANCH   5   6
HETATM    6  C3  UNL     1      -0.454  -1.853  16.926  1.00  0.00     0.298 C 
BRANCH   6   7
HETATM    7  N1  UNL     1       0.409  -2.989  16.915  1.00  0.00     0.082 N 
HETATM    8  C1  UNL     1       0.066  -3.828  18.069  1.00  0.00     0.309 C 
HETATM    9  C2  UNL     1       1.793  -2.599  17.079  1.00  0.00     0.309 C 
ENDBRANCH   6   7
ENDBRANCH   5   6
ENDBRANCH   4   5
ENDBRANCH   1   4
BRANCH   1  10
HETATM   10  O4  UNL     1      -3.336  -1.589  20.345  1.00  0.00    -0.173 OA
BRANCH  10  11
HETATM   11  P2  UNL     1      -4.308  -2.758  20.100  1.00  0.00     0.431 P 
HETATM   12  O5  UNL     1      -4.099  -3.513  21.518  1.00  0.00    -0.616 OA
HETATM   13  O6  UNL     1      -5.227  -3.838  19.462  1.00  0.00    -0.616 OA
HETATM   14  O7  UNL     1      -3.224  -3.133  18.852  1.00  0.00    -0.616 OA
ENDBRANCH  10  11
ENDBRANCH   1  10
TORSDOF 6
ENDMDL
