MODEL 1
REMARK VINA RESULT: -6.729082666      0.000      0.000
REMARK  6 active torsions:
REMARK  status: ('A' for Active; 'I' for Inactive)
REMARK    1  A    between atoms: N1_2  and  C3_4 
REMARK    2  A    between atoms: C3_4  and  C4_5 
REMARK    3  A    between atoms: C4_5  and  O1_6 
REMARK    4  A    between atoms: O1_6  and  P1_7 
REMARK    5  A    between atoms: P1_7  and  O4_10 
REMARK    6  A    between atoms: O4_10  and  P2_11 
ROOT
HETATM    1  P1  UNL     1      -3.789  -2.305  19.479  1.00  0.00     0.418 P 
HETATM    2  O2  UNL     1      -5.377  -1.934  19.380  1.00  0.00    -0.624 OA
HETATM    3  O3  UNL     1      -2.853  -2.009  18.166  1.00  0.00    -0.624 OA
ENDROOT
BRANCH   1   4
HETATM    4  O1  UNL     1      -4.051  -3.773  19.095  1.00  0.00    -0.288 OA
BRANCH   4   5
HETATM    5  C4  UNL     1      -5.090  -4.468  19.703  1.00  0.00     0.211 C 
BRANCH   5   6
HETATM    6  C3  UNL     1      -4.428  -5.698  20.274  1.00  0.00     0.298 C 
BRANCH   6   7
HETATM    7  N1  UNL     1      -4.633  -5.856  21.677  1.00  0.00     0.082 N 
HETATM    8  C1  UNL     1      -6.032  -6.242  21.889  1.00  0.00     0.309 C 
HETATM    9  C2  UNL     1      -4.433  -4.608  22.382  1.00  0.00     0.309 C 
ENDBRANCH   6   7
ENDBRANCH   5   6
ENDBRANCH   4   5
ENDBRANCH   1   4
BRANCH   1  10
HETATM   10  O4  UNL     1      -3.457  -0.934  20.098  1.00  0.00    -0.173 OA
BRANCH  10  11
HETATM   11  P2  UNL     1      -2.424   0.130  19.681  1.00  0.00     0.431 P 
HETATM   12  O5  UNL     1      -1.841   0.453  21.158  1.00  0.00    -0.616 OA
HETATM   13  O6  UNL     1      -1.622   1.232  18.932  1.00  0.00    -0.616 OA
HETATM   14  O7  UNL     1      -3.803   0.982  19.186  1.00  0.00    -0.616 OA
ENDBRANCH  10  11
ENDBRANCH   1  10
TORSDOF 6
ENDMDL
