MODEL 11
REMARK VINA RESULT: -6.079198045      1.506      2.350
REMARK  6 active torsions:
REMARK  status: ('A' for Active; 'I' for Inactive)
REMARK    1  A    between atoms: N1_2  and  C3_4 
REMARK    2  A    between atoms: C3_4  and  C4_5 
REMARK    3  A    between atoms: C4_5  and  O1_6 
REMARK    4  A    between atoms: O1_6  and  P1_7 
REMARK    5  A    between atoms: P1_7  and  O4_10 
REMARK    6  A    between atoms: O4_10  and  P2_11 
ROOT
HETATM    1  P1  UNL     1      -3.618  -2.506  19.558  1.00  0.00     0.418 P 
HETATM    2  O2  UNL     1      -4.866  -1.504  19.227  1.00  0.00    -0.624 OA
HETATM    3  O3  UNL     1      -3.583  -3.958  18.798  1.00  0.00    -0.624 OA
ENDROOT
BRANCH   1   4
HETATM    4  O1  UNL     1      -4.323  -3.059  20.811  1.00  0.00    -0.288 OA
BRANCH   4   5
HETATM    5  C4  UNL     1      -3.649  -3.947  21.643  1.00  0.00     0.211 C 
BRANCH   5   6
HETATM    6  C3  UNL     1      -4.750  -4.723  22.323  1.00  0.00     0.298 C 
BRANCH   6   7
HETATM    7  N1  UNL     1      -5.476  -5.576  21.439  1.00  0.00     0.082 N 
HETATM    8  C1  UNL     1      -6.284  -6.490  22.255  1.00  0.00     0.309 C 
HETATM    9  C2  UNL     1      -4.583  -6.398  20.652  1.00  0.00     0.309 C 
ENDBRANCH   6   7
ENDBRANCH   5   6
ENDBRANCH   4   5
ENDBRANCH   1   4
BRANCH   1  10
HETATM   10  O4  UNL     1      -2.741  -1.852  18.475  1.00  0.00    -0.173 OA
BRANCH  10  11
HETATM   11  P2  UNL     1      -1.250  -1.463  18.492  1.00  0.00     0.431 P 
HETATM   12  O5  UNL     1      -1.447   0.146  18.483  1.00  0.00    -0.616 OA
HETATM   13  O6  UNL     1       0.299  -1.450  18.363  1.00  0.00    -0.616 OA
HETATM   14  O7  UNL     1      -1.236  -2.253  16.992  1.00  0.00    -0.616 OA
ENDBRANCH  10  11
ENDBRANCH   1  10
TORSDOF 6
ENDMDL
