MODEL 6
REMARK VINA RESULT: -6.191085919      1.202      1.807
REMARK  6 active torsions:
REMARK  status: ('A' for Active; 'I' for Inactive)
REMARK    1  A    between atoms: N1_2  and  C3_4 
REMARK    2  A    between atoms: C3_4  and  C4_5 
REMARK    3  A    between atoms: C4_5  and  O1_6 
REMARK    4  A    between atoms: O1_6  and  P1_7 
REMARK    5  A    between atoms: P1_7  and  O4_10 
REMARK    6  A    between atoms: O4_10  and  P2_11 
ROOT
HETATM    1  P1  UNL     1      -2.411  -2.377  19.064  1.00  0.00     0.418 P 
HETATM    2  O2  UNL     1      -3.587  -1.663  18.183  1.00  0.00    -0.624 OA
HETATM    3  O3  UNL     1      -0.950  -2.595  18.352  1.00  0.00    -0.624 OA
ENDROOT
BRANCH   1   4
HETATM    4  O1  UNL     1      -2.917  -3.785  18.700  1.00  0.00    -0.288 OA
BRANCH   4   5
HETATM    5  C4  UNL     1      -4.078  -4.272  19.293  1.00  0.00     0.211 C 
BRANCH   5   6
HETATM    6  C3  UNL     1      -3.888  -3.988  20.763  1.00  0.00     0.298 C 
BRANCH   6   7
HETATM    7  N1  UNL     1      -4.104  -5.127  21.595  1.00  0.00     0.082 N 
HETATM    8  C1  UNL     1      -4.846  -6.124  20.815  1.00  0.00     0.309 C 
HETATM    9  C2  UNL     1      -4.928  -4.795  22.737  1.00  0.00     0.309 C 
ENDBRANCH   6   7
ENDBRANCH   5   6
ENDBRANCH   4   5
ENDBRANCH   1   4
BRANCH   1  10
HETATM   10  O4  UNL     1      -1.979  -1.030  19.671  1.00  0.00    -0.173 OA
BRANCH  10  11
HETATM   11  P2  UNL     1      -2.803   0.226  20.013  1.00  0.00     0.431 P 
HETATM   12  O5  UNL     1      -2.097   1.240  18.964  1.00  0.00    -0.616 OA
HETATM   13  O6  UNL     1      -3.700   1.290  20.707  1.00  0.00    -0.616 OA
HETATM   14  O7  UNL     1      -2.072   0.045  21.532  1.00  0.00    -0.616 OA
ENDBRANCH  10  11
ENDBRANCH   1  10
TORSDOF 6
ENDMDL
