MODEL 8
REMARK VINA RESULT: -6.125362481      3.974      5.358
REMARK  6 active torsions:
REMARK  status: ('A' for Active; 'I' for Inactive)
REMARK    1  A    between atoms: N1_2  and  C3_4 
REMARK    2  A    between atoms: C3_4  and  C4_5 
REMARK    3  A    between atoms: C4_5  and  O1_6 
REMARK    4  A    between atoms: O1_6  and  P1_7 
REMARK    5  A    between atoms: P1_7  and  O4_10 
REMARK    6  A    between atoms: O4_10  and  P2_11 
ROOT
HETATM    1  P1  UNL     1      -3.302  -1.412  19.152  1.00  0.00     0.418 P 
HETATM    2  O2  UNL     1      -4.364  -0.479  18.332  1.00  0.00    -0.624 OA
HETATM    3  O3  UNL     1      -2.780  -0.874  20.610  1.00  0.00    -0.624 OA
ENDROOT
BRANCH   1   4
HETATM    4  O1  UNL     1      -2.104  -0.819  18.385  1.00  0.00    -0.288 OA
BRANCH   4   5
HETATM    5  C4  UNL     1      -0.810  -1.104  18.807  1.00  0.00     0.211 C 
BRANCH   5   6
HETATM    6  C3  UNL     1      -0.187  -1.814  17.631  1.00  0.00     0.298 C 
BRANCH   6   7
HETATM    7  N1  UNL     1       0.667  -2.895  18.004  1.00  0.00     0.082 N 
HETATM    8  C1  UNL     1       1.763  -2.962  17.032  1.00  0.00     0.309 C 
HETATM    9  C2  UNL     1      -0.029  -4.162  17.937  1.00  0.00     0.309 C 
ENDBRANCH   6   7
ENDBRANCH   5   6
ENDBRANCH   4   5
ENDBRANCH   1   4
BRANCH   1  10
HETATM   10  O4  UNL     1      -4.439  -2.227  19.794  1.00  0.00    -0.173 OA
BRANCH  10  11
HETATM   11  P2  UNL     1      -4.550  -3.736  20.086  1.00  0.00     0.431 P 
HETATM   12  O5  UNL     1      -3.993  -3.702  21.608  1.00  0.00    -0.616 OA
HETATM   13  O6  UNL     1      -4.656  -5.283  19.974  1.00  0.00    -0.616 OA
HETATM   14  O7  UNL     1      -3.406  -3.856  18.842  1.00  0.00    -0.616 OA
ENDBRANCH  10  11
ENDBRANCH   1  10
TORSDOF 6
ENDMDL
