MODEL 10
REMARK VINA RESULT: -7.410463008      1.861      3.243
REMARK  4 active torsions:
REMARK  status: ('A' for Active; 'I' for Inactive)
REMARK       I    between atoms: C1_2  and  N3_6 
REMARK    1  A    between atoms: N3_6  and  C2_8 
REMARK    2  A    between atoms: C8_17  and  S1_18 
REMARK    3  A    between atoms: S1_18  and  N5_21 
REMARK    4  A    between atoms: C12_25  and  C13_26 
ROOT
HETATM    1  C2  UNL     1     -37.530 173.020  74.334  1.00  0.00     0.118 A 
HETATM    2  N4  UNL     1     -38.027 174.143  74.935  1.00  0.00    -0.350 N 
ATOM      3  H4  UNL     1     -37.820 174.309  75.920  1.00  0.00     0.166 HD
HETATM    4  C3  UNL     1     -38.774 175.026  74.276  1.00  0.00     0.114 A 
HETATM    5  C4  UNL     1     -39.080 174.844  72.946  1.00  0.00     0.060 A 
HETATM    6 CL1  UNL     1     -40.059 175.986  72.046  1.00  0.00    -0.082 Cl
HETATM    7  C5  UNL     1     -38.602 173.729  72.294  1.00  0.00     0.001 A 
HETATM    8  C6  UNL     1     -38.882 173.501  70.959  1.00  0.00     0.016 A 
HETATM    9  C7  UNL     1     -38.404 172.387  70.308  1.00  0.00     0.026 A 
HETATM   10  C8  UNL     1     -37.631 171.457  70.964  1.00  0.00     0.075 A 
HETATM   11  C14 UNL     1     -37.366 171.717  72.315  1.00  0.00     0.041 A 
HETATM   12  C15 UNL     1     -37.819 172.806  72.990  1.00  0.00     0.021 A 
ENDROOT
BRANCH  10  13
HETATM   13  S1  UNL     1     -36.992 170.022  70.204  1.00  0.00     0.244 S 
HETATM   14  O1  UNL     1     -37.734 168.843  70.769  1.00  0.00    -0.206 OA
HETATM   15  O2  UNL     1     -37.214 170.033  68.734  1.00  0.00    -0.206 OA
BRANCH  13  16
HETATM   16  N5  UNL     1     -35.320 169.805  70.575  1.00  0.00    -0.192 NA
HETATM   17  C9  UNL     1     -35.104 168.507  71.174  1.00  0.00     0.109 C 
HETATM   18  C10 UNL     1     -35.023 167.532  70.042  1.00  0.00     0.018 C 
HETATM   19  C11 UNL     1     -34.527 168.337  68.880  1.00  0.00     0.033 C 
HETATM   20  C12 UNL     1     -34.499 169.765  69.406  1.00  0.00     0.175 C 
BRANCH  20  21
HETATM   21  C13 UNL     1     -33.103 170.096  69.787  1.00  0.00     0.192 C 
HETATM   22  O3  UNL     1     -32.789 171.253  70.119  1.00  0.00    -0.647 OA
HETATM   23  O4  UNL     1     -32.084 169.131  69.788  1.00  0.00    -0.647 OA
ENDBRANCH  20  21
ENDBRANCH  13  16
ENDBRANCH  10  13
BRANCH   1  24
HETATM   24  N3  UNL     1     -36.738 172.113  75.061  1.00  0.00    -0.316 N 
HETATM   25  C1  UNL     1     -37.312 171.340  76.105  1.00  0.00     0.187 C 
HETATM   26  N1  UNL     1     -36.582 171.148  77.332  1.00  0.00    -0.064 NA
HETATM   27  N2  UNL     1     -38.469 170.820  75.940  1.00  0.00    -0.373 N 
ATOM     28  H22 UNL     1     -38.882 170.265  76.689  1.00  0.00     0.158 HD
ATOM     29  H21 UNL     1     -38.987 170.956  75.071  1.00  0.00     0.158 HD
ATOM     30  H3  UNL     1     -35.748 172.011  74.839  1.00  0.00     0.170 HD
ENDBRANCH   1  24
TORSDOF 4
ENDMDL
