MODEL 2
REMARK VINA RESULT: -7.827708045      2.738      4.066
REMARK  4 active torsions:
REMARK  status: ('A' for Active; 'I' for Inactive)
REMARK       I    between atoms: C1_2  and  N3_6 
REMARK    1  A    between atoms: N3_6  and  C2_8 
REMARK    2  A    between atoms: C8_17  and  S1_18 
REMARK    3  A    between atoms: S1_18  and  N5_21 
REMARK    4  A    between atoms: C12_25  and  C13_26 
ROOT
HETATM    1  C2  UNL     1     -39.728 175.170  71.387  1.00  0.00     0.118 A 
HETATM    2  N4  UNL     1     -40.242 176.051  72.299  1.00  0.00    -0.350 N 
ATOM      3  H4  UNL     1     -40.832 176.816  71.970  1.00  0.00     0.166 HD
HETATM    4  C3  UNL     1     -39.997 175.942  73.603  1.00  0.00     0.114 A 
HETATM    5  C4  UNL     1     -39.207 174.927  74.094  1.00  0.00     0.060 A 
HETATM    6 CL1  UNL     1     -38.863 174.752  75.804  1.00  0.00    -0.082 Cl
HETATM    7  C5  UNL     1     -38.666 174.014  73.217  1.00  0.00     0.001 A 
HETATM    8  C6  UNL     1     -37.866 172.977  73.661  1.00  0.00     0.016 A 
HETATM    9  C7  UNL     1     -37.325 172.064  72.784  1.00  0.00     0.026 A 
HETATM   10  C8  UNL     1     -37.561 172.152  71.431  1.00  0.00     0.075 A 
HETATM   11  C14 UNL     1     -38.376 173.214  71.014  1.00  0.00     0.041 A 
HETATM   12  C15 UNL     1     -38.927 174.133  71.851  1.00  0.00     0.021 A 
ENDROOT
BRANCH  10  13
HETATM   13  S1  UNL     1     -36.909 171.033  70.262  1.00  0.00     0.244 S 
HETATM   14  O1  UNL     1     -36.867 171.739  68.936  1.00  0.00    -0.206 OA
HETATM   15  O2  UNL     1     -35.520 170.628  70.603  1.00  0.00    -0.206 OA
BRANCH  13  16
HETATM   16  N5  UNL     1     -37.928 169.651  70.079  1.00  0.00    -0.192 NA
HETATM   17  C9  UNL     1     -37.186 168.442  70.357  1.00  0.00     0.109 C 
HETATM   18  C10 UNL     1     -37.177 168.290  71.846  1.00  0.00     0.018 C 
HETATM   19  C11 UNL     1     -38.421 168.984  72.307  1.00  0.00     0.033 C 
HETATM   20  C12 UNL     1     -38.983 169.615  71.042  1.00  0.00     0.175 C 
BRANCH  20  21
HETATM   21  C13 UNL     1     -40.073 168.748  70.530  1.00  0.00     0.192 C 
HETATM   22  O3  UNL     1     -40.458 168.833  69.350  1.00  0.00    -0.647 OA
HETATM   23  O4  UNL     1     -40.714 167.801  71.345  1.00  0.00    -0.647 OA
ENDBRANCH  20  21
ENDBRANCH  13  16
ENDBRANCH  10  13
BRANCH   1  24
HETATM   24  N3  UNL     1     -40.016 175.313  70.018  1.00  0.00    -0.316 N 
HETATM   25  C1  UNL     1     -40.879 176.350  69.574  1.00  0.00     0.187 C 
HETATM   26  N1  UNL     1     -41.852 176.074  68.547  1.00  0.00    -0.064 NA
HETATM   27  N2  UNL     1     -40.777 177.518  70.087  1.00  0.00    -0.373 N 
ATOM     28  H22 UNL     1     -41.396 178.262  69.768  1.00  0.00     0.158 HD
ATOM     29  H21 UNL     1     -40.088 177.713  70.814  1.00  0.00     0.158 HD
ATOM     30  H3  UNL     1     -39.604 174.670  69.342  1.00  0.00     0.170 HD
ENDBRANCH   1  24
TORSDOF 4
ENDMDL
