MODEL 8
REMARK VINA RESULT: -7.458542836      4.880      7.335
REMARK  4 active torsions:
REMARK  status: ('A' for Active; 'I' for Inactive)
REMARK       I    between atoms: C1_2  and  N3_6 
REMARK    1  A    between atoms: N3_6  and  C2_8 
REMARK    2  A    between atoms: C8_17  and  S1_18 
REMARK    3  A    between atoms: S1_18  and  N5_21 
REMARK    4  A    between atoms: C12_25  and  C13_26 
ROOT
HETATM    1  C2  UNL     1     -38.767 172.490  73.721  1.00  0.00     0.118 A 
HETATM    2  N4  UNL     1     -39.775 172.057  72.903  1.00  0.00    -0.350 N 
ATOM      3  H4  UNL     1     -40.140 172.690  72.191  1.00  0.00     0.166 HD
HETATM    4  C3  UNL     1     -40.296 170.837  73.007  1.00  0.00     0.114 A 
HETATM    5  C4  UNL     1     -39.837 169.948  73.954  1.00  0.00     0.060 A 
HETATM    6 CL1  UNL     1     -40.498 168.333  74.120  1.00  0.00    -0.082 Cl
HETATM    7  C5  UNL     1     -38.822 170.335  74.801  1.00  0.00     0.001 A 
HETATM    8  C6  UNL     1     -38.327 169.478  75.767  1.00  0.00     0.016 A 
HETATM    9  C7  UNL     1     -37.313 169.865  76.614  1.00  0.00     0.026 A 
HETATM   10  C8  UNL     1     -36.756 171.121  76.529  1.00  0.00     0.075 A 
HETATM   11  C14 UNL     1     -37.280 171.963  75.540  1.00  0.00     0.041 A 
HETATM   12  C15 UNL     1     -38.279 171.616  74.686  1.00  0.00     0.021 A 
ENDROOT
BRANCH  10  13
HETATM   13  S1  UNL     1     -35.470 171.679  77.568  1.00  0.00     0.244 S 
HETATM   14  O1  UNL     1     -35.104 173.068  77.127  1.00  0.00    -0.206 OA
HETATM   15  O2  UNL     1     -35.903 171.755  78.988  1.00  0.00    -0.206 OA
BRANCH  13  16
HETATM   16  N5  UNL     1     -34.059 170.697  77.404  1.00  0.00    -0.192 NA
HETATM   17  C9  UNL     1     -32.885 171.529  77.256  1.00  0.00     0.109 C 
HETATM   18  C10 UNL     1     -32.488 171.943  78.638  1.00  0.00     0.018 C 
HETATM   19  C11 UNL     1     -32.991 170.845  79.524  1.00  0.00     0.033 C 
HETATM   20  C12 UNL     1     -33.775 169.942  78.584  1.00  0.00     0.175 C 
BRANCH  20  21
HETATM   21  C13 UNL     1     -32.918 168.786  78.220  1.00  0.00     0.192 C 
HETATM   22  O3  UNL     1     -33.236 168.022  77.291  1.00  0.00    -0.647 OA
HETATM   23  O4  UNL     1     -31.724 168.504  78.901  1.00  0.00    -0.647 OA
ENDBRANCH  20  21
ENDBRANCH  13  16
ENDBRANCH  10  13
BRANCH   1  24
HETATM   24  N3  UNL     1     -38.237 173.784  73.575  1.00  0.00    -0.316 N 
HETATM   25  C1  UNL     1     -38.917 174.902  74.128  1.00  0.00     0.187 C 
HETATM   26  N1  UNL     1     -39.006 176.124  73.371  1.00  0.00    -0.064 NA
HETATM   27  N2  UNL     1     -39.435 174.809  75.294  1.00  0.00    -0.373 N 
ATOM     28  H22 UNL     1     -39.923 175.611  75.691  1.00  0.00     0.158 HD
ATOM     29  H21 UNL     1     -39.372 173.943  75.830  1.00  0.00     0.158 HD
ATOM     30  H3  UNL     1     -37.361 173.920  73.069  1.00  0.00     0.170 HD
ENDBRANCH   1  24
TORSDOF 4
ENDMDL
