MODEL 7
REMARK VINA RESULT: -7.498841741      2.052      3.059
REMARK  4 active torsions:
REMARK  status: ('A' for Active; 'I' for Inactive)
REMARK       I    between atoms: C1_2  and  N3_6 
REMARK    1  A    between atoms: N3_6  and  C2_8 
REMARK    2  A    between atoms: C8_17  and  S1_18 
REMARK    3  A    between atoms: S1_18  and  N5_21 
REMARK    4  A    between atoms: C12_25  and  C13_26 
ROOT
HETATM    1  C2  UNL     1     -37.608 173.126  74.411  1.00  0.00     0.118 A 
HETATM    2  N4  UNL     1     -38.198 174.177  75.058  1.00  0.00    -0.350 N 
ATOM      3  H4  UNL     1     -38.019 174.309  76.054  1.00  0.00     0.166 HD
HETATM    4  C3  UNL     1     -38.998 175.036  74.429  1.00  0.00     0.114 A 
HETATM    5  C4  UNL     1     -39.269 174.899  73.086  1.00  0.00     0.060 A 
HETATM    6 CL1  UNL     1     -40.317 176.009  72.225  1.00  0.00    -0.082 Cl
HETATM    7  C5  UNL     1     -38.699 173.856  72.389  1.00  0.00     0.001 A 
HETATM    8  C6  UNL     1     -38.940 173.677  71.039  1.00  0.00     0.016 A 
HETATM    9  C7  UNL     1     -38.371 172.635  70.343  1.00  0.00     0.026 A 
HETATM   10  C8  UNL     1     -37.540 171.733  70.967  1.00  0.00     0.075 A 
HETATM   11  C14 UNL     1     -37.316 171.944  72.334  1.00  0.00     0.041 A 
HETATM   12  C15 UNL     1     -37.860 172.960  73.054  1.00  0.00     0.021 A 
ENDROOT
BRANCH  10  13
HETATM   13  S1  UNL     1     -36.783 170.390  70.149  1.00  0.00     0.244 S 
HETATM   14  O1  UNL     1     -35.815 169.762  71.112  1.00  0.00    -0.206 OA
HETATM   15  O2  UNL     1     -37.775 169.351  69.764  1.00  0.00    -0.206 OA
BRANCH  13  16
HETATM   16  N5  UNL     1     -35.878 170.918  68.777  1.00  0.00    -0.192 NA
HETATM   17  C9  UNL     1     -34.668 171.586  69.203  1.00  0.00     0.109 C 
HETATM   18  C10 UNL     1     -33.675 170.506  69.495  1.00  0.00     0.018 C 
HETATM   19  C11 UNL     1     -34.086 169.363  68.621  1.00  0.00     0.033 C 
HETATM   20  C12 UNL     1     -35.389 169.831  67.990  1.00  0.00     0.175 C 
BRANCH  20  21
HETATM   21  C13 UNL     1     -35.097 170.322  66.620  1.00  0.00     0.192 C 
HETATM   22  O3  UNL     1     -35.954 170.946  65.968  1.00  0.00    -0.647 OA
HETATM   23  O4  UNL     1     -33.855 170.107  66.003  1.00  0.00    -0.647 OA
ENDBRANCH  20  21
ENDBRANCH  13  16
ENDBRANCH  10  13
BRANCH   1  24
HETATM   24  N3  UNL     1     -36.762 172.245  75.108  1.00  0.00    -0.316 N 
HETATM   25  C1  UNL     1     -37.290 171.390  76.111  1.00  0.00     0.187 C 
HETATM   26  N1  UNL     1     -36.558 171.195  77.336  1.00  0.00    -0.064 NA
HETATM   27  N2  UNL     1     -38.407 170.799  75.910  1.00  0.00    -0.373 N 
ATOM     28  H22 UNL     1     -38.787 170.184  76.630  1.00  0.00     0.158 HD
ATOM     29  H21 UNL     1     -38.925 170.937  75.042  1.00  0.00     0.158 HD
ATOM     30  H3  UNL     1     -35.765 172.222  74.892  1.00  0.00     0.170 HD
ENDBRANCH   1  24
TORSDOF 4
ENDMDL
