MODEL 3
REMARK VINA RESULT: -7.807454500      2.935      4.359
REMARK  4 active torsions:
REMARK  status: ('A' for Active; 'I' for Inactive)
REMARK       I    between atoms: C1_2  and  N3_6 
REMARK    1  A    between atoms: N3_6  and  C2_8 
REMARK    2  A    between atoms: C8_17  and  S1_18 
REMARK    3  A    between atoms: S1_18  and  N5_21 
REMARK    4  A    between atoms: C12_25  and  C13_26 
ROOT
HETATM    1  C2  UNL     1     -39.684 175.204  71.471  1.00  0.00     0.118 A 
HETATM    2  N4  UNL     1     -40.305 176.065  72.333  1.00  0.00    -0.350 N 
ATOM      3  H4  UNL     1     -40.910 176.794  71.953  1.00  0.00     0.166 HD
HETATM    4  C3  UNL     1     -40.145 175.984  73.652  1.00  0.00     0.114 A 
HETATM    5  C4  UNL     1     -39.339 175.017  74.211  1.00  0.00     0.060 A 
HETATM    6 CL1  UNL     1     -39.105 174.879  75.942  1.00  0.00    -0.082 Cl
HETATM    7  C5  UNL     1     -38.692 174.124  73.385  1.00  0.00     0.001 A 
HETATM    8  C6  UNL     1     -37.871 173.136  73.897  1.00  0.00     0.016 A 
HETATM    9  C7  UNL     1     -37.224 172.244  73.072  1.00  0.00     0.026 A 
HETATM   10  C8  UNL     1     -37.371 172.305  71.706  1.00  0.00     0.075 A 
HETATM   11  C14 UNL     1     -38.209 173.317  71.219  1.00  0.00     0.041 A 
HETATM   12  C15 UNL     1     -38.863 174.215  72.003  1.00  0.00     0.021 A 
ENDROOT
BRANCH  10  13
HETATM   13  S1  UNL     1     -36.583 171.210  70.600  1.00  0.00     0.244 S 
HETATM   14  O1  UNL     1     -35.356 171.902  70.076  1.00  0.00    -0.206 OA
HETATM   15  O2  UNL     1     -36.143 169.963  71.280  1.00  0.00    -0.206 OA
BRANCH  13  16
HETATM   16  N5  UNL     1     -37.591 170.851  69.245  1.00  0.00    -0.192 NA
HETATM   17  C9  UNL     1     -36.917 171.202  68.013  1.00  0.00     0.109 C 
HETATM   18  C10 UNL     1     -36.008 170.057  67.694  1.00  0.00     0.018 C 
HETATM   19  C11 UNL     1     -36.657 168.866  68.327  1.00  0.00     0.033 C 
HETATM   20  C12 UNL     1     -37.833 169.450  69.095  1.00  0.00     0.175 C 
BRANCH  20  21
HETATM   21  C13 UNL     1     -39.063 169.259  68.288  1.00  0.00     0.192 C 
HETATM   22  O3  UNL     1     -40.190 169.420  68.791  1.00  0.00    -0.647 OA
HETATM   23  O4  UNL     1     -39.014 168.890  66.935  1.00  0.00    -0.647 OA
ENDBRANCH  20  21
ENDBRANCH  13  16
ENDBRANCH  10  13
BRANCH   1  24
HETATM   24  N3  UNL     1     -39.884 175.317  70.084  1.00  0.00    -0.316 N 
HETATM   25  C1  UNL     1     -40.765 176.303  69.566  1.00  0.00     0.187 C 
HETATM   26  N1  UNL     1     -41.650 175.966  68.480  1.00  0.00    -0.064 NA
HETATM   27  N2  UNL     1     -40.758 177.480  70.068  1.00  0.00    -0.373 N 
ATOM     28  H22 UNL     1     -41.391 178.188  69.697  1.00  0.00     0.158 HD
ATOM     29  H21 UNL     1     -40.132 177.718  70.838  1.00  0.00     0.158 HD
ATOM     30  H3  UNL     1     -39.394 174.688  69.447  1.00  0.00     0.170 HD
ENDBRANCH   1  24
TORSDOF 4
ENDMDL
