MODEL 17
REMARK VINA RESULT: -4.320501721      1.834      2.337
REMARK  2 active torsions:
REMARK  status: ('A' for Active; 'I' for Inactive)
REMARK    1  A    between atoms: N1_2  and  C1_4 
REMARK    2  A    between atoms: C4_7  and  C5_8 
ROOT
HETATM    1  C1  UNL     1      31.843 -46.291  -7.160  1.00  0.00     0.102 A 
HETATM    2  C2  UNL     1      33.206 -46.152  -7.318  1.00  0.00     0.036 A 
HETATM    3  C3  UNL     1      33.748 -45.861  -8.556  1.00  0.00     0.010 A 
HETATM    4  C4  UNL     1      32.969 -45.695  -9.682  1.00  0.00    -0.048 A 
HETATM    5  C6  UNL     1      31.606 -45.832  -9.524  1.00  0.00     0.010 A 
HETATM    6  C7  UNL     1      31.064 -46.124  -8.288  1.00  0.00     0.036 A 
ENDROOT
BRANCH   1   7
HETATM    7  N1  UNL     1      31.272 -46.591  -5.891  1.00  0.00    -0.116 N 
HETATM    8  O1  UNL     1      30.311 -45.955  -5.427  1.00  0.00    -0.532 OA
HETATM    9  O2  UNL     1      31.781 -47.613  -5.128  1.00  0.00    -0.532 OA
ENDBRANCH   1   7
BRANCH   4  10
HETATM   10  C5  UNL     1      33.549 -45.380 -11.017  1.00  0.00     0.124 C 
HETATM   11  S1  UNL     1      32.705 -46.309 -12.320  1.00  0.00    -0.093 SA
ENDBRANCH   4  10
TORSDOF 2
ENDMDL
