MODEL 7
REMARK VINA RESULT: -4.652129600      3.579      4.521
REMARK  2 active torsions:
REMARK  status: ('A' for Active; 'I' for Inactive)
REMARK    1  A    between atoms: N1_2  and  C1_4 
REMARK    2  A    between atoms: C4_7  and  C5_8 
ROOT
HETATM    1  C1  UNL     1      33.307 -45.563  -9.459  1.00  0.00     0.102 A 
HETATM    2  C2  UNL     1      32.534 -45.271  -8.354  1.00  0.00     0.036 A 
HETATM    3  C3  UNL     1      32.889 -45.732  -7.101  1.00  0.00     0.010 A 
HETATM    4  C4  UNL     1      34.017 -46.497  -6.888  1.00  0.00    -0.048 A 
HETATM    5  C6  UNL     1      34.791 -46.788  -7.992  1.00  0.00     0.010 A 
HETATM    6  C7  UNL     1      34.436 -46.328  -9.244  1.00  0.00     0.036 A 
ENDROOT
BRANCH   1   7
HETATM    7  N1  UNL     1      32.952 -45.095 -10.755  1.00  0.00    -0.116 N 
HETATM    8  O1  UNL     1      31.772 -44.886 -11.086  1.00  0.00    -0.532 OA
HETATM    9  O2  UNL     1      33.924 -44.856 -11.695  1.00  0.00    -0.532 OA
ENDBRANCH   1   7
BRANCH   4  10
HETATM   10  C5  UNL     1      34.403 -46.995  -5.539  1.00  0.00     0.124 C 
HETATM   11  S1  UNL     1      36.203 -47.035  -5.358  1.00  0.00    -0.093 SA
ENDBRANCH   4  10
TORSDOF 2
ENDMDL
