MODEL 20
REMARK VINA RESULT: -4.311565119      1.811      2.619
REMARK  2 active torsions:
REMARK  status: ('A' for Active; 'I' for Inactive)
REMARK    1  A    between atoms: N1_2  and  C1_4 
REMARK    2  A    between atoms: C4_7  and  C5_8 
ROOT
HETATM    1  C1  UNL     1      31.880 -46.288  -7.176  1.00  0.00     0.102 A 
HETATM    2  C2  UNL     1      31.086 -46.134  -8.293  1.00  0.00     0.036 A 
HETATM    3  C3  UNL     1      31.646 -45.848  -9.524  1.00  0.00     0.010 A 
HETATM    4  C4  UNL     1      33.007 -45.704  -9.701  1.00  0.00    -0.048 A 
HETATM    5  C6  UNL     1      33.800 -45.860  -8.584  1.00  0.00     0.010 A 
HETATM    6  C7  UNL     1      33.241 -46.144  -7.354  1.00  0.00     0.036 A 
ENDROOT
BRANCH   1   7
HETATM    7  N1  UNL     1      31.315 -46.582  -5.903  1.00  0.00    -0.116 N 
HETATM    8  O1  UNL     1      30.371 -45.928  -5.427  1.00  0.00    -0.532 OA
HETATM    9  O2  UNL     1      31.810 -47.617  -5.149  1.00  0.00    -0.532 OA
ENDBRANCH   1   7
BRANCH   4  10
HETATM   10  C5  UNL     1      33.614 -45.397 -11.025  1.00  0.00     0.124 C 
HETATM   11  S1  UNL     1      32.774 -46.306 -12.344  1.00  0.00    -0.093 SA
ENDBRANCH   4  10
TORSDOF 2
ENDMDL
