MODEL 9
REMARK VINA RESULT: -4.525931256      3.862      4.464
REMARK  2 active torsions:
REMARK  status: ('A' for Active; 'I' for Inactive)
REMARK    1  A    between atoms: N1_2  and  C1_4 
REMARK    2  A    between atoms: C4_7  and  C5_8 
ROOT
HETATM    1  C1  UNL     1      33.682 -45.698 -10.631  1.00  0.00     0.102 A 
HETATM    2  C2  UNL     1      34.673 -46.425 -10.004  1.00  0.00     0.036 A 
HETATM    3  C3  UNL     1      34.655 -46.610  -8.635  1.00  0.00     0.010 A 
HETATM    4  C4  UNL     1      33.663 -46.087  -7.831  1.00  0.00    -0.048 A 
HETATM    5  C6  UNL     1      32.672 -45.361  -8.458  1.00  0.00     0.010 A 
HETATM    6  C7  UNL     1      32.689 -45.176  -9.826  1.00  0.00     0.036 A 
ENDROOT
BRANCH   1   7
HETATM    7  N1  UNL     1      33.689 -45.501 -12.040  1.00  0.00    -0.116 N 
HETATM    8  O1  UNL     1      34.702 -45.123 -12.654  1.00  0.00    -0.532 OA
HETATM    9  O2  UNL     1      32.551 -45.725 -12.776  1.00  0.00    -0.532 OA
ENDBRANCH   1   7
BRANCH   4  10
HETATM   10  C5  UNL     1      33.641 -46.284  -6.356  1.00  0.00     0.124 C 
HETATM   11  S1  UNL     1      35.211 -46.969  -5.775  1.00  0.00    -0.093 SA
ENDBRANCH   4  10
TORSDOF 2
ENDMDL
