MODEL 8
REMARK VINA RESULT: -4.645045658      3.589      4.347
REMARK  2 active torsions:
REMARK  status: ('A' for Active; 'I' for Inactive)
REMARK    1  A    between atoms: N1_2  and  C1_4 
REMARK    2  A    between atoms: C4_7  and  C5_8 
ROOT
HETATM    1  C1  UNL     1      33.375 -45.572  -9.521  1.00  0.00     0.102 A 
HETATM    2  C2  UNL     1      34.496 -46.345  -9.299  1.00  0.00     0.036 A 
HETATM    3  C3  UNL     1      34.801 -46.799  -8.030  1.00  0.00     0.010 A 
HETATM    4  C4  UNL     1      34.014 -46.512  -6.933  1.00  0.00    -0.048 A 
HETATM    5  C6  UNL     1      32.893 -45.741  -7.156  1.00  0.00     0.010 A 
HETATM    6  C7  UNL     1      32.589 -45.285  -8.423  1.00  0.00     0.036 A 
ENDROOT
BRANCH   1   7
HETATM    7  N1  UNL     1      33.051 -45.098 -10.823  1.00  0.00    -0.116 N 
HETATM    8  O1  UNL     1      33.916 -44.897 -11.692  1.00  0.00    -0.532 OA
HETATM    9  O2  UNL     1      31.745 -44.841 -11.160  1.00  0.00    -0.532 OA
ENDBRANCH   1   7
BRANCH   4  10
HETATM   10  C5  UNL     1      34.339 -47.000  -5.565  1.00  0.00     0.124 C 
HETATM   11  S1  UNL     1      36.129 -47.123  -5.334  1.00  0.00    -0.093 SA
ENDBRANCH   4  10
TORSDOF 2
ENDMDL
