MODEL 6
REMARK VINA RESULT: -7.736606232      1.960      2.411
REMARK  7 active torsions:
REMARK  status: ('A' for Active; 'I' for Inactive)
REMARK    1  A    between atoms: O1_1  and  C1_3 
REMARK    2  A    between atoms: C1_3  and  C2_4 
REMARK    3  A    between atoms: C5_7  and  O2_8 
REMARK    4  A    between atoms: C6_10  and  O3_11 
REMARK    5  A    between atoms: C7_13  and  O4_14 
REMARK    6  A    between atoms: N1_17  and  C9_18 
REMARK    7  A    between atoms: C9_18  and  C10_19 
ROOT
HETATM    1  C2  UNL     1      26.510  47.747  -1.920  1.00  0.00     0.050 C 
HETATM    2  C3  UNL     1      27.124  46.442  -2.309  1.00  0.00     0.048 C 
HETATM    3  C4  UNL     1      28.479  46.235  -1.621  1.00  0.00     0.255 C 
HETATM    4  C5  UNL     1      28.294  46.249  -0.120  1.00  0.00     0.183 C 
HETATM    5  C6  UNL     1      27.602  47.564   0.227  1.00  0.00     0.185 C 
HETATM    6  C7  UNL     1      27.502  48.440  -1.009  1.00  0.00     0.118 C 
HETATM    7  C8  UNL     1      28.804  48.547  -1.735  1.00  0.00     0.314 C 
HETATM    8  N1  UNL     1      29.435  47.249  -1.965  1.00  0.00     0.102 N 
ENDROOT
BRANCH   8   9
HETATM    9  C9  UNL     1      29.957  47.134  -3.287  1.00  0.00     0.311 C 
BRANCH   9  10
HETATM   10  C10 UNL     1      31.084  48.010  -3.628  1.00  0.00    -0.030 A 
HETATM   11  C11 UNL     1      32.322  47.808  -3.095  1.00  0.00     0.009 A 
HETATM   12  C12 UNL     1      33.385  48.657  -3.426  1.00  0.00     0.001 A 
HETATM   13  C13 UNL     1      33.173  49.704  -4.298  1.00  0.00     0.000 A 
HETATM   14  C14 UNL     1      31.930  49.931  -4.852  1.00  0.00     0.001 A 
HETATM   15  C15 UNL     1      30.910  49.075  -4.501  1.00  0.00     0.009 A 
ENDBRANCH   9  10
ENDBRANCH   8   9
BRANCH   4  16
HETATM   16  O2  UNL     1      29.532  46.289   0.486  1.00  0.00    -0.391 OA
ATOM     17  H2  UNL     1      29.486  45.832   1.317  1.00  0.00     0.210 HD
ENDBRANCH   4  16
BRANCH   6  18
HETATM   18  O4  UNL     1      27.055  49.685  -0.612  1.00  0.00    -0.385 OA
ATOM     19  H4  UNL     1      26.141  49.820  -0.830  1.00  0.00     0.210 HD
ENDBRANCH   6  18
BRANCH   1  20
HETATM   20  C1  UNL     1      26.072  48.575  -3.087  1.00  0.00     0.172 C 
BRANCH  20  21
HETATM   21  O1  UNL     1      25.172  49.533  -2.565  1.00  0.00    -0.400 OA
ATOM     22  H1  UNL     1      25.283  50.311  -3.099  1.00  0.00     0.209 HD
ENDBRANCH  20  21
ENDBRANCH   1  20
BRANCH   5  23
HETATM   23  O3  UNL     1      28.215  48.208   1.279  1.00  0.00    -0.390 OA
ATOM     24  H3  UNL     1      28.316  49.139   1.116  1.00  0.00     0.210 HD
ENDBRANCH   5  23
TORSDOF 7
ENDMDL
