MODEL 8
REMARK VINA RESULT: -6.936636275      2.931      5.606
REMARK  7 active torsions:
REMARK  status: ('A' for Active; 'I' for Inactive)
REMARK    1  A    between atoms: O1_1  and  C1_3 
REMARK    2  A    between atoms: C1_3  and  C2_4 
REMARK    3  A    between atoms: C5_7  and  O2_8 
REMARK    4  A    between atoms: C6_10  and  O3_11 
REMARK    5  A    between atoms: C7_13  and  O4_14 
REMARK    6  A    between atoms: N1_17  and  C9_18 
REMARK    7  A    between atoms: C9_18  and  C10_19 
ROOT
HETATM    1  C2  UNL     1      31.813  48.415  -3.784  1.00  0.00     0.050 C 
HETATM    2  C3  UNL     1      31.585  46.939  -3.736  1.00  0.00     0.048 C 
HETATM    3  C4  UNL     1      30.636  46.484  -4.851  1.00  0.00     0.255 C 
HETATM    4  C5  UNL     1      31.228  46.834  -6.198  1.00  0.00     0.183 C 
HETATM    5  C6  UNL     1      31.511  48.334  -6.179  1.00  0.00     0.185 C 
HETATM    6  C7  UNL     1      30.954  48.952  -4.910  1.00  0.00     0.118 C 
HETATM    7  C8  UNL     1      29.540  48.539  -4.652  1.00  0.00     0.314 C 
HETATM    8  N1  UNL     1      29.340  47.096  -4.759  1.00  0.00     0.102 N 
ENDROOT
BRANCH   8   9
HETATM    9  C9  UNL     1      28.530  46.588  -3.702  1.00  0.00     0.311 C 
BRANCH   9  10
HETATM   10  C10 UNL     1      27.768  47.573  -2.925  1.00  0.00    -0.030 A 
HETATM   11  C11 UNL     1      28.073  47.834  -1.622  1.00  0.00     0.009 A 
HETATM   12  C12 UNL     1      27.333  48.773  -0.894  1.00  0.00     0.001 A 
HETATM   13  C13 UNL     1      26.288  49.436  -1.503  1.00  0.00     0.000 A 
HETATM   14  C14 UNL     1      25.958  49.190  -2.820  1.00  0.00     0.001 A 
HETATM   15  C15 UNL     1      26.710  48.260  -3.503  1.00  0.00     0.009 A 
ENDBRANCH   9  10
ENDBRANCH   8   9
BRANCH   4  16
HETATM   16  O2  UNL     1      30.279  46.629  -7.176  1.00  0.00    -0.391 OA
ATOM     17  H2  UNL     1      30.032  45.712  -7.184  1.00  0.00     0.210 HD
ENDBRANCH   4  16
BRANCH   6  18
HETATM   18  O4  UNL     1      31.054  50.324  -5.027  1.00  0.00    -0.385 OA
ATOM     19  H4  UNL     1      31.928  50.595  -5.280  1.00  0.00     0.210 HD
ENDBRANCH   6  18
BRANCH   1  20
HETATM   20  C1  UNL     1      31.595  49.098  -2.471  1.00  0.00     0.172 C 
BRANCH  20  21
HETATM   21  O1  UNL     1      32.212  50.365  -2.587  1.00  0.00    -0.400 OA
ATOM     22  H1  UNL     1      33.064  50.277  -2.175  1.00  0.00     0.209 HD
ENDBRANCH  20  21
ENDBRANCH   1  20
BRANCH   5  23
HETATM   23  O3  UNL     1      31.048  48.960  -7.315  1.00  0.00    -0.390 OA
ATOM     24  H3  UNL     1      30.576  48.363  -7.884  1.00  0.00     0.210 HD
ENDBRANCH   5  23
TORSDOF 7
ENDMDL
