MODEL 3
REMARK VINA RESULT: -8.569219925      0.958      1.232
REMARK  7 active torsions:
REMARK  status: ('A' for Active; 'I' for Inactive)
REMARK    1  A    between atoms: O1_1  and  C1_3 
REMARK    2  A    between atoms: C1_3  and  C2_4 
REMARK    3  A    between atoms: C5_7  and  O2_8 
REMARK    4  A    between atoms: C6_10  and  O3_11 
REMARK    5  A    between atoms: C7_13  and  O4_14 
REMARK    6  A    between atoms: N1_17  and  C9_18 
REMARK    7  A    between atoms: C9_18  and  C10_19 
ROOT
HETATM    1  C2  UNL     1      26.569  48.452  -1.403  1.00  0.00     0.050 C 
HETATM    2  C3  UNL     1      26.323  47.201  -2.181  1.00  0.00     0.048 C 
HETATM    3  C4  UNL     1      27.535  46.263  -2.128  1.00  0.00     0.255 C 
HETATM    4  C5  UNL     1      27.824  45.886  -0.692  1.00  0.00     0.183 C 
HETATM    5  C6  UNL     1      27.998  47.191   0.080  1.00  0.00     0.185 C 
HETATM    6  C7  UNL     1      27.987  48.368  -0.880  1.00  0.00     0.118 C 
HETATM    7  C8  UNL     1      28.901  48.157  -2.045  1.00  0.00     0.314 C 
HETATM    8  N1  UNL     1      28.718  46.856  -2.683  1.00  0.00     0.102 N 
ENDROOT
BRANCH   8   9
HETATM    9  C9  UNL     1      28.710  46.954  -4.105  1.00  0.00     0.311 C 
BRANCH   9  10
HETATM   10  C10 UNL     1      29.977  47.321  -4.747  1.00  0.00    -0.030 A 
HETATM   11  C11 UNL     1      30.018  47.739  -6.044  1.00  0.00     0.009 A 
HETATM   12  C12 UNL     1      31.236  48.080  -6.643  1.00  0.00     0.001 A 
HETATM   13  C13 UNL     1      32.402  47.990  -5.911  1.00  0.00     0.000 A 
HETATM   14  C14 UNL     1      32.390  47.570  -4.597  1.00  0.00     0.001 A 
HETATM   15  C15 UNL     1      31.171  47.244  -4.044  1.00  0.00     0.009 A 
ENDBRANCH   9  10
ENDBRANCH   8   9
BRANCH   4  16
HETATM   16  O2  UNL     1      29.037  45.234  -0.632  1.00  0.00    -0.391 OA
ATOM     17  H2  UNL     1      29.206  44.974   0.266  1.00  0.00     0.210 HD
ENDBRANCH   4  16
BRANCH   6  18
HETATM   18  O4  UNL     1      28.344  49.497  -0.171  1.00  0.00    -0.385 OA
ATOM     19  H4  UNL     1      29.091  49.340   0.395  1.00  0.00     0.210 HD
ENDBRANCH   6  18
BRANCH   1  20
HETATM   20  C1  UNL     1      26.276  49.702  -2.173  1.00  0.00     0.172 C 
BRANCH  20  21
HETATM   21  O1  UNL     1      25.974  49.283  -3.490  1.00  0.00    -0.400 OA
ATOM     22  H1  UNL     1      25.228  48.701  -3.412  1.00  0.00     0.209 HD
ENDBRANCH  20  21
ENDBRANCH   1  20
BRANCH   5  23
HETATM   23  O3  UNL     1      29.122  47.174   0.876  1.00  0.00    -0.390 OA
ATOM     24  H3  UNL     1      29.033  47.744   1.630  1.00  0.00     0.210 HD
ENDBRANCH   5  23
TORSDOF 7
ENDMDL
