MODEL 7
REMARK VINA RESULT: -7.192135183      3.706      5.319
REMARK  7 active torsions:
REMARK  status: ('A' for Active; 'I' for Inactive)
REMARK    1  A    between atoms: O1_1  and  C1_3 
REMARK    2  A    between atoms: C1_3  and  C2_4 
REMARK    3  A    between atoms: C5_7  and  O2_8 
REMARK    4  A    between atoms: C6_10  and  O3_11 
REMARK    5  A    between atoms: C7_13  and  O4_14 
REMARK    6  A    between atoms: N1_17  and  C9_18 
REMARK    7  A    between atoms: C9_18  and  C10_19 
ROOT
HETATM    1  C2  UNL     1      31.949  48.471  -2.739  1.00  0.00     0.050 C 
HETATM    2  C3  UNL     1      32.011  47.326  -3.697  1.00  0.00     0.048 C 
HETATM    3  C4  UNL     1      32.535  47.771  -5.067  1.00  0.00     0.255 C 
HETATM    4  C5  UNL     1      33.926  48.347  -4.917  1.00  0.00     0.183 C 
HETATM    5  C6  UNL     1      33.832  49.463  -3.881  1.00  0.00     0.185 C 
HETATM    6  C7  UNL     1      32.381  49.704  -3.507  1.00  0.00     0.118 C 
HETATM    7  C8  UNL     1      31.499  49.836  -4.708  1.00  0.00     0.314 C 
HETATM    8  N1  UNL     1      31.702  48.766  -5.682  1.00  0.00     0.102 N 
ENDROOT
BRANCH   8   9
HETATM    9  C9  UNL     1      30.468  48.262  -6.188  1.00  0.00     0.311 C 
BRANCH   9  10
HETATM   10  C10 UNL     1      30.491  47.707  -7.546  1.00  0.00    -0.030 A 
HETATM   11  C11 UNL     1      29.831  46.554  -7.850  1.00  0.00     0.009 A 
HETATM   12  C12 UNL     1      29.869  46.036  -9.150  1.00  0.00     0.001 A 
HETATM   13  C13 UNL     1      30.579  46.701 -10.127  1.00  0.00     0.000 A 
HETATM   14  C14 UNL     1      31.256  47.870  -9.847  1.00  0.00     0.001 A 
HETATM   15  C15 UNL     1      31.196  48.348  -8.556  1.00  0.00     0.009 A 
ENDBRANCH   9  10
ENDBRANCH   8   9
BRANCH   4  16
HETATM   16  O2  UNL     1      34.297  48.945  -6.102  1.00  0.00    -0.391 OA
ATOM     17  H2  UNL     1      35.121  48.574  -6.394  1.00  0.00     0.210 HD
ENDBRANCH   4  16
BRANCH   6  18
HETATM   18  O4  UNL     1      32.326  50.842  -2.728  1.00  0.00    -0.385 OA
ATOM     19  H4  UNL     1      32.595  51.615  -3.210  1.00  0.00     0.210 HD
ENDBRANCH   6  18
BRANCH   1  20
HETATM   20  C1  UNL     1      30.624  48.610  -2.057  1.00  0.00     0.172 C 
BRANCH  20  21
HETATM   21  O1  UNL     1      30.873  49.349  -0.876  1.00  0.00    -0.400 OA
ATOM     22  H1  UNL     1      30.411  50.172  -0.983  1.00  0.00     0.209 HD
ENDBRANCH  20  21
ENDBRANCH   1  20
BRANCH   5  23
HETATM   23  O3  UNL     1      34.462  50.613  -4.303  1.00  0.00    -0.390 OA
ATOM     24  H3  UNL     1      34.754  51.147  -3.574  1.00  0.00     0.210 HD
ENDBRANCH   5  23
TORSDOF 7
ENDMDL
