MODEL 1
REMARK VINA RESULT: -8.784262323      0.000      0.000
REMARK  7 active torsions:
REMARK  status: ('A' for Active; 'I' for Inactive)
REMARK    1  A    between atoms: O1_1  and  C1_3 
REMARK    2  A    between atoms: C1_3  and  C2_4 
REMARK    3  A    between atoms: C5_7  and  O2_8 
REMARK    4  A    between atoms: C6_10  and  O3_11 
REMARK    5  A    between atoms: C7_13  and  O4_14 
REMARK    6  A    between atoms: N1_17  and  C9_18 
REMARK    7  A    between atoms: C9_18  and  C10_19 
ROOT
HETATM    1  C2  UNL     1      26.728  48.584  -1.268  1.00  0.00     0.050 C 
HETATM    2  C3  UNL     1      26.149  47.355  -1.891  1.00  0.00     0.048 C 
HETATM    3  C4  UNL     1      27.193  46.239  -1.999  1.00  0.00     0.255 C 
HETATM    4  C5  UNL     1      27.703  45.882  -0.621  1.00  0.00     0.183 C 
HETATM    5  C6  UNL     1      28.219  47.174   0.006  1.00  0.00     0.185 C 
HETATM    6  C7  UNL     1      28.194  48.295  -1.018  1.00  0.00     0.118 C 
HETATM    7  C8  UNL     1      28.816  47.891  -2.316  1.00  0.00     0.314 C 
HETATM    8  N1  UNL     1      28.317  46.610  -2.811  1.00  0.00     0.102 N 
ENDROOT
BRANCH   8   9
HETATM    9  C9  UNL     1      28.041  46.647  -4.209  1.00  0.00     0.311 C 
BRANCH   9  10
HETATM   10  C10 UNL     1      29.196  46.558  -5.111  1.00  0.00    -0.030 A 
HETATM   11  C11 UNL     1      29.599  45.364  -5.628  1.00  0.00     0.009 A 
HETATM   12  C12 UNL     1      30.706  45.297  -6.482  1.00  0.00     0.001 A 
HETATM   13  C13 UNL     1      31.391  46.451  -6.799  1.00  0.00     0.000 A 
HETATM   14  C14 UNL     1      31.004  47.674  -6.290  1.00  0.00     0.001 A 
HETATM   15  C15 UNL     1      29.910  47.698  -5.453  1.00  0.00     0.009 A 
ENDBRANCH   9  10
ENDBRANCH   8   9
BRANCH   4  16
HETATM   16  O2  UNL     1      28.792  45.046  -0.744  1.00  0.00    -0.391 OA
ATOM     17  H2  UNL     1      28.512  44.149  -0.611  1.00  0.00     0.210 HD
ENDBRANCH   4  16
BRANCH   6  18
HETATM   18  O4  UNL     1      28.849  49.381  -0.474  1.00  0.00    -0.385 OA
ATOM     19  H4  UNL     1      29.792  49.299  -0.545  1.00  0.00     0.210 HD
ENDBRANCH   6  18
BRANCH   1  20
HETATM   20  C1  UNL     1      26.478  49.830  -2.057  1.00  0.00     0.172 C 
BRANCH  20  21
HETATM   21  O1  UNL     1      25.922  49.404  -3.286  1.00  0.00    -0.400 OA
ATOM     22  H1  UNL     1      25.989  50.148  -3.873  1.00  0.00     0.209 HD
ENDBRANCH  20  21
ENDBRANCH   1  20
BRANCH   5  23
HETATM   23  O3  UNL     1      29.464  47.011   0.574  1.00  0.00    -0.390 OA
ATOM     24  H3  UNL     1      29.942  46.290   0.181  1.00  0.00     0.210 HD
ENDBRANCH   5  23
TORSDOF 7
ENDMDL
