MODEL 2
REMARK VINA RESULT: -8.613609683      0.916      1.130
REMARK  7 active torsions:
REMARK  status: ('A' for Active; 'I' for Inactive)
REMARK    1  A    between atoms: O1_1  and  C1_3 
REMARK    2  A    between atoms: C1_3  and  C2_4 
REMARK    3  A    between atoms: C5_7  and  O2_8 
REMARK    4  A    between atoms: C6_10  and  O3_11 
REMARK    5  A    between atoms: C7_13  and  O4_14 
REMARK    6  A    between atoms: N1_17  and  C9_18 
REMARK    7  A    between atoms: C9_18  and  C10_19 
ROOT
HETATM    1  C2  UNL     1      26.589  48.477  -1.384  1.00  0.00     0.050 C 
HETATM    2  C3  UNL     1      26.294  47.224  -2.142  1.00  0.00     0.048 C 
HETATM    3  C4  UNL     1      27.476  46.249  -2.091  1.00  0.00     0.255 C 
HETATM    4  C5  UNL     1      27.771  45.882  -0.654  1.00  0.00     0.183 C 
HETATM    5  C6  UNL     1      27.996  47.191   0.098  1.00  0.00     0.185 C 
HETATM    6  C7  UNL     1      28.011  48.354  -0.877  1.00  0.00     0.118 C 
HETATM    7  C8  UNL     1      28.903  48.100  -2.050  1.00  0.00     0.314 C 
HETATM    8  N1  UNL     1      28.670  46.797  -2.668  1.00  0.00     0.102 N 
ENDROOT
BRANCH   8   9
HETATM    9  C9  UNL     1      28.647  46.876  -4.092  1.00  0.00     0.311 C 
BRANCH   9  10
HETATM   10  C10 UNL     1      29.908  47.235  -4.752  1.00  0.00    -0.030 A 
HETATM   11  C11 UNL     1      31.096  47.176  -4.086  1.00  0.00     0.009 A 
HETATM   12  C12 UNL     1      32.288  47.527  -4.729  1.00  0.00     0.001 A 
HETATM   13  C13 UNL     1      32.257  47.935  -6.046  1.00  0.00     0.000 A 
HETATM   14  C14 UNL     1      31.068  48.004  -6.743  1.00  0.00     0.001 A 
HETATM   15  C15 UNL     1      29.916  47.651  -6.076  1.00  0.00     0.009 A 
ENDBRANCH   9  10
ENDBRANCH   8   9
BRANCH   4  16
HETATM   16  O2  UNL     1      28.963  45.192  -0.599  1.00  0.00    -0.391 OA
ATOM     17  H2  UNL     1      29.030  44.752   0.240  1.00  0.00     0.210 HD
ENDBRANCH   4  16
BRANCH   6  18
HETATM   18  O4  UNL     1      28.412  49.481  -0.187  1.00  0.00    -0.385 OA
ATOM     19  H4  UNL     1      28.623  49.286   0.718  1.00  0.00     0.210 HD
ENDBRANCH   6  18
BRANCH   1  20
HETATM   20  C1  UNL     1      26.327  49.726  -2.167  1.00  0.00     0.172 C 
BRANCH  20  21
HETATM   21  O1  UNL     1      25.915  49.298  -3.451  1.00  0.00    -0.400 OA
ATOM     22  H1  UNL     1      25.006  49.038  -3.358  1.00  0.00     0.209 HD
ENDBRANCH  20  21
ENDBRANCH   1  20
BRANCH   5  23
HETATM   23  O3  UNL     1      29.129  47.148   0.881  1.00  0.00    -0.390 OA
ATOM     24  H3  UNL     1      28.965  47.462   1.762  1.00  0.00     0.210 HD
ENDBRANCH   5  23
TORSDOF 7
ENDMDL
