MODEL 9
REMARK VINA RESULT: -6.887146308      3.704      6.381
REMARK  7 active torsions:
REMARK  status: ('A' for Active; 'I' for Inactive)
REMARK    1  A    between atoms: O1_1  and  C1_3 
REMARK    2  A    between atoms: C1_3  and  C2_4 
REMARK    3  A    between atoms: C5_7  and  O2_8 
REMARK    4  A    between atoms: C6_10  and  O3_11 
REMARK    5  A    between atoms: C7_13  and  O4_14 
REMARK    6  A    between atoms: N1_17  and  C9_18 
REMARK    7  A    between atoms: C9_18  and  C10_19 
ROOT
HETATM    1  C2  UNL     1      32.697  48.564  -6.172  1.00  0.00     0.050 C 
HETATM    2  C3  UNL     1      31.326  49.111  -5.938  1.00  0.00     0.048 C 
HETATM    3  C4  UNL     1      31.136  49.538  -4.478  1.00  0.00     0.255 C 
HETATM    4  C5  UNL     1      32.146  50.607  -4.125  1.00  0.00     0.183 C 
HETATM    5  C6  UNL     1      33.524  50.034  -4.443  1.00  0.00     0.185 C 
HETATM    6  C7  UNL     1      33.402  48.571  -4.831  1.00  0.00     0.118 C 
HETATM    7  C8  UNL     1      32.567  47.796  -3.862  1.00  0.00     0.314 C 
HETATM    8  N1  UNL     1      31.296  48.448  -3.558  1.00  0.00     0.102 N 
ENDROOT
BRANCH   8   9
HETATM    9  C9  UNL     1      30.209  47.525  -3.552  1.00  0.00     0.311 C 
BRANCH   9  10
HETATM   10  C10 UNL     1      28.996  47.941  -2.839  1.00  0.00    -0.030 A 
HETATM   11  C11 UNL     1      29.006  48.157  -1.493  1.00  0.00     0.009 A 
HETATM   12  C12 UNL     1      27.838  48.549  -0.828  1.00  0.00     0.001 A 
HETATM   13  C13 UNL     1      26.671  48.715  -1.544  1.00  0.00     0.000 A 
HETATM   14  C14 UNL     1      26.633  48.503  -2.907  1.00  0.00     0.001 A 
HETATM   15  C15 UNL     1      27.802  48.118  -3.525  1.00  0.00     0.009 A 
ENDBRANCH   9  10
ENDBRANCH   8   9
BRANCH   4  16
HETATM   16  O2  UNL     1      32.118  50.821  -2.763  1.00  0.00    -0.391 OA
ATOM     17  H2  UNL     1      32.613  51.607  -2.562  1.00  0.00     0.210 HD
ENDBRANCH   4  16
BRANCH   6  18
HETATM   18  O4  UNL     1      34.676  48.047  -4.915  1.00  0.00    -0.385 OA
ATOM     19  H4  UNL     1      35.108  48.027  -4.070  1.00  0.00     0.210 HD
ENDBRANCH   6  18
BRANCH   1  20
HETATM   20  C1  UNL     1      32.701  47.232  -6.855  1.00  0.00     0.172 C 
BRANCH  20  21
HETATM   21  O1  UNL     1      33.960  47.130  -7.493  1.00  0.00    -0.400 OA
ATOM     22  H1  UNL     1      34.606  47.315  -6.822  1.00  0.00     0.209 HD
ENDBRANCH  20  21
ENDBRANCH   1  20
BRANCH   5  23
HETATM   23  O3  UNL     1      34.415  50.231  -3.412  1.00  0.00    -0.390 OA
ATOM     24  H3  UNL     1      34.973  50.985  -3.562  1.00  0.00     0.210 HD
ENDBRANCH   5  23
TORSDOF 7
ENDMDL
