MODEL 17
REMARK VINA RESULT: -7.793316807      3.952      7.013
REMARK  8 active torsions:
REMARK  status: ('A' for Active; 'I' for Inactive)
REMARK    1  A    between atoms: O1_1  and  C1_3 
REMARK    2  A    between atoms: C1_3  and  C2_4 
REMARK    3  A    between atoms: C3_5  and  O2_6 
REMARK    4  A    between atoms: C4_8  and  O3_9 
REMARK    5  A    between atoms: C5_11  and  O4_12 
REMARK    6  A    between atoms: C7_17  and  C8_18 
REMARK    7  A    between atoms: C8_18  and  N2_19 
REMARK    8  A    between atoms: N2_19  and  C9_21 
ROOT
HETATM    1  C2  UNL     1      33.983  49.249  -4.856  1.00  0.00     0.145 C 
HETATM    2  C3  UNL     1      34.375  50.685  -4.759  1.00  0.00     0.175 C 
HETATM    3  C4  UNL     1      33.407  51.607  -5.466  1.00  0.00     0.185 C 
HETATM    4  C5  UNL     1      32.081  51.486  -4.746  1.00  0.00     0.217 C 
HETATM    5  C6  UNL     1      31.660  50.061  -4.824  1.00  0.00     0.116 A 
HETATM    6  N1  UNL     1      30.416  49.516  -4.860  1.00  0.00    -0.344 N 
ATOM      7  H1  UNL     1      29.544  50.046  -4.836  1.00  0.00     0.167 HD
HETATM    8  C7  UNL     1      30.503  48.183  -4.931  1.00  0.00     0.044 A 
HETATM    9  C15 UNL     1      31.863  47.901  -4.939  1.00  0.00     0.119 A 
HETATM   10  N3  UNL     1      32.547  49.058  -4.873  1.00  0.00    -0.333 N 
ENDROOT
BRANCH   8  11
HETATM   11  C8  UNL     1      29.419  47.167  -4.991  1.00  0.00     0.178 C 
BRANCH  11  12
HETATM   12  N2  UNL     1      28.917  46.840  -3.693  1.00  0.00    -0.384 N 
ATOM     13  H2  UNL     1      29.156  45.950  -3.257  1.00  0.00     0.160 HD
BRANCH  12  14
HETATM   14  C9  UNL     1      28.077  47.775  -3.015  1.00  0.00     0.028 A 
HETATM   15  C10 UNL     1      28.205  47.969  -1.658  1.00  0.00     0.029 A 
HETATM   16  C11 UNL     1      27.388  48.870  -1.029  1.00  0.00     0.002 A 
HETATM   17  C12 UNL     1      26.429  49.602  -1.709  1.00  0.00     0.000 A 
HETATM   18  C13 UNL     1      26.326  49.385  -3.070  1.00  0.00     0.002 A 
HETATM   19  C14 UNL     1      27.134  48.487  -3.724  1.00  0.00     0.029 A 
ENDBRANCH  12  14
ENDBRANCH  11  12
ENDBRANCH   8  11
BRANCH   4  20
HETATM   20  O4  UNL     1      32.317  51.873  -3.414  1.00  0.00    -0.385 OA
ATOM     21  H4  UNL     1      32.475  52.810  -3.433  1.00  0.00     0.210 HD
ENDBRANCH   4  20
BRANCH   1  22
HETATM   22  C1  UNL     1      34.562  48.536  -3.625  1.00  0.00     0.192 C 
BRANCH  22  23
HETATM   23  O1  UNL     1      35.311  49.450  -2.885  1.00  0.00    -0.399 OA
ATOM     24  H1  UNL     1      35.294  49.193  -1.971  1.00  0.00     0.209 HD
ENDBRANCH  22  23
ENDBRANCH   1  22
BRANCH   3  25
HETATM   25  O3  UNL     1      33.867  52.909  -5.278  1.00  0.00    -0.390 OA
ATOM     26  H3  UNL     1      33.140  53.417  -4.939  1.00  0.00     0.210 HD
ENDBRANCH   3  25
BRANCH   2  27
HETATM   27  O2  UNL     1      35.638  50.919  -5.293  1.00  0.00    -0.391 OA
ATOM     28  H2  UNL     1      35.644  51.666  -5.880  1.00  0.00     0.210 HD
ENDBRANCH   2  27
TORSDOF 8
ENDMDL
