MODEL 16
REMARK VINA RESULT: -7.835227712      3.877      7.125
REMARK  8 active torsions:
REMARK  status: ('A' for Active; 'I' for Inactive)
REMARK    1  A    between atoms: O1_1  and  C1_3 
REMARK    2  A    between atoms: C1_3  and  C2_4 
REMARK    3  A    between atoms: C3_5  and  O2_6 
REMARK    4  A    between atoms: C4_8  and  O3_9 
REMARK    5  A    between atoms: C5_11  and  O4_12 
REMARK    6  A    between atoms: C7_17  and  C8_18 
REMARK    7  A    between atoms: C8_18  and  N2_19 
REMARK    8  A    between atoms: N2_19  and  C9_21 
ROOT
HETATM    1  C2  UNL     1      33.888  49.393  -5.147  1.00  0.00     0.145 C 
HETATM    2  C3  UNL     1      34.260  50.825  -4.951  1.00  0.00     0.175 C 
HETATM    3  C4  UNL     1      33.211  51.781  -5.473  1.00  0.00     0.185 C 
HETATM    4  C5  UNL     1      31.962  51.556  -4.647  1.00  0.00     0.217 C 
HETATM    5  C6  UNL     1      31.563  50.134  -4.821  1.00  0.00     0.116 A 
HETATM    6  N1  UNL     1      30.332  49.560  -4.791  1.00  0.00    -0.344 N 
ATOM      7  H1  UNL     1      29.457  50.060  -4.635  1.00  0.00     0.167 HD
HETATM    8  C7  UNL     1      30.437  48.242  -4.996  1.00  0.00     0.044 A 
HETATM    9  C15 UNL     1      31.795  48.000  -5.158  1.00  0.00     0.119 A 
HETATM   10  N3  UNL     1      32.461  49.165  -5.048  1.00  0.00    -0.333 N 
ENDROOT
BRANCH   8  11
HETATM   11  C8  UNL     1      29.372  47.206  -5.050  1.00  0.00     0.178 C 
BRANCH  11  12
HETATM   12  N2  UNL     1      29.474  46.274  -3.972  1.00  0.00    -0.384 N 
ATOM     13  H2  UNL     1      29.910  45.364  -4.116  1.00  0.00     0.160 HD
BRANCH  12  14
HETATM   14  C9  UNL     1      28.958  46.634  -2.689  1.00  0.00     0.028 A 
HETATM   15  C10 UNL     1      27.599  46.749  -2.493  1.00  0.00     0.029 A 
HETATM   16  C11 UNL     1      27.128  47.094  -1.255  1.00  0.00     0.002 A 
HETATM   17  C12 UNL     1      27.968  47.335  -0.181  1.00  0.00     0.000 A 
HETATM   18  C13 UNL     1      29.325  47.211  -0.411  1.00  0.00     0.002 A 
HETATM   19  C14 UNL     1      29.824  46.865  -1.643  1.00  0.00     0.029 A 
ENDBRANCH  12  14
ENDBRANCH  11  12
ENDBRANCH   8  11
BRANCH   4  20
HETATM   20  O4  UNL     1      32.318  51.825  -3.312  1.00  0.00    -0.385 OA
ATOM     21  H4  UNL     1      32.569  52.741  -3.282  1.00  0.00     0.210 HD
ENDBRANCH   4  20
BRANCH   1  22
HETATM   22  C1  UNL     1      34.595  48.586  -4.049  1.00  0.00     0.192 C 
BRANCH  22  23
HETATM   23  O1  UNL     1      35.111  49.469  -3.101  1.00  0.00    -0.399 OA
ATOM     24  H1  UNL     1      34.390  49.922  -2.680  1.00  0.00     0.209 HD
ENDBRANCH  22  23
ENDBRANCH   1  22
BRANCH   3  25
HETATM   25  O3  UNL     1      33.662  53.072  -5.206  1.00  0.00    -0.390 OA
ATOM     26  H3  UNL     1      34.397  53.237  -5.785  1.00  0.00     0.210 HD
ENDBRANCH   3  25
BRANCH   2  27
HETATM   27  O2  UNL     1      35.461  51.143  -5.576  1.00  0.00    -0.391 OA
ATOM     28  H2  UNL     1      35.515  52.065  -5.798  1.00  0.00     0.210 HD
ENDBRANCH   2  27
TORSDOF 8
ENDMDL
