MODEL 13
REMARK VINA RESULT: -7.917441770      4.003      6.521
REMARK  8 active torsions:
REMARK  status: ('A' for Active; 'I' for Inactive)
REMARK    1  A    between atoms: O1_1  and  C1_3 
REMARK    2  A    between atoms: C1_3  and  C2_4 
REMARK    3  A    between atoms: C3_5  and  O2_6 
REMARK    4  A    between atoms: C4_8  and  O3_9 
REMARK    5  A    between atoms: C5_11  and  O4_12 
REMARK    6  A    between atoms: C7_17  and  C8_18 
REMARK    7  A    between atoms: C8_18  and  N2_19 
REMARK    8  A    between atoms: N2_19  and  C9_21 
ROOT
HETATM    1  C2  UNL     1      31.944  50.472  -4.304  1.00  0.00     0.145 C 
HETATM    2  C3  UNL     1      33.434  50.516  -4.260  1.00  0.00     0.175 C 
HETATM    3  C4  UNL     1      34.041  49.279  -3.636  1.00  0.00     0.185 C 
HETATM    4  C5  UNL     1      33.683  48.114  -4.535  1.00  0.00     0.217 C 
HETATM    5  C6  UNL     1      32.199  48.042  -4.600  1.00  0.00     0.116 A 
HETATM    6  N1  UNL     1      31.380  46.970  -4.766  1.00  0.00    -0.344 N 
ATOM      7  H1  UNL     1      31.695  46.005  -4.876  1.00  0.00     0.167 HD
HETATM    8  C7  UNL     1      30.102  47.365  -4.764  1.00  0.00     0.044 A 
HETATM    9  C15 UNL     1      30.142  48.743  -4.590  1.00  0.00     0.119 A 
HETATM   10  N3  UNL     1      31.427  49.132  -4.492  1.00  0.00    -0.333 N 
ENDROOT
BRANCH   8  11
HETATM   11  C8  UNL     1      28.863  46.558  -4.913  1.00  0.00     0.178 C 
BRANCH  11  12
HETATM   12  N2  UNL     1      28.530  45.859  -3.712  1.00  0.00    -0.384 N 
ATOM     13  H2  UNL     1      28.450  44.842  -3.711  1.00  0.00     0.160 HD
BRANCH  12  14
HETATM   14  C9  UNL     1      28.309  46.601  -2.512  1.00  0.00     0.028 A 
HETATM   15  C10 UNL     1      27.338  47.577  -2.466  1.00  0.00     0.029 A 
HETATM   16  C11 UNL     1      27.145  48.276  -1.304  1.00  0.00     0.002 A 
HETATM   17  C12 UNL     1      27.893  48.040  -0.163  1.00  0.00     0.000 A 
HETATM   18  C13 UNL     1      28.859  47.055  -0.242  1.00  0.00     0.002 A 
HETATM   19  C14 UNL     1      29.072  46.339  -1.395  1.00  0.00     0.029 A 
ENDBRANCH  12  14
ENDBRANCH  11  12
ENDBRANCH   8  11
BRANCH   4  20
HETATM   20  O4  UNL     1      34.233  48.405  -5.797  1.00  0.00    -0.385 OA
ATOM     21  H4  UNL     1      35.162  48.549  -5.656  1.00  0.00     0.210 HD
ENDBRANCH   4  20
BRANCH   1  22
HETATM   22  C1  UNL     1      31.498  51.345  -5.485  1.00  0.00     0.192 C 
BRANCH  22  23
HETATM   23  O1  UNL     1      30.522  52.238  -5.044  1.00  0.00    -0.399 OA
ATOM     24  H1  UNL     1      30.381  52.895  -5.715  1.00  0.00     0.209 HD
ENDBRANCH  22  23
ENDBRANCH   1  22
BRANCH   3  25
HETATM   25  O3  UNL     1      35.425  49.432  -3.682  1.00  0.00    -0.390 OA
ATOM     26  H3  UNL     1      35.708  49.167  -4.549  1.00  0.00     0.210 HD
ENDBRANCH   3  25
BRANCH   2  27
HETATM   27  O2  UNL     1      33.904  51.614  -3.547  1.00  0.00    -0.391 OA
ATOM     28  H2  UNL     1      34.548  51.367  -2.894  1.00  0.00     0.210 HD
ENDBRANCH   2  27
TORSDOF 8
ENDMDL
