MODEL 2
REMARK VINA RESULT: -7.327060683      0.092      1.023
REMARK  1 active torsions:
REMARK  status: ('A' for Active; 'I' for Inactive)
REMARK    1  A    between atoms: C5_7  and  C6_8 
ROOT
HETATM    1  C1  UNL     1      41.570  32.294  29.378  1.00  0.00     0.088 C 
HETATM    2  C2  UNL     1      42.048  32.699  30.741  1.00  0.00     0.069 C 
HETATM    3  N1  UNL     1      42.066  33.937  31.094  1.00  0.00    -0.380 N 
ATOM      4  H1  UNL     1      41.745  34.626  30.415  1.00  0.00     0.160 HD
HETATM    5  C3  UNL     1      42.506  34.418  32.373  1.00  0.00     0.123 C 
HETATM    6  C4  UNL     1      42.537  33.320  33.419  1.00  0.00     0.056 C 
HETATM    7  C5  UNL     1      43.271  32.156  32.787  1.00  0.00     0.185 C 
HETATM    8  N2  UNL     1      42.490  31.705  31.663  1.00  0.00    -0.366 N 
ATOM      9  H2  UNL     1      42.263  30.719  31.534  1.00  0.00     0.161 HD
ENDROOT
BRANCH   7  10
HETATM   10  C6  UNL     1      43.555  31.076  33.757  1.00  0.00     0.196 C 
HETATM   11  O1  UNL     1      43.316  29.867  33.537  1.00  0.00    -0.646 OA
HETATM   12  O2  UNL     1      44.114  31.446  34.973  1.00  0.00    -0.646 OA
ENDBRANCH   7  10
TORSDOF 1
ENDMDL
