MODEL 8
REMARK VINA RESULT: -5.072127176      6.708      7.785
REMARK  1 active torsions:
REMARK  status: ('A' for Active; 'I' for Inactive)
REMARK    1  A    between atoms: C5_7  and  C6_8 
ROOT
HETATM    1  C1  UNL     1      43.953  35.337  35.716  1.00  0.00     0.088 C 
HETATM    2  C2  UNL     1      43.913  35.367  37.215  1.00  0.00     0.069 C 
HETATM    3  N1  UNL     1      44.870  34.859  37.911  1.00  0.00    -0.380 N 
ATOM      4  H1  UNL     1      45.650  34.439  37.407  1.00  0.00     0.160 HD
HETATM    5  C3  UNL     1      44.918  34.840  39.346  1.00  0.00     0.123 C 
HETATM    6  C4  UNL     1      43.967  35.846  39.966  1.00  0.00     0.056 C 
HETATM    7  C5  UNL     1      42.632  35.642  39.279  1.00  0.00     0.185 C 
HETATM    8  N2  UNL     1      42.805  35.963  37.885  1.00  0.00    -0.366 N 
ATOM      9  H2  UNL     1      42.162  36.589  37.399  1.00  0.00     0.161 HD
ENDROOT
BRANCH   7  10
HETATM   10  C6  UNL     1      41.548  36.421  39.915  1.00  0.00     0.196 C 
HETATM   11  O1  UNL     1      41.163  36.237  41.092  1.00  0.00    -0.646 OA
HETATM   12  O2  UNL     1      40.936  37.403  39.148  1.00  0.00    -0.646 OA
ENDBRANCH   7  10
TORSDOF 1
ENDMDL
