MODEL 7
REMARK VINA RESULT: -5.084387476      6.657      7.752
REMARK  1 active torsions:
REMARK  status: ('A' for Active; 'I' for Inactive)
REMARK    1  A    between atoms: C5_7  and  C6_8 
ROOT
HETATM    1  C1  UNL     1      43.975  35.295  35.649  1.00  0.00     0.088 C 
HETATM    2  C2  UNL     1      43.908  35.356  37.146  1.00  0.00     0.069 C 
HETATM    3  N1  UNL     1      44.845  34.853  37.870  1.00  0.00    -0.380 N 
ATOM      4  H1  UNL     1      45.631  34.415  37.389  1.00  0.00     0.160 HD
HETATM    5  C3  UNL     1      44.867  34.862  39.306  1.00  0.00     0.123 C 
HETATM    6  C4  UNL     1      43.914  35.889  39.887  1.00  0.00     0.056 C 
HETATM    7  C5  UNL     1      42.590  35.685  39.179  1.00  0.00     0.185 C 
HETATM    8  N2  UNL     1      42.792  35.976  37.783  1.00  0.00    -0.366 N 
ATOM      9  H2  UNL     1      42.165  36.598  37.272  1.00  0.00     0.161 HD
ENDROOT
BRANCH   7  10
HETATM   10  C6  UNL     1      41.502  36.486  39.779  1.00  0.00     0.196 C 
HETATM   11  O1  UNL     1      40.925  37.425  39.186  1.00  0.00    -0.646 OA
HETATM   12  O2  UNL     1      41.115  36.164  41.073  1.00  0.00    -0.646 OA
ENDBRANCH   7  10
TORSDOF 1
ENDMDL
