MODEL 11
REMARK VINA RESULT: -4.462814314      8.267      9.452
REMARK  1 active torsions:
REMARK  status: ('A' for Active; 'I' for Inactive)
REMARK    1  A    between atoms: C5_7  and  C6_8 
ROOT
HETATM    1  C1  UNL     1      46.672  37.754  40.663  1.00  0.00     0.088 C 
HETATM    2  C2  UNL     1      45.535  38.233  39.810  1.00  0.00     0.069 C 
HETATM    3  N1  UNL     1      45.566  39.397  39.262  1.00  0.00    -0.380 N 
ATOM      4  H1  UNL     1      46.388  39.977  39.429  1.00  0.00     0.160 HD
HETATM    5  C3  UNL     1      44.527  39.941  38.433  1.00  0.00     0.123 C 
HETATM    6  C4  UNL     1      43.593  38.868  37.906  1.00  0.00     0.056 C 
HETATM    7  C5  UNL     1      43.205  38.023  39.102  1.00  0.00     0.185 C 
HETATM    8  N2  UNL     1      44.401  37.394  39.600  1.00  0.00    -0.366 N 
ATOM      9  H2  UNL     1      44.436  36.393  39.794  1.00  0.00     0.161 HD
ENDROOT
BRANCH   7  10
HETATM   10  C6  UNL     1      42.138  37.050  38.780  1.00  0.00     0.196 C 
HETATM   11  O1  UNL     1      42.353  35.937  38.249  1.00  0.00    -0.646 OA
HETATM   12  O2  UNL     1      40.834  37.412  39.090  1.00  0.00    -0.646 OA
ENDBRANCH   7  10
TORSDOF 1
ENDMDL
