MODEL 1
REMARK VINA RESULT: -7.334463124      0.000      0.000
REMARK  1 active torsions:
REMARK  status: ('A' for Active; 'I' for Inactive)
REMARK    1  A    between atoms: C5_7  and  C6_8 
ROOT
HETATM    1  C1  UNL     1      41.631  32.249  29.439  1.00  0.00     0.088 C 
HETATM    2  C2  UNL     1      42.089  32.701  30.794  1.00  0.00     0.069 C 
HETATM    3  N1  UNL     1      42.070  33.947  31.115  1.00  0.00    -0.380 N 
ATOM      4  H1  UNL     1      41.733  34.610  30.418  1.00  0.00     0.160 HD
HETATM    5  C3  UNL     1      42.489  34.473  32.384  1.00  0.00     0.123 C 
HETATM    6  C4  UNL     1      42.545  33.403  33.458  1.00  0.00     0.056 C 
HETATM    7  C5  UNL     1      43.316  32.244  32.859  1.00  0.00     0.185 C 
HETATM    8  N2  UNL     1      42.554  31.743  31.743  1.00  0.00    -0.366 N 
ATOM      9  H2  UNL     1      42.356  30.748  31.637  1.00  0.00     0.161 HD
ENDROOT
BRANCH   7  10
HETATM   10  C6  UNL     1      43.624  31.198  33.857  1.00  0.00     0.196 C 
HETATM   11  O1  UNL     1      44.124  31.438  34.979  1.00  0.00    -0.646 OA
HETATM   12  O2  UNL     1      43.336  29.885  33.511  1.00  0.00    -0.646 OA
ENDBRANCH   7  10
TORSDOF 1
ENDMDL
