MODEL 6
REMARK VINA RESULT: -4.572755758      6.621      7.683
REMARK  2 active torsions:
REMARK  status: ('A' for Active; 'I' for Inactive)
REMARK    1  A    between atoms: C3_5  and  C4_6 
REMARK    2  A    between atoms: C5_9  and  O3_10 
ROOT
HETATM    1  C1  UNL     1      44.066  35.338  35.920  1.00  0.00     0.088 C 
HETATM    2  C2  UNL     1      43.957  36.214  37.139  1.00  0.00     0.069 C 
HETATM    3  N1  UNL     1      43.744  35.691  38.289  1.00  0.00    -0.364 N 
ATOM      4  H1  UNL     1      43.653  34.677  38.344  1.00  0.00     0.161 HD
HETATM    5  C3  UNL     1      43.627  36.446  39.507  1.00  0.00     0.214 C 
HETATM    6  C5  UNL     1      43.151  37.837  39.170  1.00  0.00     0.169 C 
HETATM    7  C6  UNL     1      44.161  38.419  38.190  1.00  0.00     0.155 C 
HETATM    8  N2  UNL     1      44.095  37.607  36.984  1.00  0.00    -0.378 N 
ATOM      9  H2  UNL     1      44.147  38.033  36.059  1.00  0.00     0.160 HD
ENDROOT
BRANCH   5  10
HETATM   10  C4  UNL     1      42.756  35.761  40.473  1.00  0.00     0.199 C 
HETATM   11  O1  UNL     1      43.234  34.878  41.213  1.00  0.00    -0.646 OA
HETATM   12  O2  UNL     1      41.424  36.094  40.554  1.00  0.00    -0.646 OA
ENDBRANCH   5  10
BRANCH   6  13
HETATM   13  O3  UNL     1      43.068  38.647  40.296  1.00  0.00    -0.391 OA
ATOM     14  H3  UNL     1      43.825  38.549  40.862  1.00  0.00     0.210 HD
ENDBRANCH   6  13
TORSDOF 2
ENDMDL
