MODEL 7
REMARK VINA RESULT: -4.499309465      6.615      7.869
REMARK  2 active torsions:
REMARK  status: ('A' for Active; 'I' for Inactive)
REMARK    1  A    between atoms: C3_5  and  C4_6 
REMARK    2  A    between atoms: C5_9  and  O3_10 
ROOT
HETATM    1  C1  UNL     1      44.419  35.688  35.911  1.00  0.00     0.088 C 
HETATM    2  C2  UNL     1      44.405  35.667  37.415  1.00  0.00     0.069 C 
HETATM    3  N1  UNL     1      43.291  35.668  38.047  1.00  0.00    -0.364 N 
ATOM      4  H1  UNL     1      42.431  35.686  37.501  1.00  0.00     0.161 HD
HETATM    5  C3  UNL     1      43.180  35.648  39.481  1.00  0.00     0.214 C 
HETATM    6  C5  UNL     1      44.426  36.258  40.072  1.00  0.00     0.169 C 
HETATM    7  C6  UNL     1      45.602  35.447  39.543  1.00  0.00     0.155 C 
HETATM    8  N2  UNL     1      45.635  35.643  38.102  1.00  0.00    -0.378 N 
ATOM      9  H2  UNL     1      46.519  35.760  37.607  1.00  0.00     0.160 HD
ENDROOT
BRANCH   5  10
HETATM   10  C4  UNL     1      41.949  36.316  39.925  1.00  0.00     0.199 C 
HETATM   11  O1  UNL     1      41.405  37.161  39.185  1.00  0.00    -0.646 OA
HETATM   12  O2  UNL     1      41.404  36.010  41.151  1.00  0.00    -0.646 OA
ENDBRANCH   5  10
BRANCH   6  13
HETATM   13  O3  UNL     1      44.416  36.220  41.461  1.00  0.00    -0.391 OA
ATOM     14  H3  UNL     1      45.118  35.681  41.808  1.00  0.00     0.210 HD
ENDBRANCH   6  13
TORSDOF 2
ENDMDL
