MODEL 1
REMARK VINA RESULT: -7.232412050      0.000      0.000
REMARK  2 active torsions:
REMARK  status: ('A' for Active; 'I' for Inactive)
REMARK    1  A    between atoms: C3_5  and  C4_6 
REMARK    2  A    between atoms: C5_9  and  O3_10 
ROOT
HETATM    1  C1  UNL     1      41.662  32.097  29.665  1.00  0.00     0.088 C 
HETATM    2  C2  UNL     1      42.264  32.594  30.951  1.00  0.00     0.069 C 
HETATM    3  N1  UNL     1      42.928  31.795  31.701  1.00  0.00    -0.364 N 
ATOM      4  H1  UNL     1      43.029  30.827  31.396  1.00  0.00     0.161 HD
HETATM    5  C3  UNL     1      43.538  32.178  32.945  1.00  0.00     0.214 C 
HETATM    6  C5  UNL     1      42.780  33.351  33.514  1.00  0.00     0.169 C 
HETATM    7  C6  UNL     1      42.814  34.448  32.458  1.00  0.00     0.155 C 
HETATM    8  N2  UNL     1      42.082  33.945  31.306  1.00  0.00    -0.378 N 
ATOM      9  H2  UNL     1      41.458  34.551  30.773  1.00  0.00     0.160 HD
ENDROOT
BRANCH   5  10
HETATM   10  C4  UNL     1      43.613  31.040  33.871  1.00  0.00     0.199 C 
HETATM   11  O1  UNL     1      44.091  31.205  35.012  1.00  0.00    -0.646 OA
HETATM   12  O2  UNL     1      43.160  29.802  33.477  1.00  0.00    -0.646 OA
ENDBRANCH   5  10
BRANCH   6  13
HETATM   13  O3  UNL     1      43.350  33.817  34.693  1.00  0.00    -0.391 OA
ATOM     14  H3  UNL     1      43.845  34.616  34.558  1.00  0.00     0.210 HD
ENDBRANCH   6  13
TORSDOF 2
ENDMDL
