MODEL 5
REMARK VINA RESULT: -4.597807232      7.422      8.932
REMARK  2 active torsions:
REMARK  status: ('A' for Active; 'I' for Inactive)
REMARK    1  A    between atoms: C3_5  and  C4_6 
REMARK    2  A    between atoms: C5_9  and  O3_10 
ROOT
HETATM    1  C1  UNL     1      46.433  35.661  39.227  1.00  0.00     0.088 C 
HETATM    2  C2  UNL     1      45.028  36.155  39.017  1.00  0.00     0.069 C 
HETATM    3  N1  UNL     1      44.595  37.163  39.678  1.00  0.00    -0.364 N 
ATOM      4  H1  UNL     1      45.229  37.609  40.341  1.00  0.00     0.161 HD
HETATM    5  C3  UNL     1      43.270  37.706  39.544  1.00  0.00     0.214 C 
HETATM    6  C5  UNL     1      42.345  36.611  39.074  1.00  0.00     0.169 C 
HETATM    7  C6  UNL     1      42.921  36.084  37.766  1.00  0.00     0.155 C 
HETATM    8  N2  UNL     1      44.210  35.489  38.083  1.00  0.00    -0.378 N 
ATOM      9  H2  UNL     1      44.511  34.619  37.643  1.00  0.00     0.160 HD
ENDROOT
BRANCH   5  10
HETATM   10  C4  UNL     1      42.826  38.334  40.795  1.00  0.00     0.199 C 
HETATM   11  O1  UNL     1      43.486  39.276  41.279  1.00  0.00    -0.646 OA
HETATM   12  O2  UNL     1      41.691  37.881  41.427  1.00  0.00    -0.646 OA
ENDBRANCH   5  10
BRANCH   6  13
HETATM   13  O3  UNL     1      41.052  37.076  38.864  1.00  0.00    -0.391 OA
ATOM     14  H3  UNL     1      40.499  36.946  39.625  1.00  0.00     0.210 HD
ENDBRANCH   6  13
TORSDOF 2
ENDMDL
