MODEL 4
REMARK VINA RESULT: -6.480598139      2.819      3.616
REMARK  8 active torsions:
REMARK  status: ('A' for Active; 'I' for Inactive)
REMARK    1  A    between atoms: N1_1  and  C1_5 
REMARK    2  A    between atoms: C1_5  and  C2_6 
REMARK    3  A    between atoms: C2_6  and  N2_7 
REMARK    4  A    between atoms: C4_12  and  C5_13 
REMARK    5  A    between atoms: C5_13  and  O1_14 
REMARK    6  A    between atoms: C6_16  and  O2_17 
REMARK    7  A    between atoms: C7_19  and  O3_20 
REMARK    8  A    between atoms: C8_22  and  O4_23 
ROOT
HETATM    1  N2  UNL     1      30.706  50.048  -4.859  1.00  0.00    -0.376 N 
ATOM      2  H2  UNL     1      29.971  50.323  -5.512  1.00  0.00     0.160 HD
HETATM    3  C3  UNL     1      30.463  48.994  -4.183  1.00  0.00     0.105 C 
HETATM    4  N3  UNL     1      29.270  48.234  -4.304  1.00  0.00    -0.368 N 
ATOM      5  H3  UNL     1      28.597  48.408  -5.049  1.00  0.00     0.161 HD
HETATM    6  C4  UNL     1      29.060  47.199  -3.315  1.00  0.00     0.137 C 
HETATM    7  C6  UNL     1      29.346  47.849  -1.980  1.00  0.00     0.174 C 
HETATM    8  C7  UNL     1      30.762  48.292  -1.889  1.00  0.00     0.185 C 
HETATM    9  C8  UNL     1      31.460  48.505  -3.208  1.00  0.00     0.216 C 
ENDROOT
BRANCH   1  10
HETATM   10  C2  UNL     1      31.840  50.892  -4.840  1.00  0.00     0.148 C 
BRANCH  10  11
HETATM   11  C1  UNL     1      31.419  52.207  -5.523  1.00  0.00     0.249 C 
BRANCH  11  12
HETATM   12  N1  UNL     1      30.097  52.614  -5.086  1.00  0.00    -0.078 N 
ATOM     13  H13 UNL     1      29.864  52.226  -4.172  1.00  0.00     0.274 HD
ATOM     14  H12 UNL     1      30.069  53.605  -4.844  1.00  0.00     0.274 HD
ATOM     15  H11 UNL     1      29.395  52.377  -5.787  1.00  0.00     0.274 HD
ENDBRANCH  11  12
ENDBRANCH  10  11
ENDBRANCH   1  10
BRANCH   9  16
HETATM   16  O4  UNL     1      32.501  49.417  -2.989  1.00  0.00    -0.385 OA
ATOM     17  H4  UNL     1      33.118  49.122  -2.330  1.00  0.00     0.210 HD
ENDBRANCH   9  16
BRANCH   6  18
HETATM   18  C5  UNL     1      27.672  46.617  -3.381  1.00  0.00     0.191 C 
BRANCH  18  19
HETATM   19  O1  UNL     1      27.663  45.291  -3.017  1.00  0.00    -0.399 OA
ATOM     20  H1  UNL     1      27.459  44.728  -3.755  1.00  0.00     0.209 HD
ENDBRANCH  18  19
ENDBRANCH   6  18
BRANCH   8  21
HETATM   21  O3  UNL     1      30.845  49.520  -1.195  1.00  0.00    -0.390 OA
ATOM     22  H3  UNL     1      31.561  50.042  -1.537  1.00  0.00     0.210 HD
ENDBRANCH   8  21
BRANCH   7  23
HETATM   23  O2  UNL     1      28.948  47.049  -0.914  1.00  0.00    -0.391 OA
ATOM     24  H2  UNL     1      28.946  47.526  -0.092  1.00  0.00     0.210 HD
ENDBRANCH   7  23
TORSDOF 8
ENDMDL
