MODEL 5
REMARK VINA RESULT: -6.376673792      2.181      2.742
REMARK  8 active torsions:
REMARK  status: ('A' for Active; 'I' for Inactive)
REMARK    1  A    between atoms: N1_1  and  C1_5 
REMARK    2  A    between atoms: C1_5  and  C2_6 
REMARK    3  A    between atoms: C2_6  and  N2_7 
REMARK    4  A    between atoms: C4_12  and  C5_13 
REMARK    5  A    between atoms: C5_13  and  O1_14 
REMARK    6  A    between atoms: C6_16  and  O2_17 
REMARK    7  A    between atoms: C7_19  and  O3_20 
REMARK    8  A    between atoms: C8_22  and  O4_23 
ROOT
HETATM    1  N2  UNL     1      31.116  49.071  -2.653  1.00  0.00    -0.376 N 
ATOM      2  H2  UNL     1      31.474  49.212  -1.708  1.00  0.00     0.160 HD
HETATM    3  C3  UNL     1      29.969  48.517  -2.722  1.00  0.00     0.105 C 
HETATM    4  N3  UNL     1      29.217  48.112  -1.588  1.00  0.00    -0.368 N 
ATOM      5  H3  UNL     1      29.491  48.376  -0.641  1.00  0.00     0.161 HD
HETATM    6  C4  UNL     1      28.044  47.306  -1.844  1.00  0.00     0.137 C 
HETATM    7  C6  UNL     1      28.492  46.232  -2.809  1.00  0.00     0.174 C 
HETATM    8  C7  UNL     1      28.938  46.819  -4.100  1.00  0.00     0.185 C 
HETATM    9  C8  UNL     1      29.356  48.266  -4.043  1.00  0.00     0.216 C 
ENDROOT
BRANCH   1  10
HETATM   10  C2  UNL     1      31.966  49.521  -3.690  1.00  0.00     0.148 C 
BRANCH  10  11
HETATM   11  C1  UNL     1      31.892  51.059  -3.682  1.00  0.00     0.249 C 
BRANCH  11  12
HETATM   12  N1  UNL     1      30.880  51.531  -4.607  1.00  0.00    -0.078 N 
ATOM     13  H13 UNL     1      31.270  51.721  -5.530  1.00  0.00     0.274 HD
ATOM     14  H12 UNL     1      30.229  50.790  -4.864  1.00  0.00     0.274 HD
ATOM     15  H11 UNL     1      30.394  52.344  -4.228  1.00  0.00     0.274 HD
ENDBRANCH  11  12
ENDBRANCH  10  11
ENDBRANCH   1  10
BRANCH   9  16
HETATM   16  O4  UNL     1      30.241  48.490  -5.105  1.00  0.00    -0.385 OA
ATOM     17  H4  UNL     1      30.793  49.251  -4.972  1.00  0.00     0.210 HD
ENDBRANCH   9  16
BRANCH   6  18
HETATM   18  C5  UNL     1      27.457  46.731  -0.582  1.00  0.00     0.191 C 
BRANCH  18  19
HETATM   19  O1  UNL     1      28.028  45.521  -0.265  1.00  0.00    -0.399 OA
ATOM     20  H1  UNL     1      28.958  45.513  -0.459  1.00  0.00     0.209 HD
ENDBRANCH  18  19
ENDBRANCH   6  18
BRANCH   8  21
HETATM   21  O3  UNL     1      30.050  46.106  -4.601  1.00  0.00    -0.390 OA
ATOM     22  H3  UNL     1      30.296  46.442  -5.455  1.00  0.00     0.210 HD
ENDBRANCH   8  21
BRANCH   7  23
HETATM   23  O2  UNL     1      27.536  45.232  -2.958  1.00  0.00    -0.391 OA
ATOM     24  H2  UNL     1      27.931  44.376  -3.071  1.00  0.00     0.210 HD
ENDBRANCH   7  23
TORSDOF 8
ENDMDL
