MODEL 6
REMARK VINA RESULT: -6.335397271      2.618      3.513
REMARK  8 active torsions:
REMARK  status: ('A' for Active; 'I' for Inactive)
REMARK    1  A    between atoms: N1_1  and  C1_5 
REMARK    2  A    between atoms: C1_5  and  C2_6 
REMARK    3  A    between atoms: C2_6  and  N2_7 
REMARK    4  A    between atoms: C4_12  and  C5_13 
REMARK    5  A    between atoms: C5_13  and  O1_14 
REMARK    6  A    between atoms: C6_16  and  O2_17 
REMARK    7  A    between atoms: C7_19  and  O3_20 
REMARK    8  A    between atoms: C8_22  and  O4_23 
ROOT
HETATM    1  N2  UNL     1      30.640  48.955  -5.060  1.00  0.00    -0.376 N 
ATOM      2  H2  UNL     1      29.854  48.925  -5.710  1.00  0.00     0.160 HD
HETATM    3  C3  UNL     1      30.529  48.196  -4.041  1.00  0.00     0.105 C 
HETATM    4  N3  UNL     1      29.410  47.356  -3.798  1.00  0.00    -0.368 N 
ATOM      5  H3  UNL     1      28.691  47.204  -4.506  1.00  0.00     0.161 HD
HETATM    6  C4  UNL     1      29.343  46.728  -2.497  1.00  0.00     0.137 C 
HETATM    7  C6  UNL     1      29.624  47.830  -1.500  1.00  0.00     0.174 C 
HETATM    8  C7  UNL     1      30.993  48.379  -1.676  1.00  0.00     0.185 C 
HETATM    9  C8  UNL     1      31.610  48.161  -3.034  1.00  0.00     0.216 C 
ENDROOT
BRANCH   1  10
HETATM   10  C2  UNL     1      31.687  49.833  -5.423  1.00  0.00     0.148 C 
BRANCH  10  11
HETATM   11  C1  UNL     1      31.149  51.262  -5.231  1.00  0.00     0.249 C 
BRANCH  11  12
HETATM   12  N1  UNL     1      31.470  51.761  -3.906  1.00  0.00    -0.078 N 
ATOM     13  H13 UNL     1      30.700  51.619  -3.252  1.00  0.00     0.274 HD
ATOM     14  H12 UNL     1      32.171  51.181  -3.446  1.00  0.00     0.274 HD
ATOM     15  H11 UNL     1      31.755  52.739  -3.947  1.00  0.00     0.274 HD
ENDBRANCH  11  12
ENDBRANCH  10  11
ENDBRANCH   1  10
BRANCH   9  16
HETATM   16  O4  UNL     1      32.567  49.165  -3.227  1.00  0.00    -0.385 OA
ATOM     17  H4  UNL     1      33.285  48.888  -3.783  1.00  0.00     0.210 HD
ENDBRANCH   9  16
BRANCH   6  18
HETATM   18  C5  UNL     1      28.016  46.060  -2.252  1.00  0.00     0.191 C 
BRANCH  18  19
HETATM   19  O1  UNL     1      28.142  44.979  -1.410  1.00  0.00    -0.399 OA
ATOM     20  H1  UNL     1      27.304  44.719  -1.048  1.00  0.00     0.209 HD
ENDBRANCH  18  19
ENDBRANCH   6  18
BRANCH   8  21
HETATM   21  O3  UNL     1      30.988  49.776  -1.464  1.00  0.00    -0.390 OA
ATOM     22  H3  UNL     1      30.368  50.194  -2.050  1.00  0.00     0.210 HD
ENDBRANCH   8  21
BRANCH   7  23
HETATM   23  O2  UNL     1      29.350  47.433  -0.194  1.00  0.00    -0.391 OA
ATOM     24  H2  UNL     1      30.111  47.051   0.228  1.00  0.00     0.210 HD
ENDBRANCH   7  23
TORSDOF 8
ENDMDL
