MODEL 4
REMARK VINA RESULT: -7.871886431      1.423      2.035
REMARK  10 active torsions:
REMARK  status: ('A' for Active; 'I' for Inactive)
REMARK    1  A    between atoms: N2_4  and  C3_5 
REMARK    2  A    between atoms: C4_7  and  C5_8 
REMARK    3  A    between atoms: C5_8  and  O2_9 
REMARK    4  A    between atoms: O2_9  and  P1_10 
REMARK    5  A    between atoms: P1_10  and  O5_13 
REMARK    6  A    between atoms: O5_13  and  P2_14 
REMARK    7  A    between atoms: P2_14  and  O8_17 
REMARK    8  A    between atoms: O8_17  and  P3_18 
REMARK    9  A    between atoms: C6_22  and  O12_23 
REMARK   10  A    between atoms: C7_25  and  O13_26 
ROOT
HETATM    1  C3  UNL     1      47.354  24.448 -27.903  1.00  0.00     0.258 C 
HETATM    2  O1  UNL     1      46.206  24.095 -27.230  1.00  0.00    -0.354 OA
HETATM    3  C4  UNL     1      45.355  23.475 -28.131  1.00  0.00     0.180 C 
HETATM    4  C6  UNL     1      46.286  22.741 -29.073  1.00  0.00     0.182 C 
HETATM    5  C7  UNL     1      47.337  23.814 -29.270  1.00  0.00     0.198 C 
ENDROOT
BRANCH   1   6
HETATM    6  N2  UNL     1      48.539  24.110 -27.139  1.00  0.00    -0.320 N 
HETATM    7  C2  UNL     1      49.854  24.665 -27.165  1.00  0.00     0.253 C 
HETATM    8  N1  UNL     1      50.316  24.471 -25.802  1.00  0.00    -0.361 N 
HETATM    9  C1  UNL     1      51.251  25.280 -25.039  1.00  0.00     0.152 C 
HETATM   10  C11 UNL     1      49.661  23.299 -25.336  1.00  0.00     0.144 A 
HETATM   11  C8  UNL     1      48.571  23.079 -26.156  1.00  0.00     0.142 A 
HETATM   12  C10 UNL     1      49.933  22.429 -24.277  1.00  0.00     0.278 A 
HETATM   13  N3  UNL     1      47.804  22.003 -25.884  1.00  0.00    -0.314 N 
HETATM   14  C9  UNL     1      48.061  21.159 -24.864  1.00  0.00     0.196 A 
ATOM     15  H3  UNL     1      46.993  21.820 -26.475  1.00  0.00     0.170 HD
HETATM   16  N4  UNL     1      47.216  20.042 -24.626  1.00  0.00    -0.063 NA
HETATM   17  N5  UNL     1      49.122  21.367 -24.059  1.00  0.00    -0.295 N 
ATOM     18  H5  UNL     1      49.314  20.726 -23.289  1.00  0.00     0.171 HD
HETATM   19  O14 UNL     1      50.937  22.670 -23.558  1.00  0.00    -0.265 OA
ENDBRANCH   1   6
BRANCH   5  20
HETATM   20  O13 UNL     1      46.847  24.714 -30.208  1.00  0.00    -0.388 OA
ATOM     21  H13 UNL     1      47.556  25.038 -30.752  1.00  0.00     0.210 HD
ENDBRANCH   5  20
BRANCH   3  22
HETATM   22  C5  UNL     1      44.361  22.553 -27.468  1.00  0.00     0.216 C 
BRANCH  22  23
HETATM   23  O2  UNL     1      43.322  22.233 -28.311  1.00  0.00    -0.287 OA
BRANCH  23  24
HETATM   24  P1  UNL     1      43.129  20.576 -28.462  1.00  0.00     0.417 P 
HETATM   25  O3  UNL     1      43.929  19.825 -27.397  1.00  0.00    -0.624 OA
HETATM   26  O4  UNL     1      43.675  20.028 -29.972  1.00  0.00    -0.624 OA
BRANCH  24  27
HETATM   27  O5  UNL     1      41.511  20.126 -28.242  1.00  0.00    -0.180 OA
BRANCH  27  28
HETATM   28  P2  UNL     1      40.646  20.593 -29.640  1.00  0.00     0.428 P 
HETATM   29  O6  UNL     1      39.181  20.682 -29.214  1.00  0.00    -0.624 OA
HETATM   30  O7  UNL     1      40.748  19.406 -30.831  1.00  0.00    -0.624 OA
BRANCH  28  31
HETATM   31  O8  UNL     1      41.192  22.096 -30.187  1.00  0.00    -0.173 OA
BRANCH  31  32
HETATM   32  P3  UNL     1      40.579  22.332 -31.745  1.00  0.00     0.431 P 
HETATM   33  O9  UNL     1      40.555  23.799 -32.108  1.00  0.00    -0.616 OA
HETATM   34  O10 UNL     1      38.974  21.771 -31.867  1.00  0.00    -0.616 OA
HETATM   35  O11 UNL     1      41.523  21.488 -32.851  1.00  0.00    -0.616 OA
ENDBRANCH  31  32
ENDBRANCH  28  31
ENDBRANCH  27  28
ENDBRANCH  24  27
ENDBRANCH  23  24
ENDBRANCH  22  23
ENDBRANCH   3  22
BRANCH   4  36
HETATM   36  O12 UNL     1      45.659  22.407 -30.268  1.00  0.00    -0.390 OA
ATOM     37  H12 UNL     1      45.168  21.597 -30.197  1.00  0.00     0.210 HD
ENDBRANCH   4  36
TORSDOF 10
ENDMDL
