MODEL 1
REMARK VINA RESULT: -8.023317017      0.000      0.000
REMARK  10 active torsions:
REMARK  status: ('A' for Active; 'I' for Inactive)
REMARK    1  A    between atoms: N2_4  and  C3_5 
REMARK    2  A    between atoms: C4_7  and  C5_8 
REMARK    3  A    between atoms: C5_8  and  O2_9 
REMARK    4  A    between atoms: O2_9  and  P1_10 
REMARK    5  A    between atoms: P1_10  and  O5_13 
REMARK    6  A    between atoms: O5_13  and  P2_14 
REMARK    7  A    between atoms: P2_14  and  O8_17 
REMARK    8  A    between atoms: O8_17  and  P3_18 
REMARK    9  A    between atoms: C6_22  and  O12_23 
REMARK   10  A    between atoms: C7_25  and  O13_26 
ROOT
HETATM    1  C3  UNL     1      46.404  24.184 -27.686  1.00  0.00     0.258 C 
HETATM    2  O1  UNL     1      45.224  23.617 -27.258  1.00  0.00    -0.354 OA
HETATM    3  C4  UNL     1      44.442  23.362 -28.373  1.00  0.00     0.180 C 
HETATM    4  C6  UNL     1      45.442  23.010 -29.453  1.00  0.00     0.182 C 
HETATM    5  C7  UNL     1      46.482  24.079 -29.187  1.00  0.00     0.198 C 
ENDROOT
BRANCH   1   6
HETATM    6  N2  UNL     1      47.547  23.591 -27.019  1.00  0.00    -0.320 N 
HETATM    7  C2  UNL     1      48.923  23.970 -27.016  1.00  0.00     0.253 C 
HETATM    8  N1  UNL     1      49.380  23.528 -25.711  1.00  0.00    -0.361 N 
HETATM    9  C1  UNL     1      50.427  24.094 -24.878  1.00  0.00     0.152 C 
HETATM   10  C11 UNL     1      48.583  22.396 -25.387  1.00  0.00     0.144 A 
HETATM   11  C8  UNL     1      47.460  22.436 -26.189  1.00  0.00     0.142 A 
HETATM   12  C10 UNL     1      48.757  21.358 -24.467  1.00  0.00     0.278 A 
HETATM   13  N3  UNL     1      46.561  21.441 -26.039  1.00  0.00    -0.314 N 
HETATM   14  C9  UNL     1      46.722  20.436 -25.155  1.00  0.00     0.196 A 
ATOM     15  H3  UNL     1      45.723  21.450 -26.620  1.00  0.00     0.170 HD
HETATM   16  N4  UNL     1      45.741  19.415 -25.042  1.00  0.00    -0.063 NA
HETATM   17  N5  UNL     1      47.816  20.389 -24.368  1.00  0.00    -0.295 N 
ATOM     18  H5  UNL     1      47.934  19.627 -23.701  1.00  0.00     0.171 HD
HETATM   19  O14 UNL     1      49.796  21.364 -23.759  1.00  0.00    -0.265 OA
ENDBRANCH   1   6
BRANCH   5  20
HETATM   20  O13 UNL     1      46.033  25.256 -29.772  1.00  0.00    -0.388 OA
ATOM     21  H13 UNL     1      45.198  25.511 -29.396  1.00  0.00     0.210 HD
ENDBRANCH   5  20
BRANCH   3  22
HETATM   22  C5  UNL     1      43.428  22.267 -28.146  1.00  0.00     0.216 C 
BRANCH  22  23
HETATM   23  O2  UNL     1      42.694  22.011 -29.282  1.00  0.00    -0.287 OA
BRANCH  23  24
HETATM   24  P1  UNL     1      41.778  20.616 -29.129  1.00  0.00     0.417 P 
HETATM   25  O3  UNL     1      40.390  20.923 -28.566  1.00  0.00    -0.624 OA
HETATM   26  O4  UNL     1      42.511  19.511 -28.071  1.00  0.00    -0.624 OA
BRANCH  24  27
HETATM   27  O5  UNL     1      41.524  19.884 -30.635  1.00  0.00    -0.180 OA
BRANCH  27  28
HETATM   28  P2  UNL     1      42.905  20.180 -31.598  1.00  0.00     0.428 P 
HETATM   29  O6  UNL     1      42.924  19.075 -32.652  1.00  0.00    -0.624 OA
HETATM   30  O7  UNL     1      44.313  20.027 -30.687  1.00  0.00    -0.624 OA
BRANCH  28  31
HETATM   31  O8  UNL     1      42.784  21.695 -32.337  1.00  0.00    -0.173 OA
BRANCH  31  32
HETATM   32  P3  UNL     1      41.346  21.722 -33.226  1.00  0.00     0.431 P 
HETATM   33  O9  UNL     1      40.434  22.835 -32.761  1.00  0.00    -0.616 OA
HETATM   34  O10 UNL     1      40.477  20.268 -33.038  1.00  0.00    -0.616 OA
HETATM   35  O11 UNL     1      41.701  21.922 -34.857  1.00  0.00    -0.616 OA
ENDBRANCH  31  32
ENDBRANCH  28  31
ENDBRANCH  27  28
ENDBRANCH  24  27
ENDBRANCH  23  24
ENDBRANCH  22  23
ENDBRANCH   3  22
BRANCH   4  36
HETATM   36  O12 UNL     1      44.896  23.126 -30.726  1.00  0.00    -0.390 OA
ATOM     37  H12 UNL     1      45.029  23.993 -31.092  1.00  0.00     0.210 HD
ENDBRANCH   4  36
TORSDOF 10
ENDMDL
