MODEL 2
REMARK VINA RESULT: -7.944360526      1.017      1.893
REMARK  10 active torsions:
REMARK  status: ('A' for Active; 'I' for Inactive)
REMARK    1  A    between atoms: N2_4  and  C3_5 
REMARK    2  A    between atoms: C4_7  and  C5_8 
REMARK    3  A    between atoms: C5_8  and  O2_9 
REMARK    4  A    between atoms: O2_9  and  P1_10 
REMARK    5  A    between atoms: P1_10  and  O5_13 
REMARK    6  A    between atoms: O5_13  and  P2_14 
REMARK    7  A    between atoms: P2_14  and  O8_17 
REMARK    8  A    between atoms: O8_17  and  P3_18 
REMARK    9  A    between atoms: C6_22  and  O12_23 
REMARK   10  A    between atoms: C7_25  and  O13_26 
ROOT
HETATM    1  C3  UNL     1      46.005  23.753 -27.683  1.00  0.00     0.258 C 
HETATM    2  O1  UNL     1      44.926  23.004 -27.269  1.00  0.00    -0.354 OA
HETATM    3  C4  UNL     1      44.169  22.689 -28.386  1.00  0.00     0.180 C 
HETATM    4  C6  UNL     1      45.192  22.531 -29.492  1.00  0.00     0.182 C 
HETATM    5  C7  UNL     1      46.072  23.726 -29.188  1.00  0.00     0.198 C 
ENDROOT
BRANCH   1   6
HETATM    6  N2  UNL     1      47.232  23.301 -27.056  1.00  0.00    -0.320 N 
HETATM    7  C2  UNL     1      48.570  23.785 -27.170  1.00  0.00     0.253 C 
HETATM    8  N1  UNL     1      49.141  23.476 -25.872  1.00  0.00    -0.361 N 
HETATM    9  C1  UNL     1      50.187  24.181 -25.151  1.00  0.00     0.152 C 
HETATM   10  C11 UNL     1      48.462  22.312 -25.420  1.00  0.00     0.144 A 
HETATM   11  C8  UNL     1      47.292  22.206 -26.146  1.00  0.00     0.142 A 
HETATM   12  C10 UNL     1      48.777  21.359 -24.447  1.00  0.00     0.278 A 
HETATM   13  N3  UNL     1      46.489  21.157 -25.870  1.00  0.00    -0.314 N 
HETATM   14  C9  UNL     1      46.787  20.233 -24.933  1.00  0.00     0.196 A 
ATOM     15  H3  UNL     1      45.619  21.058 -26.393  1.00  0.00     0.170 HD
HETATM   16  N4  UNL     1      45.903  19.150 -24.686  1.00  0.00    -0.063 NA
HETATM   17  N5  UNL     1      47.927  20.330 -24.220  1.00  0.00    -0.295 N 
ATOM     18  H5  UNL     1      48.149  19.630 -23.512  1.00  0.00     0.171 HD
HETATM   19  O14 UNL     1      49.854  21.498 -23.811  1.00  0.00    -0.265 OA
ENDBRANCH   1   6
BRANCH   5  20
HETATM   20  O13 UNL     1      45.450  24.851 -29.714  1.00  0.00    -0.388 OA
ATOM     21  H13 UNL     1      44.746  25.133 -29.142  1.00  0.00     0.210 HD
ENDBRANCH   5  20
BRANCH   3  22
HETATM   22  C5  UNL     1      43.326  21.452 -28.200  1.00  0.00     0.216 C 
BRANCH  22  23
HETATM   23  O2  UNL     1      42.986  20.882 -29.405  1.00  0.00    -0.287 OA
BRANCH  23  24
HETATM   24  P1  UNL     1      41.340  20.987 -29.701  1.00  0.00     0.417 P 
HETATM   25  O3  UNL     1      40.534  20.852 -28.409  1.00  0.00    -0.624 OA
HETATM   26  O4  UNL     1      40.822  19.750 -30.741  1.00  0.00    -0.624 OA
BRANCH  24  27
HETATM   27  O5  UNL     1      40.932  22.494 -30.358  1.00  0.00    -0.180 OA
BRANCH  27  28
HETATM   28  P2  UNL     1      41.253  22.435 -32.036  1.00  0.00     0.428 P 
HETATM   29  O6  UNL     1      41.673  23.850 -32.430  1.00  0.00    -0.624 OA
HETATM   30  O7  UNL     1      39.854  22.070 -32.900  1.00  0.00    -0.624 OA
BRANCH  28  31
HETATM   31  O8  UNL     1      42.502  21.341 -32.350  1.00  0.00    -0.173 OA
BRANCH  31  32
HETATM   32  P3  UNL     1      43.047  21.620 -33.927  1.00  0.00     0.431 P 
HETATM   33  O9  UNL     1      41.890  21.805 -34.882  1.00  0.00    -0.616 OA
HETATM   34  O10 UNL     1      43.956  20.300 -34.508  1.00  0.00    -0.616 OA
HETATM   35  O11 UNL     1      44.025  22.988 -33.946  1.00  0.00    -0.616 OA
ENDBRANCH  31  32
ENDBRANCH  28  31
ENDBRANCH  27  28
ENDBRANCH  24  27
ENDBRANCH  23  24
ENDBRANCH  22  23
ENDBRANCH   3  22
BRANCH   4  36
HETATM   36  O12 UNL     1      44.612  22.624 -30.752  1.00  0.00    -0.390 OA
ATOM     37  H12 UNL     1      45.182  22.282 -31.431  1.00  0.00     0.210 HD
ENDBRANCH   4  36
TORSDOF 10
ENDMDL
