MODEL 3
REMARK VINA RESULT: -7.590386843      0.752      1.156
REMARK  12 active torsions:
REMARK  status: ('A' for Active; 'I' for Inactive)
REMARK    1  A    between atoms: C2_2  and  C3_3 
REMARK    2  A    between atoms: C3_3  and  C4_4 
REMARK    3  A    between atoms: C4_4  and  C5_5 
REMARK    4  A    between atoms: C5_5  and  C6_6 
REMARK    5  A    between atoms: C6_6  and  C7_7 
REMARK    6  A    between atoms: C7_7  and  C8_8 
REMARK    7  A    between atoms: C8_8  and  N1_9 
REMARK    8  A    between atoms: N1_9  and  C9_11 
REMARK    9  A    between atoms: C9_11  and  N2_13 
REMARK   10  A    between atoms: C13_18  and  O2_19 
REMARK   11  A    between atoms: C14_21  and  O3_22 
REMARK   12  A    between atoms: C15_24  and  O4_25 
ROOT
HETATM    1  N2  UNL     1      -0.706   8.825   9.940  1.00  0.00    -0.320 N 
HETATM    2  C10 UNL     1      -1.541   8.996   8.777  1.00  0.00     0.144 C 
HETATM    3  C11 UNL     1      -2.762   9.609   9.500  1.00  0.00     0.198 C 
HETATM    4  O1  UNL     1      -2.200  10.451  10.435  1.00  0.00    -0.362 OA
HETATM    5  C12 UNL     1      -0.876  10.065  10.657  1.00  0.00     0.257 C 
HETATM    6  C13 UNL     1       0.005  11.050   9.870  1.00  0.00     0.198 C 
HETATM    7  C14 UNL     1      -0.444  11.220   8.450  1.00  0.00     0.182 C 
HETATM    8  C15 UNL     1      -1.070  10.026   7.806  1.00  0.00     0.174 C 
ENDROOT
BRANCH   1   9
HETATM    9  C9  UNL     1       0.109   7.745  10.283  1.00  0.00     0.172 C 
HETATM   10  S1  UNL     1       0.431   6.585   9.186  1.00  0.00    -0.041 SA
BRANCH   9  11
HETATM   11  N1  UNL     1       0.665   7.634  11.579  1.00  0.00    -0.367 N 
ATOM     12  H1  UNL     1       1.461   8.214  11.845  1.00  0.00     0.161 HD
BRANCH  11  13
HETATM   13  C8  UNL     1       0.100   6.691  12.528  1.00  0.00     0.122 C 
BRANCH  13  14
HETATM   14  C7  UNL     1      -0.771   7.428  13.486  1.00  0.00     0.020 C 
BRANCH  14  15
HETATM   15  C6  UNL     1      -2.210   7.580  13.139  1.00  0.00     0.002 C 
BRANCH  15  16
HETATM   16  C5  UNL     1      -3.005   6.759  14.165  1.00  0.00     0.000 C 
BRANCH  16  17
HETATM   17  C4  UNL     1      -3.085   7.421  15.499  1.00  0.00     0.000 C 
BRANCH  17  18
HETATM   18  C3  UNL     1      -2.908   6.467  16.680  1.00  0.00    -0.000 C 
BRANCH  18  19
HETATM   19  C2  UNL     1      -1.479   6.630  17.173  1.00  0.00    -0.005 C 
HETATM   20  C1  UNL     1      -0.651   5.454  16.725  1.00  0.00     0.005 C 
ENDBRANCH  18  19
ENDBRANCH  17  18
ENDBRANCH  16  17
ENDBRANCH  15  16
ENDBRANCH  14  15
ENDBRANCH  13  14
ENDBRANCH  11  13
ENDBRANCH   9  11
ENDBRANCH   1   9
BRANCH   8  21
HETATM   21  O4  UNL     1      -2.226  10.442   7.091  1.00  0.00    -0.391 OA
ATOM     22  H4  UNL     1      -2.158  11.387   7.016  1.00  0.00     0.210 HD
ENDBRANCH   8  21
BRANCH   6  23
HETATM   23  O2  UNL     1       0.067  12.243  10.575  1.00  0.00    -0.388 OA
ATOM     24  H2  UNL     1      -0.219  12.081  11.466  1.00  0.00     0.210 HD
ENDBRANCH   6  23
BRANCH   7  25
HETATM   25  O3  UNL     1       0.646  11.596   7.681  1.00  0.00    -0.390 OA
ATOM     26  H3  UNL     1       0.351  12.199   7.008  1.00  0.00     0.210 HD
ENDBRANCH   7  25
TORSDOF 12
ENDMDL
