MODEL 1
REMARK VINA RESULT: -7.876088364      0.000      0.000
REMARK  12 active torsions:
REMARK  status: ('A' for Active; 'I' for Inactive)
REMARK    1  A    between atoms: C2_2  and  C3_3 
REMARK    2  A    between atoms: C3_3  and  C4_4 
REMARK    3  A    between atoms: C4_4  and  C5_5 
REMARK    4  A    between atoms: C5_5  and  C6_6 
REMARK    5  A    between atoms: C6_6  and  C7_7 
REMARK    6  A    between atoms: C7_7  and  C8_8 
REMARK    7  A    between atoms: C8_8  and  N1_9 
REMARK    8  A    between atoms: N1_9  and  C9_11 
REMARK    9  A    between atoms: C9_11  and  N2_13 
REMARK   10  A    between atoms: C13_18  and  O2_19 
REMARK   11  A    between atoms: C14_21  and  O3_22 
REMARK   12  A    between atoms: C15_24  and  O4_25 
ROOT
HETATM    1  N2  UNL     1      -0.638   8.874   9.940  1.00  0.00    -0.320 N 
HETATM    2  C10 UNL     1      -1.539   9.035   8.825  1.00  0.00     0.144 C 
HETATM    3  C11 UNL     1      -2.729   9.622   9.617  1.00  0.00     0.198 C 
HETATM    4  O1  UNL     1      -2.132  10.470  10.525  1.00  0.00    -0.362 OA
HETATM    5  C12 UNL     1      -0.791  10.107  10.672  1.00  0.00     0.257 C 
HETATM    6  C13 UNL     1       0.028  11.110   9.844  1.00  0.00     0.198 C 
HETATM    7  C14 UNL     1      -0.501  11.280   8.451  1.00  0.00     0.182 C 
HETATM    8  C15 UNL     1      -1.139  10.078   7.836  1.00  0.00     0.174 C 
ENDROOT
BRANCH   1   9
HETATM    9  C9  UNL     1       0.213   7.806  10.232  1.00  0.00     0.172 C 
HETATM   10  S1  UNL     1       0.553   6.697   9.089  1.00  0.00    -0.041 SA
BRANCH   9  11
HETATM   11  N1  UNL     1       0.791   7.665  11.516  1.00  0.00    -0.367 N 
ATOM     12  H1  UNL     1       1.471   8.349  11.849  1.00  0.00     0.161 HD
BRANCH  11  13
HETATM   13  C8  UNL     1       0.414   6.544  12.357  1.00  0.00     0.122 C 
BRANCH  13  14
HETATM   14  C7  UNL     1      -0.040   7.057  13.680  1.00  0.00     0.020 C 
BRANCH  14  15
HETATM   15  C6  UNL     1      -1.138   8.061  13.694  1.00  0.00     0.002 C 
BRANCH  15  16
HETATM   16  C5  UNL     1      -2.412   7.334  13.238  1.00  0.00     0.000 C 
BRANCH  16  17
HETATM   17  C4  UNL     1      -2.753   6.168  14.101  1.00  0.00     0.000 C 
BRANCH  17  18
HETATM   18  C3  UNL     1      -4.199   6.160  14.596  1.00  0.00    -0.000 C 
BRANCH  18  19
HETATM   19  C2  UNL     1      -4.205   6.823  15.964  1.00  0.00    -0.005 C 
HETATM   20  C1  UNL     1      -3.035   6.326  16.773  1.00  0.00     0.005 C 
ENDBRANCH  18  19
ENDBRANCH  17  18
ENDBRANCH  16  17
ENDBRANCH  15  16
ENDBRANCH  14  15
ENDBRANCH  13  14
ENDBRANCH  11  13
ENDBRANCH   9  11
ENDBRANCH   1   9
BRANCH   8  21
HETATM   21  O4  UNL     1      -2.340  10.476   7.187  1.00  0.00    -0.391 OA
ATOM     22  H4  UNL     1      -2.072  10.852   6.357  1.00  0.00     0.210 HD
ENDBRANCH   8  21
BRANCH   6  23
HETATM   23  O2  UNL     1       0.107  12.302  10.551  1.00  0.00    -0.388 OA
ATOM     24  H2  UNL     1       0.874  12.269  11.111  1.00  0.00     0.210 HD
ENDBRANCH   6  23
BRANCH   7  25
HETATM   25  O3  UNL     1       0.540  11.678   7.626  1.00  0.00    -0.390 OA
ATOM     26  H3  UNL     1       0.265  12.446   7.139  1.00  0.00     0.210 HD
ENDBRANCH   7  25
TORSDOF 12
ENDMDL
