MODEL 2
REMARK VINA RESULT: -7.820029134      0.677      1.047
REMARK  12 active torsions:
REMARK  status: ('A' for Active; 'I' for Inactive)
REMARK    1  A    between atoms: C2_2  and  C3_3 
REMARK    2  A    between atoms: C3_3  and  C4_4 
REMARK    3  A    between atoms: C4_4  and  C5_5 
REMARK    4  A    between atoms: C5_5  and  C6_6 
REMARK    5  A    between atoms: C6_6  and  C7_7 
REMARK    6  A    between atoms: C7_7  and  C8_8 
REMARK    7  A    between atoms: C8_8  and  N1_9 
REMARK    8  A    between atoms: N1_9  and  C9_11 
REMARK    9  A    between atoms: C9_11  and  N2_13 
REMARK   10  A    between atoms: C13_18  and  O2_19 
REMARK   11  A    between atoms: C14_21  and  O3_22 
REMARK   12  A    between atoms: C15_24  and  O4_25 
ROOT
HETATM    1  N2  UNL     1      -0.683   8.893   9.907  1.00  0.00    -0.320 N 
HETATM    2  C10 UNL     1      -1.557   9.071   8.774  1.00  0.00     0.144 C 
HETATM    3  C11 UNL     1      -2.757   9.669   9.543  1.00  0.00     0.198 C 
HETATM    4  O1  UNL     1      -2.170  10.504  10.468  1.00  0.00    -0.362 OA
HETATM    5  C12 UNL     1      -0.837  10.124  10.642  1.00  0.00     0.257 C 
HETATM    6  C13 UNL     1       0.013  11.122   9.838  1.00  0.00     0.198 C 
HETATM    7  C14 UNL     1      -0.484  11.305   8.435  1.00  0.00     0.182 C 
HETATM    8  C15 UNL     1      -1.123  10.114   7.799  1.00  0.00     0.174 C 
ENDROOT
BRANCH   1   9
HETATM    9  C9  UNL     1       0.148   7.814  10.212  1.00  0.00     0.172 C 
HETATM   10  S1  UNL     1       0.429   6.659   9.098  1.00  0.00    -0.041 SA
BRANCH   9  11
HETATM   11  N1  UNL     1       0.757   7.699  11.484  1.00  0.00    -0.367 N 
ATOM     12  H1  UNL     1       1.537   8.307  11.734  1.00  0.00     0.161 HD
BRANCH  11  13
HETATM   13  C8  UNL     1       0.268   6.714  12.432  1.00  0.00     0.122 C 
BRANCH  13  14
HETATM   14  C7  UNL     1      -1.149   7.023  12.769  1.00  0.00     0.020 C 
BRANCH  14  15
HETATM   15  C6  UNL     1      -1.407   8.114  13.748  1.00  0.00     0.002 C 
BRANCH  15  16
HETATM   16  C5  UNL     1      -1.777   7.441  15.078  1.00  0.00     0.000 C 
BRANCH  16  17
HETATM   17  C4  UNL     1      -3.082   7.912  15.621  1.00  0.00     0.000 C 
BRANCH  17  18
HETATM   18  C3  UNL     1      -4.073   6.789  15.928  1.00  0.00    -0.000 C 
BRANCH  18  19
HETATM   19  C2  UNL     1      -4.302   6.031  14.630  1.00  0.00    -0.005 C 
HETATM   20  C1  UNL     1      -4.150   4.552  14.874  1.00  0.00     0.005 C 
ENDBRANCH  18  19
ENDBRANCH  17  18
ENDBRANCH  16  17
ENDBRANCH  15  16
ENDBRANCH  14  15
ENDBRANCH  13  14
ENDBRANCH  11  13
ENDBRANCH   9  11
ENDBRANCH   1   9
BRANCH   8  21
HETATM   21  O4  UNL     1      -2.305  10.530   7.127  1.00  0.00    -0.391 OA
ATOM     22  H4  UNL     1      -2.053  10.664   6.221  1.00  0.00     0.210 HD
ENDBRANCH   8  21
BRANCH   6  23
HETATM   23  O2  UNL     1       0.091  12.309  10.553  1.00  0.00    -0.388 OA
ATOM     24  H2  UNL     1      -0.365  12.984  10.065  1.00  0.00     0.210 HD
ENDBRANCH   6  23
BRANCH   7  25
HETATM   25  O3  UNL     1       0.579  11.694   7.635  1.00  0.00    -0.390 OA
ATOM     26  H3  UNL     1       0.328  12.474   7.153  1.00  0.00     0.210 HD
ENDBRANCH   7  25
TORSDOF 12
ENDMDL
