MODEL 15
REMARK VINA RESULT: -6.867747049      3.475      5.170
REMARK  12 active torsions:
REMARK  status: ('A' for Active; 'I' for Inactive)
REMARK    1  A    between atoms: C2_2  and  C3_3 
REMARK    2  A    between atoms: C3_3  and  C4_4 
REMARK    3  A    between atoms: C4_4  and  C5_5 
REMARK    4  A    between atoms: C5_5  and  C6_6 
REMARK    5  A    between atoms: C6_6  and  C7_7 
REMARK    6  A    between atoms: C7_7  and  C8_8 
REMARK    7  A    between atoms: C8_8  and  N1_9 
REMARK    8  A    between atoms: N1_9  and  C9_11 
REMARK    9  A    between atoms: C9_11  and  N2_13 
REMARK   10  A    between atoms: C13_18  and  O2_19 
REMARK   11  A    between atoms: C14_21  and  O3_22 
REMARK   12  A    between atoms: C15_24  and  O4_25 
ROOT
HETATM    1  N2  UNL     1      -0.611   8.664   9.733  1.00  0.00    -0.320 N 
HETATM    2  C10 UNL     1      -1.633   8.945   8.754  1.00  0.00     0.144 C 
HETATM    3  C11 UNL     1      -2.713   9.451   9.737  1.00  0.00     0.198 C 
HETATM    4  O1  UNL     1      -2.001  10.196  10.652  1.00  0.00    -0.362 OA
HETATM    5  C12 UNL     1      -0.658   9.815  10.602  1.00  0.00     0.257 C 
HETATM    6  C13 UNL     1       0.076  10.896   9.792  1.00  0.00     0.198 C 
HETATM    7  C14 UNL     1      -0.608  11.212   8.496  1.00  0.00     0.182 C 
HETATM    8  C15 UNL     1      -1.334  10.084   7.839  1.00  0.00     0.174 C 
ENDROOT
BRANCH   1   9
HETATM    9  C9  UNL     1       0.250   7.569   9.812  1.00  0.00     0.172 C 
HETATM   10  S1  UNL     1       0.919   7.156  11.239  1.00  0.00    -0.041 SA
BRANCH   9  11
HETATM   11  N1  UNL     1       0.560   6.802   8.665  1.00  0.00    -0.367 N 
ATOM     12  H1  UNL     1       0.999   7.244   7.856  1.00  0.00     0.161 HD
BRANCH  11  13
HETATM   13  C8  UNL     1       0.252   5.383   8.640  1.00  0.00     0.122 C 
BRANCH  13  14
HETATM   14  C7  UNL     1       0.522   4.849   7.276  1.00  0.00     0.020 C 
BRANCH  14  15
HETATM   15  C6  UNL     1      -0.335   3.735   6.785  1.00  0.00     0.002 C 
BRANCH  15  16
HETATM   16  C5  UNL     1       0.609   2.654   6.240  1.00  0.00     0.000 C 
BRANCH  16  17
HETATM   17  C4  UNL     1       1.413   1.995   7.308  1.00  0.00     0.000 C 
BRANCH  17  18
HETATM   18  C3  UNL     1       0.585   1.174   8.296  1.00  0.00    -0.000 C 
BRANCH  18  19
HETATM   19  C2  UNL     1       1.408   1.047   9.568  1.00  0.00    -0.005 C 
HETATM   20  C1  UNL     1       2.121   2.345   9.842  1.00  0.00     0.005 C 
ENDBRANCH  18  19
ENDBRANCH  17  18
ENDBRANCH  16  17
ENDBRANCH  15  16
ENDBRANCH  14  15
ENDBRANCH  13  14
ENDBRANCH  11  13
ENDBRANCH   9  11
ENDBRANCH   1   9
BRANCH   8  21
HETATM   21  O4  UNL     1      -2.595  10.553   7.380  1.00  0.00    -0.391 OA
ATOM     22  H4  UNL     1      -2.609  11.483   7.571  1.00  0.00     0.210 HD
ENDBRANCH   8  21
BRANCH   6  23
HETATM   23  O2  UNL     1       0.256  12.006  10.604  1.00  0.00    -0.388 OA
ATOM     24  H2  UNL     1       1.177  12.068  10.830  1.00  0.00     0.210 HD
ENDBRANCH   6  23
BRANCH   7  25
HETATM   25  O3  UNL     1       0.335  11.690   7.600  1.00  0.00    -0.390 OA
ATOM     26  H3  UNL     1       1.067  11.084   7.576  1.00  0.00     0.210 HD
ENDBRANCH   7  25
TORSDOF 12
ENDMDL
