MODEL 5
REMARK VINA RESULT: -6.204889118      2.008      6.189
REMARK  3 active torsions:
REMARK  status: ('A' for Active; 'I' for Inactive)
REMARK    1  A    between atoms: C2_2  and  N1_3 
REMARK    2  A    between atoms: C11_12  and  C12_13 
REMARK    3  A    between atoms: C12_13  and  N2_14 
ROOT
HETATM    1  N1  UNL     1     124.217 106.187 -44.370  1.00  0.00    -0.346 N 
HETATM    2  C3  UNL     1     124.558 105.973 -43.088  1.00  0.00     0.046 A 
HETATM    3  C4  UNL     1     124.685 106.803 -41.972  1.00  0.00     0.030 A 
HETATM    4  C5  UNL     1     125.063 106.260 -40.769  1.00  0.00     0.002 A 
HETATM    5  C6  UNL     1     125.315 104.912 -40.664  1.00  0.00     0.001 A 
HETATM    6  C7  UNL     1     125.193 104.078 -41.765  1.00  0.00     0.014 A 
HETATM    7  C8  UNL     1     124.813 104.632 -42.968  1.00  0.00     0.003 A 
HETATM    8  C9  UNL     1     124.615 104.038 -44.216  1.00  0.00     0.004 A 
HETATM    9  C10 UNL     1     124.734 102.726 -44.642  1.00  0.00     0.023 A 
HETATM   10  C11 UNL     1     124.472 102.418 -45.956  1.00  0.00    -0.032 A 
HETATM   11  C14 UNL     1     124.094 103.395 -46.851  1.00  0.00     0.011 A 
HETATM   12  C15 UNL     1     123.989 104.687 -46.383  1.00  0.00     0.031 A 
HETATM   13  C16 UNL     1     124.241 105.044 -45.075  1.00  0.00     0.046 A 
ENDROOT
BRANCH  10  14
HETATM   14  C12 UNL     1     124.615 100.998 -46.365  1.00  0.00     0.270 C 
BRANCH  14  15
HETATM   15  N2  UNL     1     124.928 101.001 -47.787  1.00  0.00    -0.075 N 
HETATM   16  C13 UNL     1     124.091  99.993 -48.431  1.00  0.00     0.267 C 
ATOM     17  H22 UNL     1     124.833 101.923 -48.212  1.00  0.00     0.277 HD
ATOM     18  H21 UNL     1     125.922 100.867 -47.973  1.00  0.00     0.277 HD
ENDBRANCH  14  15
ENDBRANCH  10  14
BRANCH   1  19
HETATM   19  C2  UNL     1     123.870 107.474 -44.916  1.00  0.00     0.125 C 
HETATM   20  C1  UNL     1     122.378 107.667 -44.757  1.00  0.00     0.027 C 
ENDBRANCH   1  19
TORSDOF 3
ENDMDL
