MODEL 3
REMARK VINA RESULT: -7.099538602      1.773      5.506
REMARK  3 active torsions:
REMARK  status: ('A' for Active; 'I' for Inactive)
REMARK    1  A    between atoms: C2_2  and  N1_3 
REMARK    2  A    between atoms: C11_12  and  C12_13 
REMARK    3  A    between atoms: C12_13  and  N2_14 
ROOT
HETATM    1  N1  UNL     1     125.175 103.230 -42.562  1.00  0.00    -0.346 N 
HETATM    2  C3  UNL     1     124.949 104.554 -42.538  1.00  0.00     0.046 A 
HETATM    3  C4  UNL     1     124.999 105.524 -41.534  1.00  0.00     0.030 A 
HETATM    4  C5  UNL     1     124.703 106.828 -41.843  1.00  0.00     0.002 A 
HETATM    5  C6  UNL     1     124.359 107.177 -43.128  1.00  0.00     0.001 A 
HETATM    6  C7  UNL     1     124.306 106.223 -44.133  1.00  0.00     0.014 A 
HETATM    7  C8  UNL     1     124.605 104.917 -43.814  1.00  0.00     0.003 A 
HETATM    8  C9  UNL     1     124.630 103.773 -44.614  1.00  0.00     0.004 A 
HETATM    9  C10 UNL     1     124.368 103.583 -45.960  1.00  0.00     0.023 A 
HETATM   10  C11 UNL     1     124.472 102.320 -46.495  1.00  0.00    -0.032 A 
HETATM   11  C14 UNL     1     124.833 101.246 -45.711  1.00  0.00     0.011 A 
HETATM   12  C15 UNL     1     125.084 101.482 -44.376  1.00  0.00     0.031 A 
HETATM   13  C16 UNL     1     124.993 102.729 -43.795  1.00  0.00     0.046 A 
ENDROOT
BRANCH  10  14
HETATM   14  C12 UNL     1     124.181 102.167 -47.942  1.00  0.00     0.270 C 
BRANCH  14  15
HETATM   15  N2  UNL     1     124.455 100.777 -48.280  1.00  0.00    -0.075 N 
HETATM   16  C13 UNL     1     123.666 100.441 -49.462  1.00  0.00     0.267 C 
ATOM     17  H22 UNL     1     125.450 100.588 -48.402  1.00  0.00     0.277 HD
ATOM     18  H21 UNL     1     124.290 100.141 -47.500  1.00  0.00     0.277 HD
ENDBRANCH  14  15
ENDBRANCH  10  14
BRANCH   1  19
HETATM   19  C2  UNL     1     125.564 102.449 -41.415  1.00  0.00     0.125 C 
HETATM   20  C1  UNL     1     127.075 102.449 -41.336  1.00  0.00     0.027 C 
ENDBRANCH   1  19
TORSDOF 3
ENDMDL
