MODEL 1
REMARK VINA RESULT: -7.458133643      0.000      0.000
REMARK  3 active torsions:
REMARK  status: ('A' for Active; 'I' for Inactive)
REMARK    1  A    between atoms: C2_2  and  N1_3 
REMARK    2  A    between atoms: C11_12  and  C12_13 
REMARK    3  A    between atoms: C12_13  and  N2_14 
ROOT
HETATM    1  N1  UNL     1     125.180 103.120 -42.570  1.00  0.00    -0.346 N 
HETATM    2  C3  UNL     1     124.957 102.772 -43.849  1.00  0.00     0.046 A 
HETATM    3  C4  UNL     1     125.016 101.563 -44.545  1.00  0.00     0.030 A 
HETATM    4  C5  UNL     1     124.722 101.544 -45.885  1.00  0.00     0.002 A 
HETATM    5  C6  UNL     1     124.374 102.704 -46.538  1.00  0.00     0.001 A 
HETATM    6  C7  UNL     1     124.312 103.910 -45.857  1.00  0.00     0.014 A 
HETATM    7  C8  UNL     1     124.608 103.920 -44.512  1.00  0.00     0.003 A 
HETATM    8  C9  UNL     1     124.626 104.974 -43.597  1.00  0.00     0.004 A 
HETATM    9  C10 UNL     1     124.355 106.325 -43.740  1.00  0.00     0.023 A 
HETATM   10  C11 UNL     1     124.453 107.151 -42.646  1.00  0.00    -0.032 A 
HETATM   11  C14 UNL     1     124.813 106.654 -41.413  1.00  0.00     0.011 A 
HETATM   12  C15 UNL     1     125.073 105.303 -41.316  1.00  0.00     0.031 A 
HETATM   13  C16 UNL     1     124.989 104.436 -42.384  1.00  0.00     0.046 A 
ENDROOT
BRANCH  10  14
HETATM   14  C12 UNL     1     124.155 108.590 -42.850  1.00  0.00     0.270 C 
BRANCH  14  15
HETATM   15  N2  UNL     1     123.138 108.951 -41.871  1.00  0.00    -0.075 N 
HETATM   16  C13 UNL     1     121.846 108.963 -42.552  1.00  0.00     0.267 C 
ATOM     17  H22 UNL     1     123.146 108.346 -41.051  1.00  0.00     0.277 HD
ATOM     18  H21 UNL     1     123.342 109.830 -41.395  1.00  0.00     0.277 HD
ENDBRANCH  14  15
ENDBRANCH  10  14
BRANCH   1  19
HETATM   19  C2  UNL     1     125.571 102.199 -41.533  1.00  0.00     0.125 C 
HETATM   20  C1  UNL     1     127.082 102.207 -41.442  1.00  0.00     0.027 C 
ENDBRANCH   1  19
TORSDOF 3
ENDMDL
