MODEL 2
REMARK VINA RESULT: -7.392959751      0.822      1.191
REMARK  3 active torsions:
REMARK  status: ('A' for Active; 'I' for Inactive)
REMARK    1  A    between atoms: C2_2  and  N1_3 
REMARK    2  A    between atoms: C11_12  and  C12_13 
REMARK    3  A    between atoms: C12_13  and  N2_14 
ROOT
HETATM    1  N1  UNL     1     125.168 103.120 -42.578  1.00  0.00    -0.346 N 
HETATM    2  C3  UNL     1     124.941 102.791 -43.861  1.00  0.00     0.046 A 
HETATM    3  C4  UNL     1     124.984 101.589 -44.572  1.00  0.00     0.030 A 
HETATM    4  C5  UNL     1     124.689 101.589 -45.912  1.00  0.00     0.002 A 
HETATM    5  C6  UNL     1     124.356 102.761 -46.551  1.00  0.00     0.001 A 
HETATM    6  C7  UNL     1     124.312 103.960 -45.856  1.00  0.00     0.014 A 
HETATM    7  C8  UNL     1     124.608 103.951 -44.511  1.00  0.00     0.003 A 
HETATM    8  C9  UNL     1     124.639 104.994 -43.583  1.00  0.00     0.004 A 
HETATM    9  C10 UNL     1     124.388 106.349 -43.711  1.00  0.00     0.023 A 
HETATM   10  C11 UNL     1     124.496 107.161 -42.607  1.00  0.00    -0.032 A 
HETATM   11  C14 UNL     1     124.850 106.646 -41.380  1.00  0.00     0.011 A 
HETATM   12  C15 UNL     1     125.091 105.290 -41.299  1.00  0.00     0.031 A 
HETATM   13  C16 UNL     1     124.995 104.437 -42.378  1.00  0.00     0.046 A 
ENDROOT
BRANCH  10  14
HETATM   14  C12 UNL     1     124.218 108.607 -42.795  1.00  0.00     0.270 C 
BRANCH  14  15
HETATM   15  N2  UNL     1     125.494 109.299 -42.673  1.00  0.00    -0.075 N 
HETATM   16  C13 UNL     1     125.908 109.712 -44.011  1.00  0.00     0.267 C 
ATOM     17  H22 UNL     1     125.461 110.076 -42.012  1.00  0.00     0.277 HD
ATOM     18  H21 UNL     1     126.201 108.743 -42.193  1.00  0.00     0.277 HD
ENDBRANCH  14  15
ENDBRANCH  10  14
BRANCH   1  19
HETATM   19  C2  UNL     1     125.547 102.183 -41.552  1.00  0.00     0.125 C 
HETATM   20  C1  UNL     1     127.056 102.203 -41.430  1.00  0.00     0.027 C 
ENDBRANCH   1  19
TORSDOF 3
ENDMDL
