MODEL 6
REMARK VINA RESULT: -6.105103622      2.285      6.233
REMARK  3 active torsions:
REMARK  status: ('A' for Active; 'I' for Inactive)
REMARK    1  A    between atoms: C2_2  and  N1_3 
REMARK    2  A    between atoms: C11_12  and  C12_13 
REMARK    3  A    between atoms: C12_13  and  N2_14 
ROOT
HETATM    1  N1  UNL     1     124.386 104.842 -44.489  1.00  0.00    -0.346 N 
HETATM    2  C3  UNL     1     124.764 104.304 -43.317  1.00  0.00     0.046 A 
HETATM    3  C4  UNL     1     124.954 104.823 -42.034  1.00  0.00     0.030 A 
HETATM    4  C5  UNL     1     125.356 103.986 -41.023  1.00  0.00     0.002 A 
HETATM    5  C6  UNL     1     125.570 102.650 -41.270  1.00  0.00     0.001 A 
HETATM    6  C7  UNL     1     125.385 102.124 -42.540  1.00  0.00     0.014 A 
HETATM    7  C8  UNL     1     124.981 102.971 -43.548  1.00  0.00     0.003 A 
HETATM    8  C9  UNL     1     124.723 102.716 -44.896  1.00  0.00     0.004 A 
HETATM    9  C10 UNL     1     124.787 101.551 -45.643  1.00  0.00     0.023 A 
HETATM   10  C11 UNL     1     124.472 101.591 -46.980  1.00  0.00    -0.032 A 
HETATM   11  C14 UNL     1     124.094 102.769 -47.585  1.00  0.00     0.011 A 
HETATM   12  C15 UNL     1     124.044 103.904 -46.803  1.00  0.00     0.031 A 
HETATM   13  C16 UNL     1     124.351 103.913 -45.459  1.00  0.00     0.046 A 
ENDROOT
BRANCH  10  14
HETATM   14  C12 UNL     1     124.556 100.317 -47.738  1.00  0.00     0.270 C 
BRANCH  14  15
HETATM   15  N2  UNL     1     124.238 100.632 -49.124  1.00  0.00    -0.075 N 
HETATM   16  C13 UNL     1     123.084  99.827 -49.512  1.00  0.00     0.267 C 
ATOM     17  H22 UNL     1     124.095 101.630 -49.280  1.00  0.00     0.277 HD
ATOM     18  H21 UNL     1     125.034 100.510 -49.750  1.00  0.00     0.277 HD
ENDBRANCH  14  15
ENDBRANCH  10  14
BRANCH   1  19
HETATM   19  C2  UNL     1     124.061 106.232 -44.680  1.00  0.00     0.125 C 
HETATM   20  C1  UNL     1     125.338 106.974 -45.010  1.00  0.00     0.027 C 
ENDBRANCH   1  19
TORSDOF 3
ENDMDL
