MODEL 4
REMARK VINA RESULT: -6.701962190      1.378      1.570
REMARK  3 active torsions:
REMARK  status: ('A' for Active; 'I' for Inactive)
REMARK    1  A    between atoms: C2_2  and  N1_3 
REMARK    2  A    between atoms: C11_12  and  C12_13 
REMARK    3  A    between atoms: C12_13  and  N2_14 
ROOT
HETATM    1  N1  UNL     1     125.019 103.217 -43.001  1.00  0.00    -0.346 N 
HETATM    2  C3  UNL     1     124.871 102.684 -44.226  1.00  0.00     0.046 A 
HETATM    3  C4  UNL     1     124.966 101.386 -44.732  1.00  0.00     0.030 A 
HETATM    4  C5  UNL     1     124.753 101.168 -46.070  1.00  0.00     0.002 A 
HETATM    5  C6  UNL     1     124.450 102.218 -46.906  1.00  0.00     0.001 A 
HETATM    6  C7  UNL     1     124.354 103.511 -46.415  1.00  0.00     0.014 A 
HETATM    7  C8  UNL     1     124.569 103.721 -45.071  1.00  0.00     0.003 A 
HETATM    8  C9  UNL     1     124.537 104.898 -44.321  1.00  0.00     0.004 A 
HETATM    9  C10 UNL     1     124.283 106.211 -44.678  1.00  0.00     0.023 A 
HETATM   10  C11 UNL     1     124.318 107.190 -43.713  1.00  0.00    -0.032 A 
HETATM   11  C14 UNL     1     124.602 106.882 -42.401  1.00  0.00     0.011 A 
HETATM   12  C15 UNL     1     124.848 105.561 -42.091  1.00  0.00     0.031 A 
HETATM   13  C16 UNL     1     124.824 104.546 -43.023  1.00  0.00     0.046 A 
ENDROOT
BRANCH  10  14
HETATM   14  C12 UNL     1     124.040 108.583 -44.145  1.00  0.00     0.270 C 
BRANCH  14  15
HETATM   15  N2  UNL     1     124.363 108.654 -45.564  1.00  0.00    -0.075 N 
HETATM   16  C13 UNL     1     124.717 110.037 -45.872  1.00  0.00     0.267 C 
ATOM     17  H22 UNL     1     125.086 107.990 -45.839  1.00  0.00     0.277 HD
ATOM     18  H21 UNL     1     123.615 108.296 -46.157  1.00  0.00     0.277 HD
ENDBRANCH  14  15
ENDBRANCH  10  14
BRANCH   1  19
HETATM   19  C2  UNL     1     125.343 102.461 -41.819  1.00  0.00     0.125 C 
HETATM   20  C1  UNL     1     126.845 102.496 -41.634  1.00  0.00     0.027 C 
ENDBRANCH   1  19
TORSDOF 3
ENDMDL
