MODEL 8
REMARK VINA RESULT: -8.554394038      6.556      9.571
REMARK  7 active torsions:
REMARK  status: ('A' for Active; 'I' for Inactive)
REMARK    1  A    between atoms: O1_2  and  C2_3 
REMARK    2  A    between atoms: N1_5  and  C4_6 
REMARK    3  A    between atoms: C4_6  and  C5_7 
REMARK       I    between atoms: C5_7  and  N2_9 
REMARK    4  A    between atoms: N2_9  and  C6_11 
REMARK    5  A    between atoms: C9_14  and  N3_15 
REMARK    6  A    between atoms: C18_26  and  N4_27 
REMARK       I    between atoms: N4_27  and  C19_29 
REMARK    7  A    between atoms: C19_29  and  C20_31 
ROOT
HETATM    1  C4  UNL     1      12.147   9.383  24.121  1.00  0.00     0.375 C 
ENDROOT
BRANCH   1   2
HETATM    2  N1  UNL     1      11.919   9.170  22.740  1.00  0.00     0.101 N 
HETATM    3  C3  UNL     1      11.385  10.395  22.119  1.00  0.00     0.307 C 
HETATM    4  C2  UNL     1      10.880   9.821  20.826  1.00  0.00     0.173 C 
HETATM    5  C18 UNL     1      10.124   8.622  21.264  1.00  0.00     0.143 C 
HETATM    6  C17 UNL     1      10.877   8.171  22.494  1.00  0.00     0.300 C 
BRANCH   4   7
HETATM    7  O1  UNL     1      10.166  10.718  20.062  1.00  0.00    -0.387 OA
HETATM    8  C1  UNL     1      10.738  10.965  18.819  1.00  0.00     0.202 C 
ENDBRANCH   4   7
BRANCH   5   9
HETATM    9  N4  UNL     1      10.051   7.580  20.262  1.00  0.00    -0.348 N 
HETATM   10  C19 UNL     1       8.920   6.776  20.070  1.00  0.00     0.259 C 
HETATM   11  O4  UNL     1       7.896   6.935  20.783  1.00  0.00    -0.267 OA
ATOM     12  H4  UNL     1      10.864   7.423  19.666  1.00  0.00     0.163 HD
BRANCH  10  13
HETATM   13  C20 UNL     1       8.918   5.728  19.022  1.00  0.00     0.074 A 
HETATM   14  C21 UNL     1       9.540   5.769  17.805  1.00  0.00     0.027 A 
HETATM   15  C22 UNL     1       9.405   4.704  17.008  1.00  0.00     0.033 A 
HETATM   16  C23 UNL     1       8.651   3.659  17.477  1.00  0.00     0.075 A 
HETATM   17 CL1  UNL     1       8.301   2.131  16.645  1.00  0.00    -0.076 Cl
HETATM   18  S1  UNL     1       8.160   4.201  19.015  1.00  0.00    -0.072 SA
ENDBRANCH  10  13
ENDBRANCH   5   9
ENDBRANCH   1   2
BRANCH   1  19
HETATM   19  C5  UNL     1      12.110   8.202  25.000  1.00  0.00     0.250 C 
HETATM   20  O2  UNL     1      11.406   8.351  26.057  1.00  0.00    -0.271 OA
HETATM   21  N2  UNL     1      12.791   7.036  24.687  1.00  0.00    -0.323 N 
ATOM     22  H2  UNL     1      13.329   7.019  23.820  1.00  0.00     0.169 HD
BRANCH  21  23
HETATM   23  C6  UNL     1      12.795   5.880  25.478  1.00  0.00     0.073 A 
HETATM   24  C7  UNL     1      13.724   5.586  26.441  1.00  0.00     0.035 A 
HETATM   25  C8  UNL     1      13.636   4.394  27.187  1.00  0.00     0.032 A 
HETATM   26  C9  UNL     1      12.622   3.488  26.977  1.00  0.00     0.045 A 
HETATM   27  C15 UNL     1      11.712   3.827  25.998  1.00  0.00     0.074 A 
HETATM   28  C16 UNL     1      11.756   4.967  25.253  1.00  0.00     0.145 A 
HETATM   29  F1  UNL     1      10.807   5.236  24.292  1.00  0.00    -0.204 F 
BRANCH  26  30
HETATM   30  N3  UNL     1      12.528   2.285  27.726  1.00  0.00    -0.290 N 
HETATM   31  C10 UNL     1      13.476   1.336  27.616  1.00  0.00     0.100 A 
HETATM   32  C11 UNL     1      13.391   0.146  28.348  1.00  0.00     0.018 A 
HETATM   33  C12 UNL     1      12.330  -0.077  29.200  1.00  0.00     0.007 A 
HETATM   34  C13 UNL     1      11.370   0.905  29.299  1.00  0.00     0.075 A 
HETATM   35  C14 UNL     1      11.500   2.069  28.551  1.00  0.00     0.252 A 
HETATM   36  O3  UNL     1      10.621   2.967  28.643  1.00  0.00    -0.268 OA
ENDBRANCH  26  30
ENDBRANCH  21  23
ENDBRANCH   1  19
TORSDOF 7
ENDMDL
