MODEL 3
REMARK VINA RESULT: -9.152095799      4.326      9.827
REMARK  7 active torsions:
REMARK  status: ('A' for Active; 'I' for Inactive)
REMARK    1  A    between atoms: O1_2  and  C2_3 
REMARK    2  A    between atoms: N1_5  and  C4_6 
REMARK    3  A    between atoms: C4_6  and  C5_7 
REMARK       I    between atoms: C5_7  and  N2_9 
REMARK    4  A    between atoms: N2_9  and  C6_11 
REMARK    5  A    between atoms: C9_14  and  N3_15 
REMARK    6  A    between atoms: C18_26  and  N4_27 
REMARK       I    between atoms: N4_27  and  C19_29 
REMARK    7  A    between atoms: C19_29  and  C20_31 
ROOT
HETATM    1  C4  UNL     1      12.762   3.237  26.722  1.00  0.00     0.375 C 
ENDROOT
BRANCH   1   2
HETATM    2  N1  UNL     1      12.684   4.445  27.458  1.00  0.00     0.101 N 
HETATM    3  C3  UNL     1      11.699   5.351  26.842  1.00  0.00     0.307 C 
HETATM    4  C2  UNL     1      12.077   6.634  27.526  1.00  0.00     0.173 C 
HETATM    5  C18 UNL     1      13.553   6.667  27.386  1.00  0.00     0.143 C 
HETATM    6  C17 UNL     1      13.935   5.205  27.414  1.00  0.00     0.300 C 
BRANCH   4   7
HETATM    7  O1  UNL     1      11.415   7.739  27.038  1.00  0.00    -0.387 OA
HETATM    8  C1  UNL     1      11.417   7.818  25.650  1.00  0.00     0.202 C 
ENDBRANCH   4   7
BRANCH   5   9
HETATM    9  N4  UNL     1      14.222   7.421  28.425  1.00  0.00    -0.348 N 
HETATM   10  C19 UNL     1      15.458   8.054  28.242  1.00  0.00     0.259 C 
HETATM   11  O4  UNL     1      16.050   7.988  27.135  1.00  0.00    -0.267 OA
ATOM     12  H4  UNL     1      13.770   7.495  29.337  1.00  0.00     0.163 HD
BRANCH  10  13
HETATM   13  C20 UNL     1      16.082   8.809  29.354  1.00  0.00     0.074 A 
HETATM   14  C21 UNL     1      16.025   8.520  30.690  1.00  0.00     0.027 A 
HETATM   15  C22 UNL     1      16.665   9.344  31.526  1.00  0.00     0.033 A 
HETATM   16  C23 UNL     1      17.325  10.412  30.974  1.00  0.00     0.075 A 
HETATM   17 CL1  UNL     1      18.251  11.660  31.832  1.00  0.00    -0.076 Cl
HETATM   18  S1  UNL     1      17.028  10.226  29.308  1.00  0.00    -0.072 SA
ENDBRANCH  10  13
ENDBRANCH   5   9
ENDBRANCH   1   2
BRANCH   1  19
HETATM   19  C5  UNL     1      13.368   3.303  25.381  1.00  0.00     0.250 C 
HETATM   20  O2  UNL     1      12.753   4.066  24.560  1.00  0.00    -0.271 OA
HETATM   21  N2  UNL     1      14.509   2.586  25.059  1.00  0.00    -0.323 N 
ATOM     22  H2  UNL     1      14.923   2.002  25.785  1.00  0.00     0.169 HD
BRANCH  21  23
HETATM   23  C6  UNL     1      15.135   2.607  23.805  1.00  0.00     0.073 A 
HETATM   24  C7  UNL     1      14.704   1.924  22.698  1.00  0.00     0.035 A 
HETATM   25  C8  UNL     1      15.405   2.016  21.479  1.00  0.00     0.032 A 
HETATM   26  C9  UNL     1      16.537   2.787  21.356  1.00  0.00     0.045 A 
HETATM   27  C15 UNL     1      16.931   3.455  22.496  1.00  0.00     0.074 A 
HETATM   28  C16 UNL     1      16.286   3.398  23.696  1.00  0.00     0.145 A 
HETATM   29  F1  UNL     1      16.741   4.096  24.792  1.00  0.00    -0.204 F 
BRANCH  26  30
HETATM   30  N3  UNL     1      17.246   2.883  20.129  1.00  0.00    -0.290 N 
HETATM   31  C10 UNL     1      18.436   2.273  19.979  1.00  0.00     0.100 A 
HETATM   32  C11 UNL     1      19.145   2.364  18.775  1.00  0.00     0.018 A 
HETATM   33  C12 UNL     1      18.633   3.082  17.716  1.00  0.00     0.007 A 
HETATM   34  C13 UNL     1      17.414   3.700  17.888  1.00  0.00     0.075 A 
HETATM   35  C14 UNL     1      16.751   3.579  19.103  1.00  0.00     0.252 A 
HETATM   36  O3  UNL     1      15.635   4.145  19.260  1.00  0.00    -0.268 OA
ENDBRANCH  26  30
ENDBRANCH  21  23
ENDBRANCH   1  19
TORSDOF 7
ENDMDL
