MODEL 5
REMARK VINA RESULT: -8.890333792      4.322      9.453
REMARK  7 active torsions:
REMARK  status: ('A' for Active; 'I' for Inactive)
REMARK    1  A    between atoms: O1_2  and  C2_3 
REMARK    2  A    between atoms: N1_5  and  C4_6 
REMARK    3  A    between atoms: C4_6  and  C5_7 
REMARK       I    between atoms: C5_7  and  N2_9 
REMARK    4  A    between atoms: N2_9  and  C6_11 
REMARK    5  A    between atoms: C9_14  and  N3_15 
REMARK    6  A    between atoms: C18_26  and  N4_27 
REMARK       I    between atoms: N4_27  and  C19_29 
REMARK    7  A    between atoms: C19_29  and  C20_31 
ROOT
HETATM    1  C4  UNL     1      12.292   3.238  26.855  1.00  0.00     0.375 C 
ENDROOT
BRANCH   1   2
HETATM    2  N1  UNL     1      12.289   4.510  27.477  1.00  0.00     0.101 N 
HETATM    3  C3  UNL     1      11.469   5.454  26.696  1.00  0.00     0.307 C 
HETATM    4  C2  UNL     1      11.930   6.748  27.304  1.00  0.00     0.173 C 
HETATM    5  C18 UNL     1      13.407   6.613  27.303  1.00  0.00     0.143 C 
HETATM    6  C17 UNL     1      13.617   5.128  27.488  1.00  0.00     0.300 C 
BRANCH   4   7
HETATM    7  O1  UNL     1      11.442   7.866  26.664  1.00  0.00    -0.387 OA
HETATM    8  C1  UNL     1      11.711   7.887  25.301  1.00  0.00     0.202 C 
ENDBRANCH   4   7
BRANCH   5   9
HETATM    9  N4  UNL     1      14.065   7.386  28.334  1.00  0.00    -0.348 N 
HETATM   10  C19 UNL     1      15.376   7.867  28.216  1.00  0.00     0.259 C 
HETATM   11  O4  UNL     1      16.048   7.638  27.179  1.00  0.00    -0.267 OA
ATOM     12  H4  UNL     1      13.549   7.590  29.190  1.00  0.00     0.163 HD
BRANCH  10  13
HETATM   13  C20 UNL     1      15.984   8.654  29.315  1.00  0.00     0.074 A 
HETATM   14  C21 UNL     1      15.913   8.398  30.658  1.00  0.00     0.027 A 
HETATM   15  C22 UNL     1      16.540   9.246  31.480  1.00  0.00     0.033 A 
HETATM   16  C23 UNL     1      17.202  10.302  30.908  1.00  0.00     0.075 A 
HETATM   17 CL1  UNL     1      18.113  11.576  31.745  1.00  0.00    -0.076 Cl
HETATM   18  S1  UNL     1      16.924  10.073  29.244  1.00  0.00    -0.072 SA
ENDBRANCH  10  13
ENDBRANCH   5   9
ENDBRANCH   1   2
BRANCH   1  19
HETATM   19  C5  UNL     1      13.398   2.944  25.927  1.00  0.00     0.250 C 
HETATM   20  O2  UNL     1      14.269   2.127  26.384  1.00  0.00    -0.271 OA
HETATM   21  N2  UNL     1      13.467   3.518  24.668  1.00  0.00    -0.323 N 
ATOM     22  H2  UNL     1      12.723   4.161  24.398  1.00  0.00     0.169 HD
BRANCH  21  23
HETATM   23  C6  UNL     1      14.489   3.279  23.739  1.00  0.00     0.073 A 
HETATM   24  C7  UNL     1      14.570   2.180  22.924  1.00  0.00     0.035 A 
HETATM   25  C8  UNL     1      15.639   2.034  22.018  1.00  0.00     0.032 A 
HETATM   26  C9  UNL     1      16.632   2.981  21.919  1.00  0.00     0.045 A 
HETATM   27  C15 UNL     1      16.507   4.067  22.760  1.00  0.00     0.074 A 
HETATM   28  C16 UNL     1      15.492   4.252  23.650  1.00  0.00     0.145 A 
HETATM   29  F1  UNL     1      15.436   5.366  24.457  1.00  0.00    -0.204 F 
BRANCH  26  30
HETATM   30  N3  UNL     1      17.712   2.840  21.008  1.00  0.00    -0.290 N 
HETATM   31  C10 UNL     1      17.487   2.465  19.735  1.00  0.00     0.100 A 
HETATM   32  C11 UNL     1      18.545   2.320  18.829  1.00  0.00     0.018 A 
HETATM   33  C12 UNL     1      19.843   2.560  19.227  1.00  0.00     0.007 A 
HETATM   34  C13 UNL     1      20.054   2.942  20.533  1.00  0.00     0.075 A 
HETATM   35  C14 UNL     1      18.970   3.072  21.392  1.00  0.00     0.252 A 
HETATM   36  O3  UNL     1      19.164   3.422  22.588  1.00  0.00    -0.268 OA
ENDBRANCH  26  30
ENDBRANCH  21  23
ENDBRANCH   1  19
TORSDOF 7
ENDMDL
