MODEL 2
REMARK VINA RESULT: -9.273285460      0.958      1.236
REMARK  7 active torsions:
REMARK  status: ('A' for Active; 'I' for Inactive)
REMARK    1  A    between atoms: O1_2  and  C2_3 
REMARK    2  A    between atoms: N1_5  and  C4_6 
REMARK    3  A    between atoms: C4_6  and  C5_7 
REMARK       I    between atoms: C5_7  and  N2_9 
REMARK    4  A    between atoms: N2_9  and  C6_11 
REMARK    5  A    between atoms: C9_14  and  N3_15 
REMARK    6  A    between atoms: C18_26  and  N4_27 
REMARK       I    between atoms: N4_27  and  C19_29 
REMARK    7  A    between atoms: C19_29  and  C20_31 
ROOT
HETATM    1  C4  UNL     1      17.185   5.541  24.112  1.00  0.00     0.375 C 
ENDROOT
BRANCH   1   2
HETATM    2  N1  UNL     1      16.670   4.275  24.482  1.00  0.00     0.101 N 
HETATM    3  C3  UNL     1      16.048   3.621  23.317  1.00  0.00     0.307 C 
HETATM    4  C2  UNL     1      15.270   2.545  24.020  1.00  0.00     0.173 C 
HETATM    5  C18 UNL     1      14.594   3.280  25.116  1.00  0.00     0.143 C 
HETATM    6  C17 UNL     1      15.575   4.380  25.450  1.00  0.00     0.300 C 
BRANCH   4   7
HETATM    7  O1  UNL     1      14.435   1.831  23.189  1.00  0.00    -0.387 OA
HETATM    8  C1  UNL     1      14.770   1.936  21.844  1.00  0.00     0.202 C 
ENDBRANCH   4   7
BRANCH   5   9
HETATM    9  N4  UNL     1      14.289   2.460  26.269  1.00  0.00    -0.348 N 
HETATM   10  C19 UNL     1      12.982   2.194  26.700  1.00  0.00     0.259 C 
HETATM   11  O4  UNL     1      11.998   2.674  26.083  1.00  0.00    -0.267 OA
ATOM     12  H4  UNL     1      15.064   2.054  26.794  1.00  0.00     0.163 HD
BRANCH  10  13
HETATM   13  C20 UNL     1      12.747   1.344  27.890  1.00  0.00     0.074 A 
HETATM   14  C21 UNL     1      13.508   0.293  28.324  1.00  0.00     0.027 A 
HETATM   15  C22 UNL     1      13.108  -0.342  29.431  1.00  0.00     0.033 A 
HETATM   16  C23 UNL     1      11.966   0.113  30.039  1.00  0.00     0.075 A 
HETATM   17 CL1  UNL     1      11.204  -0.529  31.507  1.00  0.00    -0.076 Cl
HETATM   18  S1  UNL     1      11.493   1.411  29.043  1.00  0.00    -0.072 SA
ENDBRANCH  10  13
ENDBRANCH   5   9
ENDBRANCH   1   2
BRANCH   1  19
HETATM   19  C5  UNL     1      17.372   6.533  25.186  1.00  0.00     0.250 C 
HETATM   20  O2  UNL     1      18.242   7.433  24.928  1.00  0.00    -0.271 OA
HETATM   21  N2  UNL     1      16.653   6.473  26.368  1.00  0.00    -0.323 N 
ATOM     22  H2  UNL     1      15.982   5.712  26.478  1.00  0.00     0.169 HD
BRANCH  21  23
HETATM   23  C6  UNL     1      16.781   7.385  27.425  1.00  0.00     0.073 A 
HETATM   24  C7  UNL     1      16.049   8.534  27.567  1.00  0.00     0.035 A 
HETATM   25  C8  UNL     1      16.253   9.385  28.672  1.00  0.00     0.032 A 
HETATM   26  C9  UNL     1      17.186   9.096  29.640  1.00  0.00     0.045 A 
HETATM   27  C15 UNL     1      17.898   7.930  29.453  1.00  0.00     0.074 A 
HETATM   28  C16 UNL     1      17.736   7.076  28.402  1.00  0.00     0.145 A 
HETATM   29  F1  UNL     1      18.486   5.928  28.285  1.00  0.00    -0.204 F 
BRANCH  26  30
HETATM   30  N3  UNL     1      17.396   9.949  30.755  1.00  0.00    -0.290 N 
HETATM   31  C10 UNL     1      18.150  11.057  30.635  1.00  0.00     0.100 A 
HETATM   32  C11 UNL     1      18.365  11.904  31.730  1.00  0.00     0.018 A 
HETATM   33  C12 UNL     1      17.803  11.617  32.955  1.00  0.00     0.007 A 
HETATM   34  C13 UNL     1      17.034  10.479  33.059  1.00  0.00     0.075 A 
HETATM   35  C14 UNL     1      16.852   9.672  31.943  1.00  0.00     0.252 A 
HETATM   36  O3  UNL     1      16.148   8.631  32.039  1.00  0.00    -0.268 OA
ENDBRANCH  26  30
ENDBRANCH  21  23
ENDBRANCH   1  19
TORSDOF 7
ENDMDL
