MODEL 1
REMARK VINA RESULT: -10.079063467      0.000      0.000
REMARK  7 active torsions:
REMARK  status: ('A' for Active; 'I' for Inactive)
REMARK    1  A    between atoms: O1_2  and  C2_3 
REMARK    2  A    between atoms: N1_5  and  C4_6 
REMARK    3  A    between atoms: C4_6  and  C5_7 
REMARK       I    between atoms: C5_7  and  N2_9 
REMARK    4  A    between atoms: N2_9  and  C6_11 
REMARK    5  A    between atoms: C9_14  and  N3_15 
REMARK    6  A    between atoms: C18_26  and  N4_27 
REMARK       I    between atoms: N4_27  and  C19_29 
REMARK    7  A    between atoms: C19_29  and  C20_31 
ROOT
HETATM    1  C4  UNL     1      16.520   5.768  24.445  1.00  0.00     0.375 C 
ENDROOT
BRANCH   1   2
HETATM    2  N1  UNL     1      16.170   4.424  24.723  1.00  0.00     0.101 N 
HETATM    3  C3  UNL     1      15.732   3.748  23.489  1.00  0.00     0.307 C 
HETATM    4  C2  UNL     1      15.072   2.538  24.088  1.00  0.00     0.173 C 
HETATM    5  C18 UNL     1      14.223   3.113  25.158  1.00  0.00     0.143 C 
HETATM    6  C17 UNL     1      15.008   4.323  25.609  1.00  0.00     0.300 C 
BRANCH   4   7
HETATM    7  O1  UNL     1      14.410   1.756  23.167  1.00  0.00    -0.387 OA
HETATM    8  C1  UNL     1      14.861   1.931  21.864  1.00  0.00     0.202 C 
ENDBRANCH   4   7
BRANCH   5   9
HETATM    9  N4  UNL     1      13.961   2.200  26.250  1.00  0.00    -0.348 N 
HETATM   10  C19 UNL     1      12.823   2.278  27.063  1.00  0.00     0.259 C 
HETATM   11  O4  UNL     1      11.960   3.173  26.867  1.00  0.00    -0.267 OA
ATOM     12  H4  UNL     1      14.640   1.462  26.438  1.00  0.00     0.163 HD
BRANCH  10  13
HETATM   13  C20 UNL     1      12.622   1.306  28.163  1.00  0.00     0.074 A 
HETATM   14  C21 UNL     1      13.412   0.235  28.479  1.00  0.00     0.027 A 
HETATM   15  C22 UNL     1      13.041  -0.518  29.521  1.00  0.00     0.033 A 
HETATM   16  C23 UNL     1      11.898  -0.152  30.185  1.00  0.00     0.075 A 
HETATM   17 CL1  UNL     1      11.170  -0.957  31.590  1.00  0.00    -0.076 Cl
HETATM   18  S1  UNL     1      11.383   1.228  29.331  1.00  0.00    -0.072 SA
ENDBRANCH  10  13
ENDBRANCH   5   9
ENDBRANCH   1   2
BRANCH   1  19
HETATM   19  C5  UNL     1      16.626   6.688  25.591  1.00  0.00     0.250 C 
HETATM   20  O2  UNL     1      16.718   7.922  25.271  1.00  0.00    -0.271 OA
HETATM   21  N2  UNL     1      16.625   6.230  26.898  1.00  0.00    -0.323 N 
ATOM     22  H2  UNL     1      16.550   5.224  27.048  1.00  0.00     0.169 HD
BRANCH  21  23
HETATM   23  C6  UNL     1      16.720   7.051  28.029  1.00  0.00     0.073 A 
HETATM   24  C7  UNL     1      15.679   7.744  28.590  1.00  0.00     0.035 A 
HETATM   25  C8  UNL     1      15.879   8.542  29.734  1.00  0.00     0.032 A 
HETATM   26  C9  UNL     1      17.117   8.655  30.325  1.00  0.00     0.045 A 
HETATM   27  C15 UNL     1      18.132   7.941  29.725  1.00  0.00     0.074 A 
HETATM   28  C16 UNL     1      17.987   7.156  28.620  1.00  0.00     0.145 A 
HETATM   29  F1  UNL     1      19.051   6.470  28.078  1.00  0.00    -0.204 F 
BRANCH  26  30
HETATM   30  N3  UNL     1      17.324   9.458  31.478  1.00  0.00    -0.290 N 
HETATM   31  C10 UNL     1      17.173   8.937  32.709  1.00  0.00     0.100 A 
HETATM   32  C11 UNL     1      17.372   9.721  33.852  1.00  0.00     0.018 A 
HETATM   33  C12 UNL     1      17.729  11.047  33.736  1.00  0.00     0.007 A 
HETATM   34  C13 UNL     1      17.879  11.563  32.468  1.00  0.00     0.075 A 
HETATM   35  C14 UNL     1      17.669  10.743  31.366  1.00  0.00     0.252 A 
HETATM   36  O3  UNL     1      17.807  11.216  30.205  1.00  0.00    -0.268 OA
ENDBRANCH  26  30
ENDBRANCH  21  23
ENDBRANCH   1  19
TORSDOF 7
ENDMDL
