MODEL 3
REMARK VINA RESULT: -6.916136315      3.469      6.226
REMARK  6 active torsions:
REMARK  status: ('A' for Active; 'I' for Inactive)
REMARK    1  A    between atoms: C2_2  and  N1_3 
REMARK    2  A    between atoms: N1_3  and  C3_5 
REMARK    3  A    between atoms: C6_11  and  C7_12 
REMARK    4  A    between atoms: C7_12  and  O2_13 
REMARK    5  A    between atoms: C8_15  and  O3_16 
REMARK    6  A    between atoms: C9_18  and  O4_19 
ROOT
HETATM    1  C3  UNL     1       5.589 -13.714   0.961  1.00  0.00     0.139 C 
HETATM    2  N2  UNL     1       5.686 -12.465   0.937  1.00  0.00    -0.360 N 
ATOM      3  H2  UNL     1       5.576 -11.967   0.054  1.00  0.00     0.162 HD
HETATM    4  C4  UNL     1       5.944 -11.744   2.109  1.00  0.00     0.154 C 
HETATM    5  C5  UNL     1       5.592 -12.501   3.339  1.00  0.00     0.216 C 
HETATM    6  O1  UNL     1       6.232 -12.271   4.481  1.00  0.00    -0.363 OA
HETATM    7  C6  UNL     1       7.412 -11.621   4.513  1.00  0.00     0.178 C 
HETATM    8  C8  UNL     1       7.411 -10.483   3.515  1.00  0.00     0.180 C 
HETATM    9  C9  UNL     1       7.372 -11.179   2.168  1.00  0.00     0.175 C 
HETATM   10  S1  UNL     1       5.831 -14.204   2.669  1.00  0.00    -0.060 SA
ENDROOT
BRANCH   1  11
HETATM   11  N1  UNL     1       5.333 -14.547  -0.160  1.00  0.00    -0.371 N 
ATOM     12  H1  UNL     1       4.422 -14.484  -0.613  1.00  0.00     0.161 HD
BRANCH  11  13
HETATM   13  C2  UNL     1       6.305 -15.479  -0.687  1.00  0.00     0.117 C 
HETATM   14  C1  UNL     1       6.770 -15.165  -2.069  1.00  0.00     0.026 C 
ENDBRANCH  11  13
ENDBRANCH   1  11
BRANCH   9  15
HETATM   15  O4  UNL     1       7.614 -10.347   1.109  1.00  0.00    -0.391 OA
ATOM     16  H4  UNL     1       8.514 -10.426   0.813  1.00  0.00     0.210 HD
ENDBRANCH   9  15
BRANCH   8  17
HETATM   17  O3  UNL     1       8.504  -9.647   3.657  1.00  0.00    -0.390 OA
ATOM     18  H3  UNL     1       9.075  -9.656   2.897  1.00  0.00     0.210 HD
ENDBRANCH   8  17
BRANCH   7  19
HETATM   19  C7  UNL     1       7.717 -11.123   5.914  1.00  0.00     0.198 C 
BRANCH  19  20
HETATM   20  O2  UNL     1       6.864 -10.069   6.267  1.00  0.00    -0.398 OA
ATOM     21  H2  UNL     1       6.215 -10.357   6.898  1.00  0.00     0.209 HD
ENDBRANCH  19  20
ENDBRANCH   7  19
TORSDOF 6
ENDMDL
