MODEL 1
REMARK VINA RESULT: -7.192966253      0.000      0.000
REMARK  6 active torsions:
REMARK  status: ('A' for Active; 'I' for Inactive)
REMARK    1  A    between atoms: C2_2  and  N1_3 
REMARK    2  A    between atoms: N1_3  and  C3_5 
REMARK    3  A    between atoms: C6_11  and  C7_12 
REMARK    4  A    between atoms: C7_12  and  O2_13 
REMARK    5  A    between atoms: C8_15  and  O3_16 
REMARK    6  A    between atoms: C9_18  and  O4_19 
ROOT
HETATM    1  C3  UNL     1       7.306 -10.293   6.493  1.00  0.00     0.139 C 
HETATM    2  N2  UNL     1       7.979 -10.708   5.521  1.00  0.00    -0.360 N 
ATOM      3  H2  UNL     1       8.997 -10.641   5.547  1.00  0.00     0.162 HD
HETATM    4  C4  UNL     1       7.352 -11.263   4.400  1.00  0.00     0.154 C 
HETATM    5  C5  UNL     1       5.976 -11.745   4.690  1.00  0.00     0.216 C 
HETATM    6  O1  UNL     1       5.054 -11.776   3.732  1.00  0.00    -0.363 OA
HETATM    7  C6  UNL     1       5.201 -11.084   2.586  1.00  0.00     0.178 C 
HETATM    8  C8  UNL     1       6.640 -11.139   2.120  1.00  0.00     0.180 C 
HETATM    9  C9  UNL     1       7.394 -10.344   3.169  1.00  0.00     0.175 C 
HETATM   10  S1  UNL     1       5.587 -10.589   6.076  1.00  0.00    -0.060 SA
ENDROOT
BRANCH   1  11
HETATM   11  N1  UNL     1       7.830  -9.713   7.678  1.00  0.00    -0.371 N 
ATOM     12  H1  UNL     1       8.824  -9.826   7.876  1.00  0.00     0.161 HD
BRANCH  11  13
HETATM   13  C2  UNL     1       7.019  -8.968   8.616  1.00  0.00     0.117 C 
HETATM   14  C1  UNL     1       7.722  -8.604   9.881  1.00  0.00     0.026 C 
ENDBRANCH  11  13
ENDBRANCH   1  11
BRANCH   9  15
HETATM   15  O4  UNL     1       8.684 -10.052   2.819  1.00  0.00    -0.391 OA
ATOM     16  H4  UNL     1       8.718  -9.297   2.242  1.00  0.00     0.210 HD
ENDBRANCH   9  15
BRANCH   8  17
HETATM   17  O3  UNL     1       6.808 -10.637   0.841  1.00  0.00    -0.390 OA
ATOM     18  H3  UNL     1       7.705 -10.703   0.536  1.00  0.00     0.210 HD
ENDBRANCH   8  17
BRANCH   7  19
HETATM   19  C7  UNL     1       4.257 -11.602   1.517  1.00  0.00     0.198 C 
BRANCH  19  20
HETATM   20  O2  UNL     1       4.810 -12.707   0.856  1.00  0.00    -0.398 OA
ATOM     21  H2  UNL     1       4.146 -13.172   0.360  1.00  0.00     0.209 HD
ENDBRANCH  19  20
ENDBRANCH   7  19
TORSDOF 6
ENDMDL
