MODEL 2
REMARK VINA RESULT: -7.168734829      4.080      6.660
REMARK  6 active torsions:
REMARK  status: ('A' for Active; 'I' for Inactive)
REMARK    1  A    between atoms: C2_2  and  N1_3 
REMARK    2  A    between atoms: N1_3  and  C3_5 
REMARK    3  A    between atoms: C6_11  and  C7_12 
REMARK    4  A    between atoms: C7_12  and  O2_13 
REMARK    5  A    between atoms: C8_15  and  O3_16 
REMARK    6  A    between atoms: C9_18  and  O4_19 
ROOT
HETATM    1  C3  UNL     1       5.630 -14.610   0.410  1.00  0.00     0.139 C 
HETATM    2  N2  UNL     1       4.902 -13.633   0.703  1.00  0.00    -0.360 N 
ATOM      3  H2  UNL     1       4.189 -13.321   0.044  1.00  0.00     0.162 HD
HETATM    4  C4  UNL     1       5.054 -12.965   1.923  1.00  0.00     0.154 C 
HETATM    5  C5  UNL     1       5.742 -13.792   2.949  1.00  0.00     0.216 C 
HETATM    6  O1  UNL     1       6.455 -13.219   3.914  1.00  0.00    -0.363 OA
HETATM    7  C6  UNL     1       6.865 -11.939   3.825  1.00  0.00     0.178 C 
HETATM    8  C8  UNL     1       5.782 -11.082   3.206  1.00  0.00     0.180 C 
HETATM    9  C9  UNL     1       5.698 -11.578   1.774  1.00  0.00     0.175 C 
HETATM   10  S1  UNL     1       6.732 -14.850   1.805  1.00  0.00    -0.060 SA
ENDROOT
BRANCH   1  11
HETATM   11  N1  UNL     1       5.567 -15.360  -0.793  1.00  0.00    -0.371 N 
ATOM     12  H1  UNL     1       4.829 -16.057  -0.894  1.00  0.00     0.161 HD
BRANCH  11  13
HETATM   13  C2  UNL     1       6.502 -15.181  -1.883  1.00  0.00     0.117 C 
HETATM   14  C1  UNL     1       7.733 -16.018  -1.780  1.00  0.00     0.026 C 
ENDBRANCH  11  13
ENDBRANCH   1  11
BRANCH   9  15
HETATM   15  O4  UNL     1       4.952 -10.776   0.955  1.00  0.00    -0.391 OA
ATOM     16  H4  UNL     1       5.509 -10.263   0.381  1.00  0.00     0.210 HD
ENDBRANCH   9  15
BRANCH   8  17
HETATM   17  O3  UNL     1       6.056  -9.728   3.291  1.00  0.00    -0.390 OA
ATOM     18  H3  UNL     1       5.762  -9.245   2.528  1.00  0.00     0.210 HD
ENDBRANCH   8  17
BRANCH   7  19
HETATM   19  C7  UNL     1       7.276 -11.407   5.186  1.00  0.00     0.198 C 
BRANCH  19  20
HETATM   20  O2  UNL     1       8.454 -12.023   5.628  1.00  0.00    -0.398 OA
ATOM     21  H2  UNL     1       9.182 -11.413   5.608  1.00  0.00     0.209 HD
ENDBRANCH  19  20
ENDBRANCH   7  19
TORSDOF 6
ENDMDL
