MODEL 4
REMARK VINA RESULT: -6.828223643      4.032      6.567
REMARK  6 active torsions:
REMARK  status: ('A' for Active; 'I' for Inactive)
REMARK    1  A    between atoms: C2_2  and  N1_3 
REMARK    2  A    between atoms: N1_3  and  C3_5 
REMARK    3  A    between atoms: C6_11  and  C7_12 
REMARK    4  A    between atoms: C7_12  and  O2_13 
REMARK    5  A    between atoms: C8_15  and  O3_16 
REMARK    6  A    between atoms: C9_18  and  O4_19 
ROOT
HETATM    1  C3  UNL     1       5.793 -14.604   0.522  1.00  0.00     0.139 C 
HETATM    2  N2  UNL     1       5.047 -13.615   0.711  1.00  0.00    -0.360 N 
ATOM      3  H2  UNL     1       4.407 -13.318  -0.025  1.00  0.00     0.162 HD
HETATM    4  C4  UNL     1       5.080 -12.914   1.922  1.00  0.00     0.154 C 
HETATM    5  C5  UNL     1       5.653 -13.716   3.035  1.00  0.00     0.216 C 
HETATM    6  O1  UNL     1       6.268 -13.119   4.052  1.00  0.00    -0.363 OA
HETATM    7  C6  UNL     1       6.696 -11.845   3.970  1.00  0.00     0.178 C 
HETATM    8  C8  UNL     1       5.689 -11.000   3.220  1.00  0.00     0.180 C 
HETATM    9  C9  UNL     1       5.747 -11.535   1.802  1.00  0.00     0.175 C 
HETATM   10  S1  UNL     1       6.745 -14.811   2.027  1.00  0.00    -0.060 SA
ENDROOT
BRANCH   1  11
HETATM   11  N1  UNL     1       5.846 -15.388  -0.660  1.00  0.00    -0.371 N 
ATOM     12  H1  UNL     1       5.628 -14.941  -1.551  1.00  0.00     0.161 HD
BRANCH  11  13
HETATM   13  C2  UNL     1       6.197 -16.791  -0.660  1.00  0.00     0.117 C 
HETATM   14  C1  UNL     1       5.125 -17.692  -0.145  1.00  0.00     0.026 C 
ENDBRANCH  11  13
ENDBRANCH   1  11
BRANCH   9  15
HETATM   15  O4  UNL     1       5.095 -10.753   0.889  1.00  0.00    -0.391 OA
ATOM     16  H4  UNL     1       4.159 -10.744   1.055  1.00  0.00     0.210 HD
ENDBRANCH   9  15
BRANCH   8  17
HETATM   17  O3  UNL     1       5.964  -9.646   3.296  1.00  0.00    -0.390 OA
ATOM     18  H3  UNL     1       5.215  -9.105   3.075  1.00  0.00     0.210 HD
ENDBRANCH   8  17
BRANCH   7  19
HETATM   19  C7  UNL     1       6.971 -11.277   5.351  1.00  0.00     0.198 C 
BRANCH  19  20
HETATM   20  O2  UNL     1       5.832 -10.641   5.864  1.00  0.00    -0.398 OA
ATOM     21  H2  UNL     1       5.420 -10.100   5.201  1.00  0.00     0.209 HD
ENDBRANCH  19  20
ENDBRANCH   7  19
TORSDOF 6
ENDMDL
