MODEL 1
REMARK VINA RESULT: -7.609923651      0.000      0.000
REMARK  8 active torsions:
REMARK  status: ('A' for Active; 'I' for Inactive)
REMARK       I    between atoms: C2_2  and  N1_4 
REMARK    1  A    between atoms: N1_4  and  C3_6 
REMARK    2  A    between atoms: N2_8  and  O2_10 
REMARK    3  A    between atoms: O2_10  and  C5_11 
REMARK       I    between atoms: C5_11  and  N3_13 
REMARK    4  A    between atoms: N3_13  and  C6_15 
REMARK    5  A    between atoms: C12_22  and  C13_23 
REMARK    6  A    between atoms: C13_23  and  O5_24 
REMARK    7  A    between atoms: C14_26  and  O6_27 
REMARK    8  A    between atoms: C15_29  and  O7_30 
ROOT
HETATM    1  C3  UNL     1      -6.397  -9.204   9.742  1.00  0.00     0.192 C 
HETATM    2  C4  UNL     1      -6.127  -9.943   8.485  1.00  0.00     0.165 C 
HETATM    3  N2  UNL     1      -5.129  -9.584   7.761  1.00  0.00    -0.236 N 
ATOM      4  H2  UNL     1      -4.561  -8.801   8.085  1.00  0.00     0.197 HD
HETATM    5  O4  UNL     1      -6.959 -10.972   8.160  1.00  0.00    -0.326 OA
HETATM    6  C12 UNL     1      -8.158 -11.297   8.809  1.00  0.00     0.185 C 
HETATM    7  C14 UNL     1      -8.677 -10.263   9.732  1.00  0.00     0.180 C 
HETATM    8  C15 UNL     1      -7.896  -9.007   9.817  1.00  0.00     0.180 C 
ENDROOT
BRANCH   1   9
HETATM    9  N1  UNL     1      -6.032 -10.003  10.912  1.00  0.00    -0.347 N 
HETATM   10  C2  UNL     1      -4.698 -10.147  11.357  1.00  0.00     0.214 C 
HETATM   11  C1  UNL     1      -4.295 -10.946  12.534  1.00  0.00     0.117 C 
HETATM   12  O1  UNL     1      -3.808  -9.534  10.675  1.00  0.00    -0.274 OA
ATOM     13  H1  UNL     1      -6.772 -10.477  11.429  1.00  0.00     0.163 HD
ENDBRANCH   1   9
BRANCH   3  14
HETATM   14  O2  UNL     1      -4.779 -10.182   6.591  1.00  0.00    -0.179 OA
BRANCH  14  15
HETATM   15  C5  UNL     1      -3.669 -11.068   6.633  1.00  0.00     0.387 C 
HETATM   16  O3  UNL     1      -2.524 -10.568   6.551  1.00  0.00    -0.236 OA
HETATM   17  N3  UNL     1      -3.881 -12.434   6.760  1.00  0.00    -0.301 N 
ATOM     18  H3  UNL     1      -4.848 -12.752   6.816  1.00  0.00     0.171 HD
BRANCH  17  19
HETATM   19  C6  UNL     1      -2.884 -13.407   6.818  1.00  0.00     0.036 A 
HETATM   20  C7  UNL     1      -2.489 -13.984   5.608  1.00  0.00     0.029 A 
HETATM   21  C8  UNL     1      -1.527 -14.957   5.593  1.00  0.00     0.002 A 
HETATM   22  C9  UNL     1      -0.950 -15.366   6.773  1.00  0.00     0.000 A 
HETATM   23  C10 UNL     1      -1.330 -14.807   7.967  1.00  0.00     0.002 A 
HETATM   24  C11 UNL     1      -2.314 -13.811   7.985  1.00  0.00     0.029 A 
ENDBRANCH  17  19
ENDBRANCH  14  15
ENDBRANCH   3  14
BRANCH   8  25
HETATM   25  O7  UNL     1      -8.244  -8.070   8.857  1.00  0.00    -0.390 OA
ATOM     26  H7  UNL     1      -9.191  -8.000   8.855  1.00  0.00     0.210 HD
ENDBRANCH   8  25
BRANCH   6  27
HETATM   27  C13 UNL     1      -9.181 -11.593   7.705  1.00  0.00     0.199 C 
BRANCH  27  28
HETATM   28  O5  UNL     1      -8.560 -11.941   6.523  1.00  0.00    -0.398 OA
ATOM     29  H5  UNL     1      -9.051 -11.637   5.770  1.00  0.00     0.209 HD
ENDBRANCH  27  28
ENDBRANCH   6  27
BRANCH   7  30
HETATM   30  O6  UNL     1      -8.816 -10.852  11.010  1.00  0.00    -0.390 OA
ATOM     31  H6  UNL     1      -9.237 -10.219  11.579  1.00  0.00     0.210 HD
ENDBRANCH   7  30
TORSDOF 8
ENDMDL
