MODEL 7
REMARK VINA RESULT: -6.760911763      2.129      6.529
REMARK  8 active torsions:
REMARK  status: ('A' for Active; 'I' for Inactive)
REMARK       I    between atoms: C2_2  and  N1_4 
REMARK    1  A    between atoms: N1_4  and  C3_6 
REMARK    2  A    between atoms: N2_8  and  O2_10 
REMARK    3  A    between atoms: O2_10  and  C5_11 
REMARK       I    between atoms: C5_11  and  N3_13 
REMARK    4  A    between atoms: N3_13  and  C6_15 
REMARK    5  A    between atoms: C12_22  and  C13_23 
REMARK    6  A    between atoms: C13_23  and  O5_24 
REMARK    7  A    between atoms: C14_26  and  O6_27 
REMARK    8  A    between atoms: C15_29  and  O7_30 
ROOT
HETATM    1  C3  UNL     1      -3.049 -10.127   9.585  1.00  0.00     0.192 C 
HETATM    2  C4  UNL     1      -4.320 -10.358  10.313  1.00  0.00     0.165 C 
HETATM    3  N2  UNL     1      -5.363  -9.697   9.957  1.00  0.00    -0.236 N 
ATOM      4  H2  UNL     1      -5.270  -9.038   9.184  1.00  0.00     0.197 HD
HETATM    5  O4  UNL     1      -4.317 -11.265  11.330  1.00  0.00    -0.326 OA
HETATM    6  C12 UNL     1      -3.184 -11.882  11.878  1.00  0.00     0.185 C 
HETATM    7  C14 UNL     1      -1.888 -11.277  11.497  1.00  0.00     0.180 C 
HETATM    8  C15 UNL     1      -1.954 -10.078  10.629  1.00  0.00     0.180 C 
ENDROOT
BRANCH   1   9
HETATM    9  N1  UNL     1      -2.729 -11.257   8.713  1.00  0.00    -0.347 N 
HETATM   10  C2  UNL     1      -3.459 -11.551   7.538  1.00  0.00     0.214 C 
HETATM   11  C1  UNL     1      -3.163 -12.683   6.635  1.00  0.00     0.117 C 
HETATM   12  O1  UNL     1      -4.432 -10.766   7.270  1.00  0.00    -0.274 OA
ATOM     13  H1  UNL     1      -1.945 -11.859   8.962  1.00  0.00     0.163 HD
ENDBRANCH   1   9
BRANCH   3  14
HETATM   14  O2  UNL     1      -6.583  -9.820  10.545  1.00  0.00    -0.179 OA
BRANCH  14  15
HETATM   15  C5  UNL     1      -7.694 -10.001   9.678  1.00  0.00     0.387 C 
HETATM   16  O3  UNL     1      -8.839  -9.934  10.181  1.00  0.00    -0.236 OA
HETATM   17  N3  UNL     1      -7.484 -10.242   8.328  1.00  0.00    -0.301 N 
ATOM     18  H3  UNL     1      -6.517 -10.283   8.007  1.00  0.00     0.171 HD
BRANCH  17  19
HETATM   19  C6  UNL     1      -8.482 -10.431   7.372  1.00  0.00     0.036 A 
HETATM   20  C7  UNL     1      -8.867 -11.749   7.109  1.00  0.00     0.029 A 
HETATM   21  C8  UNL     1      -9.829 -12.008   6.172  1.00  0.00     0.002 A 
HETATM   22  C9  UNL     1     -10.416 -10.968   5.489  1.00  0.00     0.000 A 
HETATM   23  C10 UNL     1     -10.046  -9.671   5.739  1.00  0.00     0.002 A 
HETATM   24  C11 UNL     1      -9.062  -9.403   6.697  1.00  0.00     0.029 A 
ENDBRANCH  17  19
ENDBRANCH  14  15
ENDBRANCH   3  14
BRANCH   8  25
HETATM   25  O7  UNL     1      -2.097  -8.891  11.331  1.00  0.00    -0.390 OA
ATOM     26  H7  UNL     1      -2.086  -8.182  10.701  1.00  0.00     0.210 HD
ENDBRANCH   8  25
BRANCH   6  27
HETATM   27  C13 UNL     1      -3.366 -11.845  13.401  1.00  0.00     0.199 C 
BRANCH  27  28
HETATM   28  O5  UNL     1      -4.265 -10.870  13.777  1.00  0.00    -0.398 OA
ATOM     29  H5  UNL     1      -4.066 -10.529  14.641  1.00  0.00     0.209 HD
ENDBRANCH  27  28
ENDBRANCH   6  27
BRANCH   7  30
HETATM   30  O6  UNL     1      -1.099 -12.284  10.896  1.00  0.00    -0.390 OA
ATOM     31  H6  UNL     1      -0.492 -12.608  11.550  1.00  0.00     0.210 HD
ENDBRANCH   7  30
TORSDOF 8
ENDMDL
