MODEL 2
REMARK VINA RESULT: -7.345779135      2.565      5.970
REMARK  8 active torsions:
REMARK  status: ('A' for Active; 'I' for Inactive)
REMARK       I    between atoms: C2_2  and  N1_4 
REMARK    1  A    between atoms: N1_4  and  C3_6 
REMARK    2  A    between atoms: N2_8  and  O2_10 
REMARK    3  A    between atoms: O2_10  and  C5_11 
REMARK       I    between atoms: C5_11  and  N3_13 
REMARK    4  A    between atoms: N3_13  and  C6_15 
REMARK    5  A    between atoms: C12_22  and  C13_23 
REMARK    6  A    between atoms: C13_23  and  O5_24 
REMARK    7  A    between atoms: C14_26  and  O6_27 
REMARK    8  A    between atoms: C15_29  and  O7_30 
ROOT
HETATM    1  C3  UNL     1      -3.769 -11.396  10.512  1.00  0.00     0.192 C 
HETATM    2  C4  UNL     1      -4.671 -10.345   9.983  1.00  0.00     0.165 C 
HETATM    3  N2  UNL     1      -5.759 -10.090  10.616  1.00  0.00    -0.236 N 
ATOM      4  H2  UNL     1      -5.956 -10.626  11.461  1.00  0.00     0.197 HD
HETATM    5  O4  UNL     1      -4.296  -9.699   8.843  1.00  0.00    -0.326 OA
HETATM    6  C12 UNL     1      -3.221 -10.048   8.015  1.00  0.00     0.185 C 
HETATM    7  C14 UNL     1      -2.638 -11.385   8.267  1.00  0.00     0.180 C 
HETATM    8  C15 UNL     1      -3.289 -12.197   9.321  1.00  0.00     0.180 C 
ENDROOT
BRANCH   1   9
HETATM    9  N1  UNL     1      -2.573 -10.808  11.117  1.00  0.00    -0.347 N 
HETATM   10  C2  UNL     1      -2.571 -10.226  12.405  1.00  0.00     0.214 C 
HETATM   11  C1  UNL     1      -1.381  -9.624  13.044  1.00  0.00     0.117 C 
HETATM   12  O1  UNL     1      -3.686 -10.238  13.029  1.00  0.00    -0.274 OA
ATOM     13  H1  UNL     1      -1.702 -10.819  10.585  1.00  0.00     0.163 HD
ENDBRANCH   1   9
BRANCH   3  14
HETATM   14  O2  UNL     1      -6.665  -9.152  10.232  1.00  0.00    -0.179 OA
BRANCH  14  15
HETATM   15  C5  UNL     1      -7.748  -9.601   9.428  1.00  0.00     0.387 C 
HETATM   16  O3  UNL     1      -8.867  -9.718   9.977  1.00  0.00    -0.236 OA
HETATM   17  N3  UNL     1      -7.539  -9.890   8.087  1.00  0.00    -0.301 N 
ATOM     18  H3  UNL     1      -6.593  -9.769   7.726  1.00  0.00     0.171 HD
BRANCH  17  19
HETATM   19  C6  UNL     1      -8.512 -10.332   7.191  1.00  0.00     0.036 A 
HETATM   20  C7  UNL     1      -9.224  -9.353   6.493  1.00  0.00     0.029 A 
HETATM   21  C8  UNL     1     -10.204  -9.715   5.610  1.00  0.00     0.002 A 
HETATM   22  C9  UNL     1     -10.487 -11.047   5.412  1.00  0.00     0.000 A 
HETATM   23  C10 UNL     1      -9.795 -12.017   6.091  1.00  0.00     0.002 A 
HETATM   24  C11 UNL     1      -8.792 -11.649   6.995  1.00  0.00     0.029 A 
ENDBRANCH  17  19
ENDBRANCH  14  15
ENDBRANCH   3  14
BRANCH   8  25
HETATM   25  O7  UNL     1      -4.359 -12.948   8.862  1.00  0.00    -0.390 OA
ATOM     26  H7  UNL     1      -4.747 -12.479   8.133  1.00  0.00     0.210 HD
ENDBRANCH   8  25
BRANCH   6  27
HETATM   27  C13 UNL     1      -3.735  -9.950   6.573  1.00  0.00     0.199 C 
BRANCH  27  28
HETATM   28  O5  UNL     1      -5.078 -10.257   6.495  1.00  0.00    -0.398 OA
ATOM     29  H5  UNL     1      -5.534  -9.670   5.904  1.00  0.00     0.209 HD
ENDBRANCH  27  28
ENDBRANCH   6  27
BRANCH   7  30
HETATM   30  O6  UNL     1      -1.263 -11.213   8.548  1.00  0.00    -0.390 OA
ATOM     31  H6  UNL     1      -1.159 -10.384   8.999  1.00  0.00     0.210 HD
ENDBRANCH   7  30
TORSDOF 8
ENDMDL
