MODEL 3
REMARK VINA RESULT: -6.175868691      0.131      1.013
REMARK  5 active torsions:
REMARK  status: ('A' for Active; 'I' for Inactive)
REMARK    1  A    between atoms: N1_1  and  C1_5 
REMARK    2  A    between atoms: C1_5  and  C2_6 
REMARK    3  A    between atoms: C1_5  and  C5_11 
REMARK    4  A    between atoms: C2_6  and  C3_7 
REMARK    5  A    between atoms: C3_7  and  C4_8 
ROOT
HETATM    1  C1  UNL     1      17.287  43.684  74.825  1.00  0.00     0.283 C 
ENDROOT
BRANCH   1   2
HETATM    2  N1  UNL     1      15.939  43.250  75.141  1.00  0.00    -0.065 N 
ATOM      3  H13 UNL     1      15.875  42.741  76.023  1.00  0.00     0.275 HD
ATOM      4  H12 UNL     1      15.316  44.018  75.392  1.00  0.00     0.275 HD
ATOM      5  H11 UNL     1      15.613  42.710  74.338  1.00  0.00     0.275 HD
ENDBRANCH   1   2
BRANCH   1   6
HETATM    6  C2  UNL     1      17.161  45.044  74.195  1.00  0.00     0.054 C 
BRANCH   6   7
HETATM    7  C3  UNL     1      17.061  46.180  75.147  1.00  0.00     0.116 C 
BRANCH   7   8
HETATM    8  C4  UNL     1      17.977  46.107  76.298  1.00  0.00     0.172 C 
HETATM    9  O1  UNL     1      19.094  46.679  76.185  1.00  0.00    -0.648 OA
HETATM   10  O2  UNL     1      17.715  45.463  77.491  1.00  0.00    -0.648 OA
ENDBRANCH   7   8
ENDBRANCH   6   7
ENDBRANCH   1   6
BRANCH   1  11
HETATM   11  C5  UNL     1      17.883  42.689  73.922  1.00  0.00     0.204 C 
HETATM   12  O3  UNL     1      19.112  42.675  73.741  1.00  0.00    -0.646 OA
HETATM   13  O4  UNL     1      17.106  41.762  73.262  1.00  0.00    -0.646 OA
ENDBRANCH   1  11
TORSDOF 5
ENDMDL
