MODEL 19
REMARK VINA RESULT: -4.483004482      4.031      5.503
REMARK  5 active torsions:
REMARK  status: ('A' for Active; 'I' for Inactive)
REMARK    1  A    between atoms: N1_1  and  C1_5 
REMARK    2  A    between atoms: C1_5  and  C2_6 
REMARK    3  A    between atoms: C1_5  and  C5_11 
REMARK    4  A    between atoms: C2_6  and  C3_7 
REMARK    5  A    between atoms: C3_7  and  C4_8 
ROOT
HETATM    1  C1  UNL     1      20.050  49.174  74.787  1.00  0.00     0.283 C 
ENDROOT
BRANCH   1   2
HETATM    2  N1  UNL     1      20.252  50.329  75.642  1.00  0.00    -0.065 N 
ATOM      3  H13 UNL     1      21.191  50.380  76.037  1.00  0.00     0.275 HD
ATOM      4  H12 UNL     1      20.281  51.210  75.129  1.00  0.00     0.275 HD
ATOM      5  H11 UNL     1      19.517  50.297  76.349  1.00  0.00     0.275 HD
ENDBRANCH   1   2
BRANCH   1   6
HETATM    6  C2  UNL     1      19.791  48.006  75.701  1.00  0.00     0.054 C 
BRANCH   6   7
HETATM    7  C3  UNL     1      18.544  47.248  75.427  1.00  0.00     0.116 C 
BRANCH   7   8
HETATM    8  C4  UNL     1      18.332  46.070  76.285  1.00  0.00     0.172 C 
HETATM    9  O1  UNL     1      19.151  45.119  76.174  1.00  0.00    -0.648 OA
HETATM   10  O2  UNL     1      17.310  45.919  77.201  1.00  0.00    -0.648 OA
ENDBRANCH   7   8
ENDBRANCH   6   7
ENDBRANCH   1   6
BRANCH   1  11
HETATM   11  C5  UNL     1      21.257  49.001  73.968  1.00  0.00     0.204 C 
HETATM   12  O3  UNL     1      21.164  48.954  72.730  1.00  0.00    -0.646 OA
HETATM   13  O4  UNL     1      22.505  48.887  74.542  1.00  0.00    -0.646 OA
ENDBRANCH   1  11
TORSDOF 5
ENDMDL
