MODEL 2
REMARK VINA RESULT: -6.217751923      0.113      1.013
REMARK  5 active torsions:
REMARK  status: ('A' for Active; 'I' for Inactive)
REMARK    1  A    between atoms: N1_1  and  C1_5 
REMARK    2  A    between atoms: C1_5  and  C2_6 
REMARK    3  A    between atoms: C1_5  and  C5_11 
REMARK    4  A    between atoms: C2_6  and  C3_7 
REMARK    5  A    between atoms: C3_7  and  C4_8 
ROOT
HETATM    1  C1  UNL     1      17.340  43.586  74.822  1.00  0.00     0.283 C 
ENDROOT
BRANCH   1   2
HETATM    2  N1  UNL     1      16.001  43.147  75.170  1.00  0.00    -0.065 N 
ATOM      3  H13 UNL     1      15.285  43.487  74.528  1.00  0.00     0.275 HD
ATOM      4  H12 UNL     1      15.849  42.150  75.013  1.00  0.00     0.275 HD
ATOM      5  H11 UNL     1      15.846  43.432  76.137  1.00  0.00     0.275 HD
ENDBRANCH   1   2
BRANCH   1   6
HETATM    6  C2  UNL     1      17.201  44.975  74.259  1.00  0.00     0.054 C 
BRANCH   6   7
HETATM    7  C3  UNL     1      16.927  46.041  75.255  1.00  0.00     0.116 C 
BRANCH   7   8
HETATM    8  C4  UNL     1      17.931  46.163  76.326  1.00  0.00     0.172 C 
HETATM    9  O1  UNL     1      17.635  45.686  77.453  1.00  0.00    -0.648 OA
HETATM   10  O2  UNL     1      19.170  46.759  76.198  1.00  0.00    -0.648 OA
ENDBRANCH   7   8
ENDBRANCH   6   7
ENDBRANCH   1   6
BRANCH   1  11
HETATM   11  C5  UNL     1      17.892  42.629  73.854  1.00  0.00     0.204 C 
HETATM   12  O3  UNL     1      17.135  41.844  73.259  1.00  0.00    -0.646 OA
HETATM   13  O4  UNL     1      19.243  42.576  73.586  1.00  0.00    -0.646 OA
ENDBRANCH   1  11
TORSDOF 5
ENDMDL
