MODEL 7
REMARK VINA RESULT: -8.243139910      4.259      8.798
REMARK  6 active torsions:
REMARK  status: ('A' for Active; 'I' for Inactive)
REMARK    1  A    between atoms: C1_2  and  C2_3 
REMARK       I    between atoms: C1_2  and  N3_19 
REMARK    2  A    between atoms: C2_3  and  N1_4 
REMARK    3  A    between atoms: C5_7  and  N2_8 
REMARK       I    between atoms: N2_8  and  C6_10 
REMARK    4  A    between atoms: C6_10  and  C7_12 
REMARK    5  A    between atoms: N3_19  and  C12_21 
REMARK    6  A    between atoms: C15_24  and  N4_25 
ROOT
HETATM    1  O1  UNL     1      -1.714  14.309  20.351  1.00  0.00    -0.271 OA
HETATM    2  C1  UNL     1      -1.770  13.424  19.449  1.00  0.00     0.250 C 
HETATM    3  N3  UNL     1      -1.690  12.080  19.832  1.00  0.00    -0.323 N 
ATOM      4  H3  UNL     1      -1.740  11.399  19.074  1.00  0.00     0.169 HD
ENDROOT
BRANCH   2   5
HETATM    5  C2  UNL     1      -1.919  13.884  18.042  1.00  0.00     0.375 C 
BRANCH   5   6
HETATM    6  N1  UNL     1      -2.596  12.959  17.199  1.00  0.00     0.099 N 
HETATM    7  C3  UNL     1      -2.928  13.515  15.892  1.00  0.00     0.275 C 
HETATM    8  C4  UNL     1      -3.838  12.422  15.351  1.00  0.00     0.057 C 
HETATM    9  C5  UNL     1      -4.715  12.132  16.572  1.00  0.00     0.114 C 
HETATM   10  C11 UNL     1      -3.951  12.735  17.719  1.00  0.00     0.298 C 
BRANCH   9  11
HETATM   11  N2  UNL     1      -4.820  10.675  16.685  1.00  0.00    -0.350 N 
HETATM   12  C6  UNL     1      -5.689  10.049  17.603  1.00  0.00     0.259 C 
HETATM   13  O2  UNL     1      -6.403  10.752  18.356  1.00  0.00    -0.267 OA
ATOM     14  H2  UNL     1      -4.244  10.093  16.078  1.00  0.00     0.163 HD
BRANCH  12  15
HETATM   15  C7  UNL     1      -5.803   8.595  17.723  1.00  0.00     0.074 A 
HETATM   16  C8  UNL     1      -5.149   7.755  18.588  1.00  0.00     0.027 A 
HETATM   17  C9  UNL     1      -5.426   6.451  18.503  1.00  0.00     0.033 A 
HETATM   18  C10 UNL     1      -6.337   6.054  17.563  1.00  0.00     0.075 A 
HETATM   19 CL1  UNL     1      -6.901   4.410  17.218  1.00  0.00    -0.076 Cl
HETATM   20  S1  UNL     1      -6.780   7.531  16.823  1.00  0.00    -0.072 SA
ENDBRANCH  12  15
ENDBRANCH   9  11
ENDBRANCH   5   6
ENDBRANCH   2   5
BRANCH   3  21
HETATM   21  C12 UNL     1      -1.548  11.546  21.129  1.00  0.00     0.073 A 
HETATM   22  C13 UNL     1      -0.491  11.737  21.982  1.00  0.00     0.035 A 
HETATM   23  C14 UNL     1      -0.437  11.162  23.262  1.00  0.00     0.032 A 
HETATM   24  C15 UNL     1      -1.445  10.382  23.714  1.00  0.00     0.045 A 
HETATM   25  C21 UNL     1      -2.524  10.166  22.891  1.00  0.00     0.074 A 
HETATM   26  C22 UNL     1      -2.566  10.731  21.645  1.00  0.00     0.145 A 
HETATM   27  F1  UNL     1      -3.658  10.479  20.884  1.00  0.00    -0.204 F 
BRANCH  24  28
HETATM   28  N4  UNL     1      -1.441   9.768  25.015  1.00  0.00    -0.290 N 
HETATM   29  C16 UNL     1      -2.361  10.158  25.905  1.00  0.00     0.100 A 
HETATM   30  C17 UNL     1      -2.417   9.605  27.189  1.00  0.00     0.018 A 
HETATM   31  C18 UNL     1      -1.511   8.635  27.563  1.00  0.00     0.007 A 
HETATM   32  C19 UNL     1      -0.570   8.245  26.635  1.00  0.00     0.075 A 
HETATM   33  C20 UNL     1      -0.552   8.824  25.367  1.00  0.00     0.252 A 
HETATM   34  O3  UNL     1       0.307   8.472  24.511  1.00  0.00    -0.268 OA
ENDBRANCH  24  28
ENDBRANCH   3  21
TORSDOF 6
ENDMDL
