MODEL 4
REMARK VINA RESULT: -9.136769873      1.504      1.837
REMARK  6 active torsions:
REMARK  status: ('A' for Active; 'I' for Inactive)
REMARK    1  A    between atoms: C1_2  and  C2_3 
REMARK       I    between atoms: C1_2  and  N3_19 
REMARK    2  A    between atoms: C2_3  and  N1_4 
REMARK    3  A    between atoms: C5_7  and  N2_8 
REMARK       I    between atoms: N2_8  and  C6_10 
REMARK    4  A    between atoms: C6_10  and  C7_12 
REMARK    5  A    between atoms: N3_19  and  C12_21 
REMARK    6  A    between atoms: C15_24  and  N4_25 
ROOT
HETATM    1  O1  UNL     1      -7.650  11.491  22.768  1.00  0.00    -0.271 OA
HETATM    2  C1  UNL     1      -6.812  12.342  22.356  1.00  0.00     0.250 C 
HETATM    3  N3  UNL     1      -6.202  12.125  21.115  1.00  0.00    -0.323 N 
ATOM      4  H3  UNL     1      -5.532  12.835  20.819  1.00  0.00     0.169 HD
ENDROOT
BRANCH   2   5
HETATM    5  C2  UNL     1      -6.537  13.517  23.226  1.00  0.00     0.375 C 
BRANCH   5   6
HETATM    6  N1  UNL     1      -5.710  13.226  24.347  1.00  0.00     0.099 N 
HETATM    7  C3  UNL     1      -5.318  14.418  25.092  1.00  0.00     0.275 C 
HETATM    8  C4  UNL     1      -4.271  13.826  26.025  1.00  0.00     0.057 C 
HETATM    9  C5  UNL     1      -3.479  12.939  25.061  1.00  0.00     0.114 C 
HETATM   10  C11 UNL     1      -4.390  12.791  23.873  1.00  0.00     0.298 C 
BRANCH   9  11
HETATM   11  N2  UNL     1      -3.254  11.663  25.744  1.00  0.00    -0.350 N 
HETATM   12  C6  UNL     1      -2.050  10.938  25.616  1.00  0.00     0.259 C 
HETATM   13  O2  UNL     1      -1.132  11.391  24.893  1.00  0.00    -0.267 OA
ATOM     14  H2  UNL     1      -3.994  11.284  26.334  1.00  0.00     0.163 HD
BRANCH  12  15
HETATM   15  C7  UNL     1      -1.814   9.663  26.295  1.00  0.00     0.074 A 
HETATM   16  C8  UNL     1      -2.484   9.129  27.364  1.00  0.00     0.027 A 
HETATM   17  C9  UNL     1      -2.079   7.936  27.809  1.00  0.00     0.033 A 
HETATM   18  C10 UNL     1      -1.029   7.341  27.164  1.00  0.00     0.075 A 
HETATM   19 CL1  UNL     1      -0.275   5.778  27.521  1.00  0.00    -0.076 Cl
HETATM   20  S1  UNL     1      -0.641   8.480  25.948  1.00  0.00    -0.072 SA
ENDBRANCH  12  15
ENDBRANCH   9  11
ENDBRANCH   5   6
ENDBRANCH   2   5
BRANCH   3  21
HETATM   21  C12 UNL     1      -6.392  11.051  20.221  1.00  0.00     0.073 A 
HETATM   22  C13 UNL     1      -7.568  10.694  19.610  1.00  0.00     0.035 A 
HETATM   23  C14 UNL     1      -7.662   9.604  18.730  1.00  0.00     0.032 A 
HETATM   24  C15 UNL     1      -6.578   8.848  18.443  1.00  0.00     0.045 A 
HETATM   25  C21 UNL     1      -5.381   9.173  19.034  1.00  0.00     0.074 A 
HETATM   26  C22 UNL     1      -5.299  10.237  19.891  1.00  0.00     0.145 A 
HETATM   27  F1  UNL     1      -4.090  10.503  20.439  1.00  0.00    -0.204 F 
BRANCH  24  28
HETATM   28  N4  UNL     1      -6.619   7.722  17.550  1.00  0.00    -0.290 N 
HETATM   29  C16 UNL     1      -6.612   7.953  16.233  1.00  0.00     0.100 A 
HETATM   30  C17 UNL     1      -6.650   6.907  15.305  1.00  0.00     0.018 A 
HETATM   31  C18 UNL     1      -6.698   5.600  15.741  1.00  0.00     0.007 A 
HETATM   32  C19 UNL     1      -6.705   5.378  17.101  1.00  0.00     0.075 A 
HETATM   33  C20 UNL     1      -6.666   6.452  17.988  1.00  0.00     0.252 A 
HETATM   34  O3  UNL     1      -6.673   6.257  19.236  1.00  0.00    -0.268 OA
ENDBRANCH  24  28
ENDBRANCH   3  21
TORSDOF 6
ENDMDL
