MODEL 9
REMARK VINA RESULT: -8.148324769      4.516      9.931
REMARK  6 active torsions:
REMARK  status: ('A' for Active; 'I' for Inactive)
REMARK    1  A    between atoms: C1_2  and  C2_3 
REMARK       I    between atoms: C1_2  and  N3_19 
REMARK    2  A    between atoms: C2_3  and  N1_4 
REMARK    3  A    between atoms: C5_7  and  N2_8 
REMARK       I    between atoms: N2_8  and  C6_10 
REMARK    4  A    between atoms: C6_10  and  C7_12 
REMARK    5  A    between atoms: N3_19  and  C12_21 
REMARK    6  A    between atoms: C15_24  and  N4_25 
ROOT
HETATM    1  O1  UNL     1      -3.573  10.842  24.943  1.00  0.00    -0.271 OA
HETATM    2  C1  UNL     1      -2.653  11.330  24.227  1.00  0.00     0.250 C 
HETATM    3  N3  UNL     1      -2.663  12.708  23.983  1.00  0.00    -0.323 N 
ATOM      4  H3  UNL     1      -1.903  13.062  23.401  1.00  0.00     0.169 HD
ENDROOT
BRANCH   2   5
HETATM    5  C2  UNL     1      -1.624  10.396  23.696  1.00  0.00     0.375 C 
BRANCH   5   6
HETATM    6  N1  UNL     1      -1.752  10.123  22.305  1.00  0.00     0.099 N 
HETATM    7  C3  UNL     1      -0.929  10.995  21.474  1.00  0.00     0.275 C 
HETATM    8  C4  UNL     1      -1.468  10.646  20.094  1.00  0.00     0.057 C 
HETATM    9  C5  UNL     1      -2.976  10.636  20.354  1.00  0.00     0.114 C 
HETATM   10  C11 UNL     1      -3.084  10.540  21.852  1.00  0.00     0.298 C 
BRANCH   9  11
HETATM   11  N2  UNL     1      -3.517   9.451  19.686  1.00  0.00    -0.350 N 
HETATM   12  C6  UNL     1      -4.828   9.407  19.167  1.00  0.00     0.259 C 
HETATM   13  O2  UNL     1      -5.568  10.412  19.275  1.00  0.00    -0.267 OA
ATOM     14  H2  UNL     1      -2.923   8.627  19.592  1.00  0.00     0.163 HD
BRANCH  12  15
HETATM   15  C7  UNL     1      -5.377   8.228  18.496  1.00  0.00     0.074 A 
HETATM   16  C8  UNL     1      -5.251   6.909  18.847  1.00  0.00     0.027 A 
HETATM   17  C9  UNL     1      -5.851   6.005  18.067  1.00  0.00     0.033 A 
HETATM   18  C10 UNL     1      -6.543   6.465  16.980  1.00  0.00     0.075 A 
HETATM   19 CL1  UNL     1      -7.433   5.518  15.774  1.00  0.00    -0.076 Cl
HETATM   20  S1  UNL     1      -6.330   8.159  17.087  1.00  0.00    -0.072 SA
ENDBRANCH  12  15
ENDBRANCH   9  11
ENDBRANCH   5   6
ENDBRANCH   2   5
BRANCH   3  21
HETATM   21  C12 UNL     1      -3.587  13.671  24.436  1.00  0.00     0.073 A 
HETATM   22  C13 UNL     1      -4.181  13.717  25.673  1.00  0.00     0.035 A 
HETATM   23  C14 UNL     1      -5.093  14.720  26.037  1.00  0.00     0.032 A 
HETATM   24  C15 UNL     1      -5.430  15.700  25.168  1.00  0.00     0.045 A 
HETATM   25  C21 UNL     1      -4.857  15.691  23.919  1.00  0.00     0.074 A 
HETATM   26  C22 UNL     1      -3.969  14.708  23.574  1.00  0.00     0.145 A 
HETATM   27  F1  UNL     1      -3.440  14.758  22.328  1.00  0.00    -0.204 F 
BRANCH  24  28
HETATM   28  N4  UNL     1      -6.359  16.750  25.490  1.00  0.00    -0.290 N 
HETATM   29  C16 UNL     1      -5.896  17.843  26.106  1.00  0.00     0.100 A 
HETATM   30  C17 UNL     1      -6.741  18.904  26.449  1.00  0.00     0.018 A 
HETATM   31  C18 UNL     1      -8.086  18.838  26.153  1.00  0.00     0.007 A 
HETATM   32  C19 UNL     1      -8.547  17.705  25.518  1.00  0.00     0.075 A 
HETATM   33  C20 UNL     1      -7.668  16.674  25.196  1.00  0.00     0.252 A 
HETATM   34  O3  UNL     1      -8.083  15.632  24.615  1.00  0.00    -0.268 OA
ENDBRANCH  24  28
ENDBRANCH   3  21
TORSDOF 6
ENDMDL
