MODEL 6
REMARK VINA RESULT: -8.402950573      4.365      8.868
REMARK  6 active torsions:
REMARK  status: ('A' for Active; 'I' for Inactive)
REMARK    1  A    between atoms: C1_2  and  C2_3 
REMARK       I    between atoms: C1_2  and  N3_19 
REMARK    2  A    between atoms: C2_3  and  N1_4 
REMARK    3  A    between atoms: C5_7  and  N2_8 
REMARK       I    between atoms: N2_8  and  C6_10 
REMARK    4  A    between atoms: C6_10  and  C7_12 
REMARK    5  A    between atoms: N3_19  and  C12_21 
REMARK    6  A    between atoms: C15_24  and  N4_25 
ROOT
HETATM    1  O1  UNL     1      -2.633  13.927  19.509  1.00  0.00    -0.271 OA
HETATM    2  C1  UNL     1      -2.300  13.045  18.666  1.00  0.00     0.250 C 
HETATM    3  N3  UNL     1      -1.833  11.815  19.144  1.00  0.00    -0.323 N 
ATOM      4  H3  UNL     1      -1.575  11.132  18.431  1.00  0.00     0.169 HD
ENDROOT
BRANCH   2   5
HETATM    5  C2  UNL     1      -2.431  13.386  17.224  1.00  0.00     0.375 C 
BRANCH   5   6
HETATM    6  N1  UNL     1      -3.166  12.431  16.467  1.00  0.00     0.099 N 
HETATM    7  C3  UNL     1      -3.618  12.948  15.181  1.00  0.00     0.275 C 
HETATM    8  C4  UNL     1      -4.556  11.830  14.750  1.00  0.00     0.057 C 
HETATM    9  C5  UNL     1      -5.319  11.562  16.050  1.00  0.00     0.114 C 
HETATM   10  C11 UNL     1      -4.466  12.205  17.109  1.00  0.00     0.298 C 
BRANCH   9  11
HETATM   11  N2  UNL     1      -5.393  10.108  16.209  1.00  0.00    -0.350 N 
HETATM   12  C6  UNL     1      -6.084   9.498  17.278  1.00  0.00     0.259 C 
HETATM   13  O2  UNL     1      -6.659  10.215  18.129  1.00  0.00    -0.267 OA
ATOM     14  H2  UNL     1      -4.929   9.515  15.522  1.00  0.00     0.163 HD
BRANCH  12  15
HETATM   15  C7  UNL     1      -6.165   8.047  17.445  1.00  0.00     0.074 A 
HETATM   16  C8  UNL     1      -5.731   7.282  18.496  1.00  0.00     0.027 A 
HETATM   17  C9  UNL     1      -5.921   5.962  18.415  1.00  0.00     0.033 A 
HETATM   18  C10 UNL     1      -6.533   5.476  17.293  1.00  0.00     0.075 A 
HETATM   19 CL1  UNL     1      -6.917   3.790  16.903  1.00  0.00    -0.076 Cl
HETATM   20  S1  UNL     1      -6.824   6.893  16.380  1.00  0.00    -0.072 SA
ENDBRANCH  12  15
ENDBRANCH   9  11
ENDBRANCH   5   6
ENDBRANCH   2   5
BRANCH   3  21
HETATM   21  C12 UNL     1      -1.673  11.398  20.480  1.00  0.00     0.073 A 
HETATM   22  C13 UNL     1      -0.631  11.711  21.316  1.00  0.00     0.035 A 
HETATM   23  C14 UNL     1      -0.556  11.248  22.640  1.00  0.00     0.032 A 
HETATM   24  C15 UNL     1      -1.527  10.458  23.154  1.00  0.00     0.045 A 
HETATM   25  C21 UNL     1      -2.589  10.121  22.349  1.00  0.00     0.074 A 
HETATM   26  C22 UNL     1      -2.652  10.578  21.060  1.00  0.00     0.145 A 
HETATM   27  F1  UNL     1      -3.725  10.209  20.322  1.00  0.00    -0.204 F 
BRANCH  24  28
HETATM   28  N4  UNL     1      -1.500   9.956  24.501  1.00  0.00    -0.290 N 
HETATM   29  C16 UNL     1      -0.606   9.011  24.811  1.00  0.00     0.100 A 
HETATM   30  C17 UNL     1      -0.522   8.476  26.101  1.00  0.00     0.018 A 
HETATM   31  C18 UNL     1      -1.375   8.921  27.088  1.00  0.00     0.007 A 
HETATM   32  C19 UNL     1      -2.291   9.895  26.753  1.00  0.00     0.075 A 
HETATM   33  C20 UNL     1      -2.337  10.398  25.455  1.00  0.00     0.252 A 
HETATM   34  O3  UNL     1      -3.174  11.290  25.140  1.00  0.00    -0.268 OA
ENDBRANCH  24  28
ENDBRANCH   3  21
TORSDOF 6
ENDMDL
