MODEL 3
REMARK VINA RESULT: -9.512002431      1.477      1.809
REMARK  6 active torsions:
REMARK  status: ('A' for Active; 'I' for Inactive)
REMARK    1  A    between atoms: C1_2  and  C2_3 
REMARK       I    between atoms: C1_2  and  N3_19 
REMARK    2  A    between atoms: C2_3  and  N1_4 
REMARK    3  A    between atoms: C5_7  and  N2_8 
REMARK       I    between atoms: N2_8  and  C6_10 
REMARK    4  A    between atoms: C6_10  and  C7_12 
REMARK    5  A    between atoms: N3_19  and  C12_21 
REMARK    6  A    between atoms: C15_24  and  N4_25 
ROOT
HETATM    1  O1  UNL     1      -5.774  12.934  20.632  1.00  0.00    -0.271 OA
HETATM    2  C1  UNL     1      -6.223  12.543  21.748  1.00  0.00     0.250 C 
HETATM    3  N3  UNL     1      -6.541  11.188  21.897  1.00  0.00    -0.323 N 
ATOM      4  H3  UNL     1      -6.900  10.915  22.812  1.00  0.00     0.169 HD
ENDROOT
BRANCH   2   5
HETATM    5  C2  UNL     1      -6.379  13.561  22.822  1.00  0.00     0.375 C 
BRANCH   5   6
HETATM    6  N1  UNL     1      -5.649  13.267  24.009  1.00  0.00     0.099 N 
HETATM    7  C3  UNL     1      -5.578  14.397  24.929  1.00  0.00     0.275 C 
HETATM    8  C4  UNL     1      -4.556  13.873  25.927  1.00  0.00     0.057 C 
HETATM    9  C5  UNL     1      -3.504  13.272  24.991  1.00  0.00     0.114 C 
HETATM   10  C11 UNL     1      -4.226  13.132  23.678  1.00  0.00     0.298 C 
BRANCH   9  11
HETATM   11  N2  UNL     1      -3.126  11.973  25.552  1.00  0.00    -0.350 N 
HETATM   12  C6  UNL     1      -1.934  11.310  25.191  1.00  0.00     0.259 C 
HETATM   13  O2  UNL     1      -1.161  11.841  24.359  1.00  0.00    -0.267 OA
ATOM     14  H2  UNL     1      -3.747  11.531  26.229  1.00  0.00     0.163 HD
BRANCH  12  15
HETATM   15  C7  UNL     1      -1.547  10.013  25.747  1.00  0.00     0.074 A 
HETATM   16  C8  UNL     1      -0.604   9.132  25.284  1.00  0.00     0.027 A 
HETATM   17  C9  UNL     1      -0.430   8.001  25.974  1.00  0.00     0.033 A 
HETATM   18  C10 UNL     1      -1.204   7.809  27.085  1.00  0.00     0.075 A 
HETATM   19 CL1  UNL     1      -1.201   6.423  28.189  1.00  0.00    -0.076 Cl
HETATM   20  S1  UNL     1      -2.157   9.229  27.129  1.00  0.00    -0.072 SA
ENDBRANCH  12  15
ENDBRANCH   9  11
ENDBRANCH   5   6
ENDBRANCH   2   5
BRANCH   3  21
HETATM   21  C12 UNL     1      -6.431  10.153  20.947  1.00  0.00     0.073 A 
HETATM   22  C13 UNL     1      -5.271   9.657  20.408  1.00  0.00     0.035 A 
HETATM   23  C14 UNL     1      -5.258   8.618  19.463  1.00  0.00     0.032 A 
HETATM   24  C15 UNL     1      -6.411   8.053  19.038  1.00  0.00     0.045 A 
HETATM   25  C21 UNL     1      -7.596   8.521  19.555  1.00  0.00     0.074 A 
HETATM   26  C22 UNL     1      -7.598   9.534  20.475  1.00  0.00     0.145 A 
HETATM   27  F1  UNL     1      -8.799   9.947  20.944  1.00  0.00    -0.204 F 
BRANCH  24  28
HETATM   28  N4  UNL     1      -6.456   6.988  18.074  1.00  0.00    -0.290 N 
HETATM   29  C16 UNL     1      -6.340   5.729  18.509  1.00  0.00     0.100 A 
HETATM   30  C17 UNL     1      -6.374   4.643  17.628  1.00  0.00     0.018 A 
HETATM   31  C18 UNL     1      -6.530   4.857  16.275  1.00  0.00     0.007 A 
HETATM   32  C19 UNL     1      -6.648   6.160  15.842  1.00  0.00     0.075 A 
HETATM   33  C20 UNL     1      -6.608   7.210  16.757  1.00  0.00     0.252 A 
HETATM   34  O3  UNL     1      -6.715   8.407  16.368  1.00  0.00    -0.268 OA
ENDBRANCH  24  28
ENDBRANCH   3  21
TORSDOF 6
ENDMDL
