MODEL 1
REMARK VINA RESULT: -10.572767661      0.000      0.000
REMARK  6 active torsions:
REMARK  status: ('A' for Active; 'I' for Inactive)
REMARK    1  A    between atoms: C1_2  and  C2_3 
REMARK       I    between atoms: C1_2  and  N3_19 
REMARK    2  A    between atoms: C2_3  and  N1_4 
REMARK    3  A    between atoms: C5_7  and  N2_8 
REMARK       I    between atoms: N2_8  and  C6_10 
REMARK    4  A    between atoms: C6_10  and  C7_12 
REMARK    5  A    between atoms: N3_19  and  C12_21 
REMARK    6  A    between atoms: C15_24  and  N4_25 
ROOT
HETATM    1  O1  UNL     1      -5.466  12.283  19.603  1.00  0.00    -0.271 OA
HETATM    2  C1  UNL     1      -5.155  11.973  20.788  1.00  0.00     0.250 C 
HETATM    3  N3  UNL     1      -5.244  10.629  21.167  1.00  0.00    -0.323 N 
ATOM      4  H3  UNL     1      -4.983  10.421  22.131  1.00  0.00     0.169 HD
ENDROOT
BRANCH   2   5
HETATM    5  C2  UNL     1      -4.716  13.069  21.694  1.00  0.00     0.375 C 
BRANCH   5   6
HETATM    6  N1  UNL     1      -4.695  12.709  23.071  1.00  0.00     0.099 N 
HETATM    7  C3  UNL     1      -5.283  13.726  23.935  1.00  0.00     0.275 C 
HETATM    8  C4  UNL     1      -4.885  13.187  25.302  1.00  0.00     0.057 C 
HETATM    9  C5  UNL     1      -3.425  12.799  25.057  1.00  0.00     0.114 C 
HETATM   10  C11 UNL     1      -3.311  12.746  23.558  1.00  0.00     0.298 C 
BRANCH   9  11
HETATM   11  N2  UNL     1      -3.225  11.484  25.672  1.00  0.00    -0.350 N 
HETATM   12  C6  UNL     1      -1.957  10.869  25.746  1.00  0.00     0.259 C 
HETATM   13  O2  UNL     1      -0.957  11.457  25.273  1.00  0.00    -0.267 OA
ATOM     14  H2  UNL     1      -4.032  10.996  26.060  1.00  0.00     0.163 HD
BRANCH  12  15
HETATM   15  C7  UNL     1      -1.747   9.557  26.359  1.00  0.00     0.074 A 
HETATM   16  C8  UNL     1      -2.471   8.952  27.354  1.00  0.00     0.027 A 
HETATM   17  C9  UNL     1      -2.079   7.737  27.748  1.00  0.00     0.033 A 
HETATM   18  C10 UNL     1      -0.986   7.192  27.130  1.00  0.00     0.075 A 
HETATM   19 CL1  UNL     1      -0.237   5.615  27.435  1.00  0.00    -0.076 Cl
HETATM   20  S1  UNL     1      -0.542   8.406  26.010  1.00  0.00    -0.072 SA
ENDBRANCH  12  15
ENDBRANCH   9  11
ENDBRANCH   5   6
ENDBRANCH   2   5
BRANCH   3  21
HETATM   21  C12 UNL     1      -5.646   9.525  20.389  1.00  0.00     0.073 A 
HETATM   22  C13 UNL     1      -6.906   8.985  20.324  1.00  0.00     0.035 A 
HETATM   23  C14 UNL     1      -7.215   7.879  19.516  1.00  0.00     0.032 A 
HETATM   24  C15 UNL     1      -6.266   7.289  18.756  1.00  0.00     0.045 A 
HETATM   25  C21 UNL     1      -4.990   7.799  18.792  1.00  0.00     0.074 A 
HETATM   26  C22 UNL     1      -4.699   8.877  19.583  1.00  0.00     0.145 A 
HETATM   27  F1  UNL     1      -3.423   9.330  19.572  1.00  0.00    -0.204 F 
BRANCH  24  28
HETATM   28  N4  UNL     1      -6.527   6.155  17.912  1.00  0.00    -0.290 N 
HETATM   29  C16 UNL     1      -6.402   4.929  18.434  1.00  0.00     0.100 A 
HETATM   30  C17 UNL     1      -6.640   3.780  17.672  1.00  0.00     0.018 A 
HETATM   31  C18 UNL     1      -7.014   3.895  16.350  1.00  0.00     0.007 A 
HETATM   32  C19 UNL     1      -7.138   5.164  15.826  1.00  0.00     0.075 A 
HETATM   33  C20 UNL     1      -6.891   6.279  16.623  1.00  0.00     0.252 A 
HETATM   34  O3  UNL     1      -7.002   7.445  16.151  1.00  0.00    -0.268 OA
ENDBRANCH  24  28
ENDBRANCH   3  21
TORSDOF 6
ENDMDL
