MODEL 2
REMARK VINA RESULT: -10.260701558      1.015      1.293
REMARK  6 active torsions:
REMARK  status: ('A' for Active; 'I' for Inactive)
REMARK    1  A    between atoms: C1_2  and  C2_3 
REMARK       I    between atoms: C1_2  and  N3_19 
REMARK    2  A    between atoms: C2_3  and  N1_4 
REMARK    3  A    between atoms: C5_7  and  N2_8 
REMARK       I    between atoms: N2_8  and  C6_10 
REMARK    4  A    between atoms: C6_10  and  C7_12 
REMARK    5  A    between atoms: N3_19  and  C12_21 
REMARK    6  A    between atoms: C15_24  and  N4_25 
ROOT
HETATM    1  O1  UNL     1      -4.684  12.433  20.053  1.00  0.00    -0.271 OA
HETATM    2  C1  UNL     1      -5.329  12.284  21.131  1.00  0.00     0.250 C 
HETATM    3  N3  UNL     1      -5.964  11.058  21.359  1.00  0.00    -0.323 N 
ATOM      4  H3  UNL     1      -6.473  10.979  22.240  1.00  0.00     0.169 HD
ENDROOT
BRANCH   2   5
HETATM    5  C2  UNL     1      -5.364  13.432  22.077  1.00  0.00     0.375 C 
BRANCH   5   6
HETATM    6  N1  UNL     1      -5.066  13.081  23.424  1.00  0.00     0.099 N 
HETATM    7  C3  UNL     1      -5.321  14.165  24.366  1.00  0.00     0.275 C 
HETATM    8  C4  UNL     1      -4.681  13.592  25.622  1.00  0.00     0.057 C 
HETATM    9  C5  UNL     1      -3.369  13.035  25.063  1.00  0.00     0.114 C 
HETATM   10  C11 UNL     1      -3.611  12.960  23.580  1.00  0.00     0.298 C 
BRANCH   9  11
HETATM   11  N2  UNL     1      -3.181  11.711  25.659  1.00  0.00    -0.350 N 
HETATM   12  C6  UNL     1      -1.938  11.043  25.640  1.00  0.00     0.259 C 
HETATM   13  O2  UNL     1      -0.951  11.592  25.097  1.00  0.00    -0.267 OA
ATOM     14  H2  UNL     1      -3.977  11.254  26.103  1.00  0.00     0.163 HD
BRANCH  12  15
HETATM   15  C7  UNL     1      -1.739   9.720  26.234  1.00  0.00     0.074 A 
HETATM   16  C8  UNL     1      -2.451   9.118  27.239  1.00  0.00     0.027 A 
HETATM   17  C9  UNL     1      -2.073   7.892  27.610  1.00  0.00     0.033 A 
HETATM   18  C10 UNL     1      -1.007   7.332  26.960  1.00  0.00     0.075 A 
HETATM   19 CL1  UNL     1      -0.281   5.738  27.229  1.00  0.00    -0.076 Cl
HETATM   20  S1  UNL     1      -0.566   8.550  25.843  1.00  0.00    -0.072 SA
ENDBRANCH  12  15
ENDBRANCH   9  11
ENDBRANCH   5   6
ENDBRANCH   2   5
BRANCH   3  21
HETATM   21  C12 UNL     1      -5.991   9.918  20.531  1.00  0.00     0.073 A 
HETATM   22  C13 UNL     1      -4.910   9.182  20.115  1.00  0.00     0.035 A 
HETATM   23  C14 UNL     1      -5.035   8.055  19.287  1.00  0.00     0.032 A 
HETATM   24  C15 UNL     1      -6.248   7.641  18.857  1.00  0.00     0.045 A 
HETATM   25  C21 UNL     1      -7.357   8.351  19.251  1.00  0.00     0.074 A 
HETATM   26  C22 UNL     1      -7.225   9.448  20.058  1.00  0.00     0.145 A 
HETATM   27  F1  UNL     1      -8.358  10.101  20.410  1.00  0.00    -0.204 F 
BRANCH  24  28
HETATM   28  N4  UNL     1      -6.432   6.495  18.008  1.00  0.00    -0.290 N 
HETATM   29  C16 UNL     1      -6.427   5.280  18.568  1.00  0.00     0.100 A 
HETATM   30  C17 UNL     1      -6.600   4.121  17.804  1.00  0.00     0.018 A 
HETATM   31  C18 UNL     1      -6.782   4.214  16.440  1.00  0.00     0.007 A 
HETATM   32  C19 UNL     1      -6.784   5.473  15.879  1.00  0.00     0.075 A 
HETATM   33  C20 UNL     1      -6.608   6.599  16.679  1.00  0.00     0.252 A 
HETATM   34  O3  UNL     1      -6.609   7.756  16.172  1.00  0.00    -0.268 OA
ENDBRANCH  24  28
ENDBRANCH   3  21
TORSDOF 6
ENDMDL
