MODEL 16
REMARK VINA RESULT: -8.602346818      1.292      1.481
REMARK  6 active torsions:
REMARK  status: ('A' for Active; 'I' for Inactive)
REMARK    1  A    between atoms: C1_2  and  C2_3 
REMARK       I    between atoms: C1_2  and  N5_21 
REMARK    2  A    between atoms: C2_3  and  N1_4 
REMARK    3  A    between atoms: C4_8  and  N3_9 
REMARK       I    between atoms: N3_9  and  C5_11 
REMARK    4  A    between atoms: C5_11  and  C6_13 
REMARK    5  A    between atoms: N5_21  and  C10_23 
REMARK    6  A    between atoms: C13_26  and  N6_27 
ROOT
HETATM    1  O1  UNL     1      -6.244  12.238  17.907  1.00  0.00    -0.271 OA
HETATM    2  C1  UNL     1      -5.962  12.190  19.112  1.00  0.00     0.242 C 
HETATM    3  N5  UNL     1      -5.934  10.946  19.784  1.00  0.00    -0.323 N 
ATOM      4  H5  UNL     1      -5.693  10.978  20.775  1.00  0.00     0.169 HD
ENDROOT
BRANCH   2   5
HETATM    5  C2  UNL     1      -5.656  13.464  19.811  1.00  0.00     0.253 C 
BRANCH   5   6
HETATM    6  N1  UNL     1      -5.399  13.224  21.239  1.00  0.00    -0.264 N 
HETATM    7  C3  UNL     1      -5.896  13.939  22.264  1.00  0.00     0.218 A 
HETATM    8  N2  UNL     1      -5.419  13.397  23.401  1.00  0.00    -0.185 N 
HETATM    9  C4  UNL     1      -4.627  12.348  23.107  1.00  0.00     0.700 A 
ATOM     10  H2  UNL     1      -5.626  13.730  24.342  1.00  0.00     0.185 HD
HETATM   11  N4  UNL     1      -4.641  12.276  21.766  1.00  0.00    -0.128 N 
ATOM     12  H4  UNL     1      -4.133  11.578  21.223  1.00  0.00     0.206 HD
BRANCH   9  13
HETATM   13  N3  UNL     1      -3.937  11.512  24.027  1.00  0.00    -0.153 N 
HETATM   14  C5  UNL     1      -2.618  11.058  23.831  1.00  0.00     0.276 C 
HETATM   15  O2  UNL     1      -2.022  11.414  22.784  1.00  0.00    -0.266 OA
ATOM     16  H3  UNL     1      -4.424  11.224  24.876  1.00  0.00     0.187 HD
BRANCH  14  17
HETATM   17  C6  UNL     1      -1.909  10.197  24.778  1.00  0.00     0.075 A 
HETATM   18  C7  UNL     1      -0.671   9.634  24.669  1.00  0.00     0.027 A 
HETATM   19  C8  UNL     1      -0.242   8.877  25.684  1.00  0.00     0.033 A 
HETATM   20  C9  UNL     1      -1.084   8.727  26.755  1.00  0.00     0.075 A 
HETATM   21 CL1  UNL     1      -0.802   7.794  28.236  1.00  0.00    -0.076 Cl
HETATM   22  S1  UNL     1      -2.446   9.654  26.299  1.00  0.00    -0.072 SA
ENDBRANCH  14  17
ENDBRANCH   9  13
ENDBRANCH   5   6
ENDBRANCH   2   5
BRANCH   3  23
HETATM   23  C10 UNL     1      -6.196   9.677  19.258  1.00  0.00     0.073 A 
HETATM   24  C11 UNL     1      -7.427   9.230  18.914  1.00  0.00     0.035 A 
HETATM   25  C12 UNL     1      -7.654   7.950  18.387  1.00  0.00     0.032 A 
HETATM   26  C13 UNL     1      -6.581   7.127  18.221  1.00  0.00     0.045 A 
HETATM   27  C19 UNL     1      -5.313   7.534  18.556  1.00  0.00     0.074 A 
HETATM   28  C20 UNL     1      -5.127   8.803  19.072  1.00  0.00     0.145 A 
HETATM   29  F1  UNL     1      -3.885   9.203  19.401  1.00  0.00    -0.204 F 
BRANCH  26  30
HETATM   30  N6  UNL     1      -6.796   5.818  17.686  1.00  0.00    -0.290 N 
HETATM   31  C14 UNL     1      -6.537   4.767  18.473  1.00  0.00     0.100 A 
HETATM   32  C15 UNL     1      -6.744   3.506  17.958  1.00  0.00     0.018 A 
HETATM   33  C16 UNL     1      -7.205   3.359  16.668  1.00  0.00     0.007 A 
HETATM   34  C17 UNL     1      -7.460   4.460  15.889  1.00  0.00     0.075 A 
HETATM   35  C18 UNL     1      -7.246   5.714  16.422  1.00  0.00     0.252 A 
HETATM   36  O3  UNL     1      -7.476   6.731  15.718  1.00  0.00    -0.268 OA
ENDBRANCH  26  30
ENDBRANCH   3  23
TORSDOF 6
ENDMDL
