MODEL 1
REMARK VINA RESULT: -9.689009068      0.000      0.000
REMARK  6 active torsions:
REMARK  status: ('A' for Active; 'I' for Inactive)
REMARK    1  A    between atoms: C1_2  and  C2_3 
REMARK       I    between atoms: C1_2  and  N5_21 
REMARK    2  A    between atoms: C2_3  and  N1_4 
REMARK    3  A    between atoms: C4_8  and  N3_9 
REMARK       I    between atoms: N3_9  and  C5_11 
REMARK    4  A    between atoms: C5_11  and  C6_13 
REMARK    5  A    between atoms: N5_21  and  C10_23 
REMARK    6  A    between atoms: C13_26  and  N6_27 
ROOT
HETATM    1  O1  UNL     1      -7.117  12.473  20.229  1.00  0.00    -0.271 OA
HETATM    2  C1  UNL     1      -6.140  12.309  20.971  1.00  0.00     0.242 C 
HETATM    3  N5  UNL     1      -5.484  11.056  21.014  1.00  0.00    -0.323 N 
ATOM      4  H5  UNL     1      -4.686  10.991  21.646  1.00  0.00     0.169 HD
ENDROOT
BRANCH   2   5
HETATM    5  C2  UNL     1      -5.688  13.457  21.798  1.00  0.00     0.253 C 
BRANCH   5   6
HETATM    6  N1  UNL     1      -5.387  13.022  23.170  1.00  0.00    -0.264 N 
HETATM    7  C3  UNL     1      -5.805  13.620  24.300  1.00  0.00     0.218 A 
HETATM    8  N2  UNL     1      -5.312  12.913  25.335  1.00  0.00    -0.185 N 
HETATM    9  C4  UNL     1      -4.588  11.876  24.874  1.00  0.00     0.700 A 
ATOM     10  H2  UNL     1      -5.464  13.130  26.320  1.00  0.00     0.185 HD
HETATM   11  N4  UNL     1      -4.659  11.979  23.536  1.00  0.00    -0.128 N 
ATOM     12  H4  UNL     1      -4.209  11.335  22.886  1.00  0.00     0.206 HD
BRANCH   9  13
HETATM   13  N3  UNL     1      -3.905  10.896  25.646  1.00  0.00    -0.153 N 
HETATM   14  C5  UNL     1      -2.592  10.465  25.377  1.00  0.00     0.276 C 
HETATM   15  O2  UNL     1      -1.994  10.977  24.397  1.00  0.00    -0.266 OA
ATOM     16  H3  UNL     1      -4.394  10.482  26.440  1.00  0.00     0.187 HD
BRANCH  14  17
HETATM   17  C6  UNL     1      -1.892   9.457  26.171  1.00  0.00     0.075 A 
HETATM   18  C7  UNL     1      -0.631   8.959  26.013  1.00  0.00     0.027 A 
HETATM   19  C8  UNL     1      -0.216   8.032  26.882  1.00  0.00     0.033 A 
HETATM   20  C9  UNL     1      -1.094   7.655  27.865  1.00  0.00     0.075 A 
HETATM   21 CL1  UNL     1      -0.838   6.461  29.151  1.00  0.00    -0.076 Cl
HETATM   22  S1  UNL     1      -2.469   8.615  27.534  1.00  0.00    -0.072 SA
ENDBRANCH  14  17
ENDBRANCH   9  13
ENDBRANCH   5   6
ENDBRANCH   2   5
BRANCH   3  23
HETATM   23  C10 UNL     1      -5.796   9.897  20.297  1.00  0.00     0.073 A 
HETATM   24  C11 UNL     1      -6.967   9.225  20.398  1.00  0.00     0.035 A 
HETATM   25  C12 UNL     1      -7.247   8.064  19.663  1.00  0.00     0.032 A 
HETATM   26  C13 UNL     1      -6.288   7.600  18.812  1.00  0.00     0.045 A 
HETATM   27  C19 UNL     1      -5.085   8.245  18.675  1.00  0.00     0.074 A 
HETATM   28  C20 UNL     1      -4.844   9.387  19.416  1.00  0.00     0.145 A 
HETATM   29  F1  UNL     1      -3.665  10.021  19.283  1.00  0.00    -0.204 F 
BRANCH  26  30
HETATM   30  N6  UNL     1      -6.558   6.416  18.055  1.00  0.00    -0.290 N 
HETATM   31  C14 UNL     1      -6.284   5.234  18.618  1.00  0.00     0.100 A 
HETATM   32  C15 UNL     1      -6.544   4.093  17.890  1.00  0.00     0.018 A 
HETATM   33  C16 UNL     1      -7.070   4.196  16.620  1.00  0.00     0.007 A 
HETATM   34  C17 UNL     1      -7.338   5.426  16.074  1.00  0.00     0.075 A 
HETATM   35  C18 UNL     1      -7.071   6.556  16.819  1.00  0.00     0.252 A 
HETATM   36  O3  UNL     1      -7.312   7.689  16.329  1.00  0.00    -0.268 OA
ENDBRANCH  26  30
ENDBRANCH   3  23
TORSDOF 6
ENDMDL
