MODEL 7
REMARK VINA RESULT: -9.021615288      4.596      9.020
REMARK  6 active torsions:
REMARK  status: ('A' for Active; 'I' for Inactive)
REMARK    1  A    between atoms: C1_2  and  C2_3 
REMARK       I    between atoms: C1_2  and  N5_21 
REMARK    2  A    between atoms: C2_3  and  N1_4 
REMARK    3  A    between atoms: C4_8  and  N3_9 
REMARK       I    between atoms: N3_9  and  C5_11 
REMARK    4  A    between atoms: C5_11  and  C6_13 
REMARK    5  A    between atoms: N5_21  and  C10_23 
REMARK    6  A    between atoms: C13_26  and  N6_27 
ROOT
HETATM    1  O1  UNL     1      -4.012  13.432  19.620  1.00  0.00    -0.271 OA
HETATM    2  C1  UNL     1      -3.248  12.883  18.815  1.00  0.00     0.242 C 
HETATM    3  N5  UNL     1      -2.301  11.937  19.270  1.00  0.00    -0.323 N 
ATOM      4  H5  UNL     1      -1.704  11.522  18.555  1.00  0.00     0.169 HD
ENDROOT
BRANCH   2   5
HETATM    5  C2  UNL     1      -3.364  13.245  17.380  1.00  0.00     0.253 C 
BRANCH   5   6
HETATM    6  N1  UNL     1      -4.218  12.282  16.668  1.00  0.00    -0.264 N 
HETATM    7  C3  UNL     1      -5.002  12.551  15.609  1.00  0.00     0.218 A 
HETATM    8  N2  UNL     1      -5.615  11.404  15.260  1.00  0.00    -0.185 N 
HETATM    9  C4  UNL     1      -5.227  10.413  16.086  1.00  0.00     0.700 A 
ATOM     10  H2  UNL     1      -6.273  11.301  14.488  1.00  0.00     0.185 HD
HETATM   11  N4  UNL     1      -4.367  10.996  16.937  1.00  0.00    -0.128 N 
ATOM     12  H4  UNL     1      -3.891  10.508  17.695  1.00  0.00     0.206 HD
BRANCH   9  13
HETATM   13  N3  UNL     1      -5.646   9.054  16.049  1.00  0.00    -0.153 N 
HETATM   14  C5  UNL     1      -5.885   8.280  17.200  1.00  0.00     0.276 C 
HETATM   15  O2  UNL     1      -5.718   8.823  18.321  1.00  0.00    -0.266 OA
ATOM     16  H3  UNL     1      -5.779   8.616  15.138  1.00  0.00     0.187 HD
BRANCH  14  17
HETATM   17  C6  UNL     1      -6.315   6.882  17.161  1.00  0.00     0.075 A 
HETATM   18  C7  UNL     1      -6.178   5.912  18.111  1.00  0.00     0.027 A 
HETATM   19  C8  UNL     1      -6.660   4.697  17.832  1.00  0.00     0.033 A 
HETATM   20  C9  UNL     1      -7.255   4.523  16.610  1.00  0.00     0.075 A 
HETATM   21 CL1  UNL     1      -7.982   3.044  15.955  1.00  0.00    -0.076 Cl
HETATM   22  S1  UNL     1      -7.116   6.071  15.897  1.00  0.00    -0.072 SA
ENDBRANCH  14  17
ENDBRANCH   9  13
ENDBRANCH   5   6
ENDBRANCH   2   5
BRANCH   3  23
HETATM   23  C10 UNL     1      -2.081  11.501  20.581  1.00  0.00     0.073 A 
HETATM   24  C11 UNL     1      -1.102  11.968  21.390  1.00  0.00     0.035 A 
HETATM   25  C12 UNL     1      -0.910  11.508  22.701  1.00  0.00     0.032 A 
HETATM   26  C13 UNL     1      -1.753  10.546  23.170  1.00  0.00     0.045 A 
HETATM   27  C19 UNL     1      -2.761  10.040  22.389  1.00  0.00     0.074 A 
HETATM   28  C20 UNL     1      -2.920  10.517  21.101  1.00  0.00     0.145 A 
HETATM   29  F1  UNL     1      -3.908  10.022  20.333  1.00  0.00    -0.204 F 
BRANCH  26  30
HETATM   30  N6  UNL     1      -1.571  10.065  24.506  1.00  0.00    -0.290 N 
HETATM   31  C14 UNL     1      -0.479   9.337  24.768  1.00  0.00     0.100 A 
HETATM   32  C15 UNL     1      -0.303   8.875  26.054  1.00  0.00     0.018 A 
HETATM   33  C16 UNL     1      -1.239   9.167  27.022  1.00  0.00     0.007 A 
HETATM   34  C17 UNL     1      -2.347   9.917  26.717  1.00  0.00     0.075 A 
HETATM   35  C18 UNL     1      -2.506  10.370  25.424  1.00  0.00     0.252 A 
HETATM   36  O3  UNL     1      -3.517  11.059  25.132  1.00  0.00    -0.268 OA
ENDBRANCH  26  30
ENDBRANCH   3  23
TORSDOF 6
ENDMDL
