MODEL 3
REMARK VINA RESULT: -9.211491168      4.502      8.914
REMARK  6 active torsions:
REMARK  status: ('A' for Active; 'I' for Inactive)
REMARK    1  A    between atoms: C1_2  and  C2_3 
REMARK       I    between atoms: C1_2  and  N5_21 
REMARK    2  A    between atoms: C2_3  and  N1_4 
REMARK    3  A    between atoms: C4_8  and  N3_9 
REMARK       I    between atoms: N3_9  and  C5_11 
REMARK    4  A    between atoms: C5_11  and  C6_13 
REMARK    5  A    between atoms: N5_21  and  C10_23 
REMARK    6  A    between atoms: C13_26  and  N6_27 
ROOT
HETATM    1  O1  UNL     1      -3.408  13.856  20.422  1.00  0.00    -0.271 OA
HETATM    2  C1  UNL     1      -2.794  13.187  19.581  1.00  0.00     0.242 C 
HETATM    3  N5  UNL     1      -2.060  12.046  19.982  1.00  0.00    -0.323 N 
ATOM      4  H5  UNL     1      -1.579  11.540  19.238  1.00  0.00     0.169 HD
ENDROOT
BRANCH   2   5
HETATM    5  C2  UNL     1      -2.858  13.617  18.161  1.00  0.00     0.253 C 
BRANCH   5   6
HETATM    6  N1  UNL     1      -3.764  12.748  17.395  1.00  0.00    -0.264 N 
HETATM    7  C3  UNL     1      -4.517  13.119  16.345  1.00  0.00     0.218 A 
HETATM    8  N2  UNL     1      -5.199  12.033  15.935  1.00  0.00    -0.185 N 
HETATM    9  C4  UNL     1      -4.887  10.979  16.713  1.00  0.00     0.700 A 
ATOM     10  H2  UNL     1      -5.854  12.011  15.153  1.00  0.00     0.185 HD
HETATM   11  N4  UNL     1      -4.001  11.463  17.600  1.00  0.00    -0.128 N 
ATOM     12  H4  UNL     1      -3.565  10.908  18.336  1.00  0.00     0.206 HD
BRANCH   9  13
HETATM   13  N3  UNL     1      -5.392   9.655  16.605  1.00  0.00    -0.153 N 
HETATM   14  C5  UNL     1      -5.462   8.756  17.687  1.00  0.00     0.276 C 
HETATM   15  O2  UNL     1      -5.053   9.150  18.808  1.00  0.00    -0.266 OA
ATOM     16  H3  UNL     1      -5.722   9.338  15.694  1.00  0.00     0.187 HD
BRANCH  14  17
HETATM   17  C6  UNL     1      -5.981   7.393  17.574  1.00  0.00     0.075 A 
HETATM   18  C7  UNL     1      -6.070   6.424  18.531  1.00  0.00     0.027 A 
HETATM   19  C8  UNL     1      -6.590   5.245  18.174  1.00  0.00     0.033 A 
HETATM   20  C9  UNL     1      -6.992   5.105  16.872  1.00  0.00     0.075 A 
HETATM   21 CL1  UNL     1      -7.712   3.677  16.104  1.00  0.00    -0.076 Cl
HETATM   22  S1  UNL     1      -6.627   6.632  16.195  1.00  0.00    -0.072 SA
ENDBRANCH  14  17
ENDBRANCH   9  13
ENDBRANCH   5   6
ENDBRANCH   2   5
BRANCH   3  23
HETATM   23  C10 UNL     1      -1.913  11.527  21.272  1.00  0.00     0.073 A 
HETATM   24  C11 UNL     1      -0.829  11.724  22.058  1.00  0.00     0.035 A 
HETATM   25  C12 UNL     1      -0.714  11.188  23.349  1.00  0.00     0.032 A 
HETATM   26  C13 UNL     1      -1.747  10.434  23.822  1.00  0.00     0.045 A 
HETATM   27  C19 UNL     1      -2.867  10.205  23.063  1.00  0.00     0.074 A 
HETATM   28  C20 UNL     1      -2.945  10.750  21.794  1.00  0.00     0.145 A 
HETATM   29  F1  UNL     1      -4.042  10.526  21.049  1.00  0.00    -0.204 F 
BRANCH  26  30
HETATM   30  N6  UNL     1      -1.645   9.879  25.137  1.00  0.00    -0.290 N 
HETATM   31  C14 UNL     1      -2.643  10.114  25.997  1.00  0.00     0.100 A 
HETATM   32  C15 UNL     1      -2.546   9.580  27.263  1.00  0.00     0.018 A 
HETATM   33  C16 UNL     1      -1.442   8.830  27.609  1.00  0.00     0.007 A 
HETATM   34  C17 UNL     1      -0.437   8.609  26.700  1.00  0.00     0.075 A 
HETATM   35  C18 UNL     1      -0.553   9.153  25.438  1.00  0.00     0.252 A 
HETATM   36  O3  UNL     1       0.362   8.959  24.596  1.00  0.00    -0.268 OA
ENDBRANCH  26  30
ENDBRANCH   3  23
TORSDOF 6
ENDMDL
