MODEL 6
REMARK VINA RESULT: -9.057669482      4.609      9.147
REMARK  6 active torsions:
REMARK  status: ('A' for Active; 'I' for Inactive)
REMARK    1  A    between atoms: C1_2  and  C2_3 
REMARK       I    between atoms: C1_2  and  N5_21 
REMARK    2  A    between atoms: C2_3  and  N1_4 
REMARK    3  A    between atoms: C4_8  and  N3_9 
REMARK       I    between atoms: N3_9  and  C5_11 
REMARK    4  A    between atoms: C5_11  and  C6_13 
REMARK    5  A    between atoms: N5_21  and  C10_23 
REMARK    6  A    between atoms: C13_26  and  N6_27 
ROOT
HETATM    1  O1  UNL     1      -5.227  12.763  18.681  1.00  0.00    -0.271 OA
HETATM    2  C1  UNL     1      -4.287  12.473  17.930  1.00  0.00     0.242 C 
HETATM    3  N5  UNL     1      -3.106  11.903  18.459  1.00  0.00    -0.323 N 
ATOM      4  H5  UNL     1      -2.372  11.687  17.785  1.00  0.00     0.169 HD
ENDROOT
BRANCH   2   5
HETATM    5  C2  UNL     1      -4.443  12.739  16.477  1.00  0.00     0.253 C 
BRANCH   5   6
HETATM    6  N1  UNL     1      -5.042  11.579  15.798  1.00  0.00    -0.264 N 
HETATM    7  C3  UNL     1      -5.578  11.574  14.564  1.00  0.00     0.218 A 
HETATM    8  N2  UNL     1      -6.014  10.324  14.321  1.00  0.00    -0.185 N 
HETATM    9  C4  UNL     1      -5.762   9.538  15.386  1.00  0.00     0.700 A 
ATOM     10  H2  UNL     1      -6.468  10.017  13.461  1.00  0.00     0.185 HD
HETATM   11  N4  UNL     1      -5.163  10.350  16.273  1.00  0.00    -0.128 N 
ATOM     12  H4  UNL     1      -4.842  10.056  17.195  1.00  0.00     0.206 HD
BRANCH   9  13
HETATM   13  N3  UNL     1      -6.067   8.156  15.523  1.00  0.00    -0.153 N 
HETATM   14  C5  UNL     1      -6.240   7.515  16.764  1.00  0.00     0.276 C 
HETATM   15  O2  UNL     1      -6.115   8.205  17.807  1.00  0.00    -0.266 OA
ATOM     16  H3  UNL     1      -6.166   7.599  14.675  1.00  0.00     0.187 HD
BRANCH  14  17
HETATM   17  C6  UNL     1      -6.553   6.093  16.904  1.00  0.00     0.075 A 
HETATM   18  C7  UNL     1      -6.236   5.237  17.919  1.00  0.00     0.027 A 
HETATM   19  C8  UNL     1      -6.643   3.968  17.811  1.00  0.00     0.033 A 
HETATM   20  C9  UNL     1      -7.347   3.629  16.685  1.00  0.00     0.075 A 
HETATM   21 CL1  UNL     1      -8.013   2.042  16.258  1.00  0.00    -0.076 Cl
HETATM   22  S1  UNL     1      -7.414   5.102  15.820  1.00  0.00    -0.072 SA
ENDBRANCH  14  17
ENDBRANCH   9  13
ENDBRANCH   5   6
ENDBRANCH   2   5
BRANCH   3  23
HETATM   23  C10 UNL     1      -2.821  11.598  19.795  1.00  0.00     0.073 A 
HETATM   24  C11 UNL     1      -2.115  12.396  20.629  1.00  0.00     0.035 A 
HETATM   25  C12 UNL     1      -1.847  12.060  21.964  1.00  0.00     0.032 A 
HETATM   26  C13 UNL     1      -2.324  10.872  22.431  1.00  0.00     0.045 A 
HETATM   27  C19 UNL     1      -3.045  10.027  21.624  1.00  0.00     0.074 A 
HETATM   28  C20 UNL     1      -3.289  10.393  20.313  1.00  0.00     0.145 A 
HETATM   29  F1  UNL     1      -3.996   9.565  19.521  1.00  0.00    -0.204 F 
BRANCH  26  30
HETATM   30  N6  UNL     1      -2.060  10.513  23.790  1.00  0.00    -0.290 N 
HETATM   31  C14 UNL     1      -3.014  10.746  24.699  1.00  0.00     0.100 A 
HETATM   32  C15 UNL     1      -2.760  10.401  26.008  1.00  0.00     0.018 A 
HETATM   33  C16 UNL     1      -1.551   9.834  26.346  1.00  0.00     0.007 A 
HETATM   34  C17 UNL     1      -0.594   9.609  25.386  1.00  0.00     0.075 A 
HETATM   35  C18 UNL     1      -0.868   9.962  24.082  1.00  0.00     0.252 A 
HETATM   36  O3  UNL     1       0.001   9.761  23.194  1.00  0.00    -0.268 OA
ENDBRANCH  26  30
ENDBRANCH   3  23
TORSDOF 6
ENDMDL
