MODEL 2
REMARK VINA RESULT: -9.663007586      1.126      1.352
REMARK  6 active torsions:
REMARK  status: ('A' for Active; 'I' for Inactive)
REMARK    1  A    between atoms: C1_2  and  C2_3 
REMARK       I    between atoms: C1_2  and  N5_21 
REMARK    2  A    between atoms: C2_3  and  N1_4 
REMARK    3  A    between atoms: C4_8  and  N3_9 
REMARK       I    between atoms: N3_9  and  C5_11 
REMARK    4  A    between atoms: C5_11  and  C6_13 
REMARK    5  A    between atoms: N5_21  and  C10_23 
REMARK    6  A    between atoms: C13_26  and  N6_27 
ROOT
HETATM    1  O1  UNL     1      -5.548  12.834  19.880  1.00  0.00    -0.271 OA
HETATM    2  C1  UNL     1      -6.042  12.613  20.994  1.00  0.00     0.242 C 
HETATM    3  N5  UNL     1      -6.488  11.312  21.325  1.00  0.00    -0.323 N 
ATOM      4  H5  UNL     1      -6.883  11.200  22.259  1.00  0.00     0.169 HD
ENDROOT
BRANCH   2   5
HETATM    5  C2  UNL     1      -6.145  13.743  21.951  1.00  0.00     0.253 C 
BRANCH   5   6
HETATM    6  N1  UNL     1      -5.738  13.320  23.300  1.00  0.00    -0.264 N 
HETATM    7  C3  UNL     1      -6.077  13.921  24.454  1.00  0.00     0.218 A 
HETATM    8  N2  UNL     1      -5.501  13.227  25.454  1.00  0.00    -0.185 N 
HETATM    9  C4  UNL     1      -4.802  12.193  24.946  1.00  0.00     0.700 A 
ATOM     10  H2  UNL     1      -5.581  13.449  26.445  1.00  0.00     0.185 HD
HETATM   11  N4  UNL     1      -4.974  12.287  23.617  1.00  0.00    -0.128 N 
ATOM     12  H4  UNL     1      -4.567  11.644  22.938  1.00  0.00     0.206 HD
BRANCH   9  13
HETATM   13  N3  UNL     1      -4.054  11.226  25.671  1.00  0.00    -0.153 N 
HETATM   14  C5  UNL     1      -2.839  10.678  25.217  1.00  0.00     0.276 C 
HETATM   15  O2  UNL     1      -2.395  11.067  24.108  1.00  0.00    -0.266 OA
ATOM     16  H3  UNL     1      -4.418  10.911  26.570  1.00  0.00     0.187 HD
BRANCH  14  17
HETATM   17  C6  UNL     1      -2.071   9.682  25.963  1.00  0.00     0.075 A 
HETATM   18  C7  UNL     1      -0.825   9.187  25.709  1.00  0.00     0.027 A 
HETATM   19  C8  UNL     1      -0.336   8.272  26.552  1.00  0.00     0.033 A 
HETATM   20  C9  UNL     1      -1.129   7.903  27.607  1.00  0.00     0.075 A 
HETATM   21 CL1  UNL     1      -0.763   6.725  28.881  1.00  0.00    -0.076 Cl
HETATM   22  S1  UNL     1      -2.532   8.854  27.378  1.00  0.00    -0.072 SA
ENDBRANCH  14  17
ENDBRANCH   9  13
ENDBRANCH   5   6
ENDBRANCH   2   5
BRANCH   3  23
HETATM   23  C10 UNL     1      -6.453  10.162  20.531  1.00  0.00     0.073 A 
HETATM   24  C11 UNL     1      -5.348   9.408  20.322  1.00  0.00     0.035 A 
HETATM   25  C12 UNL     1      -5.348   8.259  19.518  1.00  0.00     0.032 A 
HETATM   26  C13 UNL     1      -6.520   7.895  18.925  1.00  0.00     0.045 A 
HETATM   27  C19 UNL     1      -7.667   8.626  19.105  1.00  0.00     0.074 A 
HETATM   28  C20 UNL     1      -7.629   9.754  19.904  1.00  0.00     0.145 A 
HETATM   29  F1  UNL     1      -8.752  10.473  20.081  1.00  0.00    -0.204 F 
BRANCH  26  30
HETATM   30  N6  UNL     1      -6.537   6.725  18.101  1.00  0.00    -0.290 N 
HETATM   31  C14 UNL     1      -6.612   5.533  18.704  1.00  0.00     0.100 A 
HETATM   32  C15 UNL     1      -6.630   4.406  17.912  1.00  0.00     0.018 A 
HETATM   33  C16 UNL     1      -6.569   4.530  16.541  1.00  0.00     0.007 A 
HETATM   34  C17 UNL     1      -6.493   5.770  15.956  1.00  0.00     0.075 A 
HETATM   35  C18 UNL     1      -6.477   6.886  16.767  1.00  0.00     0.252 A 
HETATM   36  O3  UNL     1      -6.406   8.028  16.243  1.00  0.00    -0.268 OA
ENDBRANCH  26  30
ENDBRANCH   3  23
TORSDOF 6
ENDMDL
