MODEL 2
REMARK VINA RESULT: -6.622383531      4.360      6.592
REMARK  9 active torsions:
REMARK  status: ('A' for Active; 'I' for Inactive)
REMARK       I    between atoms: C2_2  and  N1_4 
REMARK    1  A    between atoms: N1_4  and  C3_6 
REMARK    2  A    between atoms: C4_7  and  O2_8 
REMARK    3  A    between atoms: C6_11  and  C7_12 
REMARK    4  A    between atoms: C8_16  and  C9_17 
REMARK    5  A    between atoms: C9_17  and  O6_18 
REMARK    6  A    between atoms: C9_17  and  C10_20 
REMARK    7  A    between atoms: C10_20  and  O7_21 
REMARK    8  A    between atoms: C10_20  and  C11_23 
REMARK    9  A    between atoms: C11_23  and  O8_24 
ROOT
HETATM    1  C3  UNL     1      -0.197  79.705  23.389  1.00  0.00     0.149 C 
HETATM    2  C4  UNL     1       0.646  79.859  22.150  1.00  0.00     0.169 C 
HETATM    3  C5  UNL     1       1.912  79.131  22.376  1.00  0.00     0.050 C 
HETATM    4  C6  UNL     1       1.954  78.093  23.182  1.00  0.00     0.144 C 
HETATM    5  O5  UNL     1       0.838  77.638  23.847  1.00  0.00    -0.335 OA
HETATM    6  C8  UNL     1      -0.429  78.241  23.740  1.00  0.00     0.186 C 
ENDROOT
BRANCH   6   7
HETATM    7  C9  UNL     1      -1.194  78.248  25.020  1.00  0.00     0.180 C 
BRANCH   7   8
HETATM    8  O6  UNL     1      -0.335  78.231  26.105  1.00  0.00    -0.390 OA
ATOM      9  H6  UNL     1      -0.762  78.580  26.878  1.00  0.00     0.210 HD
ENDBRANCH   7   8
BRANCH   7  10
HETATM   10  C10 UNL     1      -2.241  77.200  25.139  1.00  0.00     0.173 C 
BRANCH  10  11
HETATM   11  O7  UNL     1      -2.258  76.496  23.911  1.00  0.00    -0.391 OA
ATOM     12  H7  UNL     1      -2.553  75.614  24.103  1.00  0.00     0.210 HD
ENDBRANCH  10  11
BRANCH  10  13
HETATM   13  C11 UNL     1      -3.640  77.784  25.279  1.00  0.00     0.198 C 
BRANCH  13  14
HETATM   14  O8  UNL     1      -4.113  77.605  26.576  1.00  0.00    -0.398 OA
ATOM     15  H8  UNL     1      -3.487  77.109  27.091  1.00  0.00     0.209 HD
ENDBRANCH  13  14
ENDBRANCH  10  13
ENDBRANCH   7  10
ENDBRANCH   6   7
BRANCH   1  16
HETATM   16  N1  UNL     1      -1.500  80.279  23.118  1.00  0.00    -0.351 N 
HETATM   17  C2  UNL     1      -1.893  81.571  23.548  1.00  0.00     0.214 C 
HETATM   18  C1  UNL     1      -3.258  82.119  23.240  1.00  0.00     0.117 C 
HETATM   19  O1  UNL     1      -1.072  82.256  24.197  1.00  0.00    -0.274 OA
ATOM     20  H1  UNL     1      -2.171  79.723  22.589  1.00  0.00     0.163 HD
ENDBRANCH   1  16
BRANCH   2  21
HETATM   21  O2  UNL     1       0.943  81.214  22.017  1.00  0.00    -0.389 OA
ATOM     22  H2  UNL     1       1.240  81.522  22.865  1.00  0.00     0.210 HD
ENDBRANCH   2  21
BRANCH   4  23
HETATM   23  C7  UNL     1       3.249  77.408  23.366  1.00  0.00     0.233 C 
HETATM   24  O3  UNL     1       4.264  77.752  22.742  1.00  0.00    -0.642 OA
HETATM   25  O4  UNL     1       3.367  76.347  24.256  1.00  0.00    -0.642 OA
ENDBRANCH   4  23
TORSDOF 9
ENDMDL
