MODEL 3
REMARK VINA RESULT: -6.567138735      4.732      6.961
REMARK  9 active torsions:
REMARK  status: ('A' for Active; 'I' for Inactive)
REMARK       I    between atoms: C2_2  and  N1_4 
REMARK    1  A    between atoms: N1_4  and  C3_6 
REMARK    2  A    between atoms: C4_7  and  O2_8 
REMARK    3  A    between atoms: C6_11  and  C7_12 
REMARK    4  A    between atoms: C8_16  and  C9_17 
REMARK    5  A    between atoms: C9_17  and  O6_18 
REMARK    6  A    between atoms: C9_17  and  C10_20 
REMARK    7  A    between atoms: C10_20  and  O7_21 
REMARK    8  A    between atoms: C10_20  and  C11_23 
REMARK    9  A    between atoms: C11_23  and  O8_24 
ROOT
HETATM    1  C3  UNL     1      -0.831  80.002  23.201  1.00  0.00     0.149 C 
HETATM    2  C4  UNL     1      -2.296  80.203  23.489  1.00  0.00     0.169 C 
HETATM    3  C5  UNL     1      -2.809  78.956  24.095  1.00  0.00     0.050 C 
HETATM    4  C6  UNL     1      -2.013  78.171  24.789  1.00  0.00     0.144 C 
HETATM    5  O5  UNL     1      -0.682  78.465  24.982  1.00  0.00    -0.335 OA
HETATM    6  C8  UNL     1      -0.055  79.607  24.452  1.00  0.00     0.186 C 
ENDROOT
BRANCH   6   7
HETATM    7  C9  UNL     1       1.344  79.361  23.999  1.00  0.00     0.180 C 
BRANCH   7   8
HETATM    8  O6  UNL     1       2.080  80.533  24.020  1.00  0.00    -0.390 OA
ATOM      9  H6  UNL     1       2.602  80.617  23.232  1.00  0.00     0.210 HD
ENDBRANCH   7   8
BRANCH   7  10
HETATM   10  C10 UNL     1       1.474  78.662  22.693  1.00  0.00     0.173 C 
BRANCH  10  11
HETATM   11  O7  UNL     1       1.336  77.277  22.954  1.00  0.00    -0.391 OA
ATOM     12  H7  UNL     1       1.715  76.819  22.214  1.00  0.00     0.210 HD
ENDBRANCH  10  11
BRANCH  10  13
HETATM   13  C11 UNL     1       2.861  78.814  22.084  1.00  0.00     0.198 C 
BRANCH  13  14
HETATM   14  O8  UNL     1       2.940  79.992  21.347  1.00  0.00    -0.398 OA
ATOM     15  H8  UNL     1       3.464  80.636  21.808  1.00  0.00     0.209 HD
ENDBRANCH  13  14
ENDBRANCH  10  13
ENDBRANCH   7  10
ENDBRANCH   6   7
BRANCH   1  16
HETATM   16  N1  UNL     1      -0.285  81.267  22.754  1.00  0.00    -0.351 N 
HETATM   17  C2  UNL     1      -0.161  81.632  21.391  1.00  0.00     0.214 C 
HETATM   18  C1  UNL     1       0.413  82.959  20.982  1.00  0.00     0.117 C 
HETATM   19  O1  UNL     1      -0.546  80.818  20.522  1.00  0.00    -0.274 OA
ATOM     20  H1  UNL     1       0.029  81.933  23.460  1.00  0.00     0.163 HD
ENDBRANCH   1  16
BRANCH   2  21
HETATM   21  O2  UNL     1      -2.937  80.385  22.265  1.00  0.00    -0.389 OA
ATOM     22  H2  UNL     1      -3.799  80.739  22.448  1.00  0.00     0.210 HD
ENDBRANCH   2  21
BRANCH   4  23
HETATM   23  C7  UNL     1      -2.585  76.940  25.369  1.00  0.00     0.233 C 
HETATM   24  O3  UNL     1      -2.049  76.358  26.324  1.00  0.00    -0.642 OA
HETATM   25  O4  UNL     1      -3.755  76.394  24.855  1.00  0.00    -0.642 OA
ENDBRANCH   4  23
TORSDOF 9
ENDMDL
