MODEL 4
REMARK VINA RESULT: -6.330090690      2.084      5.026
REMARK  9 active torsions:
REMARK  status: ('A' for Active; 'I' for Inactive)
REMARK       I    between atoms: C2_2  and  N1_4 
REMARK    1  A    between atoms: N1_4  and  C3_6 
REMARK    2  A    between atoms: C4_7  and  O2_8 
REMARK    3  A    between atoms: C6_11  and  C7_12 
REMARK    4  A    between atoms: C8_16  and  C9_17 
REMARK    5  A    between atoms: C9_17  and  O6_18 
REMARK    6  A    between atoms: C9_17  and  C10_20 
REMARK    7  A    between atoms: C10_20  and  O7_21 
REMARK    8  A    between atoms: C10_20  and  C11_23 
REMARK    9  A    between atoms: C11_23  and  O8_24 
ROOT
HETATM    1  C3  UNL     1      -5.439  77.950  23.686  1.00  0.00     0.149 C 
HETATM    2  C4  UNL     1      -6.125  79.007  22.861  1.00  0.00     0.169 C 
HETATM    3  C5  UNL     1      -6.604  80.057  23.784  1.00  0.00     0.050 C 
HETATM    4  C6  UNL     1      -5.981  80.286  24.920  1.00  0.00     0.144 C 
HETATM    5  O5  UNL     1      -4.870  79.570  25.301  1.00  0.00    -0.335 OA
HETATM    6  C8  UNL     1      -4.313  78.532  24.532  1.00  0.00     0.186 C 
ENDROOT
BRANCH   6   7
HETATM    7  C9  UNL     1      -3.793  77.398  25.349  1.00  0.00     0.180 C 
BRANCH   7   8
HETATM    8  O6  UNL     1      -3.987  77.637  26.698  1.00  0.00    -0.390 OA
ATOM      9  H6  UNL     1      -3.302  77.230  27.214  1.00  0.00     0.210 HD
ENDBRANCH   7   8
BRANCH   7  10
HETATM   10  C10 UNL     1      -2.389  77.002  25.063  1.00  0.00     0.173 C 
BRANCH  10  11
HETATM   11  O7  UNL     1      -1.986  76.137  26.109  1.00  0.00    -0.391 OA
ATOM     12  H7  UNL     1      -1.044  76.043  26.041  1.00  0.00     0.210 HD
ENDBRANCH  10  11
BRANCH  10  13
HETATM   13  C11 UNL     1      -1.425  78.178  25.128  1.00  0.00     0.198 C 
BRANCH  13  14
HETATM   14  O8  UNL     1      -0.361  77.887  25.977  1.00  0.00    -0.398 OA
ATOM     15  H8  UNL     1      -0.440  78.376  26.787  1.00  0.00     0.209 HD
ENDBRANCH  13  14
ENDBRANCH  10  13
ENDBRANCH   7  10
ENDBRANCH   6   7
BRANCH   1  16
HETATM   16  N1  UNL     1      -4.831  76.998  22.780  1.00  0.00    -0.351 N 
HETATM   17  C2  UNL     1      -5.430  75.768  22.414  1.00  0.00     0.214 C 
HETATM   18  C1  UNL     1      -4.755  74.816  21.468  1.00  0.00     0.117 C 
HETATM   19  O1  UNL     1      -6.549  75.486  22.899  1.00  0.00    -0.274 OA
ATOM     20  H1  UNL     1      -3.919  77.226  22.383  1.00  0.00     0.163 HD
ENDBRANCH   1  16
BRANCH   2  21
HETATM   21  O2  UNL     1      -7.237  78.412  22.268  1.00  0.00    -0.389 OA
ATOM     22  H2  UNL     1      -7.635  79.060  21.699  1.00  0.00     0.210 HD
ENDBRANCH   2  21
BRANCH   4  23
HETATM   23  C7  UNL     1      -6.508  81.349  25.799  1.00  0.00     0.233 C 
HETATM   24  O3  UNL     1      -6.803  81.130  26.983  1.00  0.00    -0.642 OA
HETATM   25  O4  UNL     1      -6.689  82.640  25.316  1.00  0.00    -0.642 OA
ENDBRANCH   4  23
TORSDOF 9
ENDMDL
