MODEL 5
REMARK VINA RESULT: -6.078269974      1.015      1.671
REMARK  4 active torsions:
REMARK  status: ('A' for Active; 'I' for Inactive)
REMARK    1  A    between atoms: S1_2  and  C1_5 
REMARK    2  A    between atoms: C1_5  and  C2_6 
REMARK    3  A    between atoms: C2_6  and  N1_7 
REMARK    4  A    between atoms: N1_7  and  C3_10 
ROOT
HETATM    1  N1  UNL     1      -5.649  76.312  23.939  1.00  0.00    -0.070 N 
ATOM      2  H11 UNL     1      -6.202  76.060  24.759  1.00  0.00     0.277 HD
ATOM      3  H12 UNL     1      -4.816  75.762  24.144  1.00  0.00     0.277 HD
ENDROOT
BRANCH   1   4
HETATM    4  C2  UNL     1      -5.362  77.733  23.898  1.00  0.00     0.250 C 
BRANCH   4   5
HETATM    5  C1  UNL     1      -3.899  78.030  23.926  1.00  0.00     0.192 C 
BRANCH   5   6
HETATM    6  S1  UNL     1      -2.984  76.885  24.839  1.00  0.00     0.103 S 
HETATM    7  O1  UNL     1      -1.331  77.856  24.635  1.00  0.00    -0.595 OA
HETATM    8  O2  UNL     1      -3.135  77.078  26.392  1.00  0.00    -0.595 OA
HETATM    9  O3  UNL     1      -2.649  75.601  24.278  1.00  0.00    -0.595 OA
ENDBRANCH   5   6
ENDBRANCH   4   5
ENDBRANCH   1   4
BRANCH   1  10
HETATM   10  C3  UNL     1      -6.294  75.885  22.694  1.00  0.00     0.186 C 
HETATM   11  C4  UNL     1      -6.911  77.099  22.076  1.00  0.00     0.033 C 
HETATM   12  C5  UNL     1      -7.383  76.771  20.656  1.00  0.00     0.002 C 
HETATM   13  C6  UNL     1      -6.131  76.478  19.870  1.00  0.00     0.000 C 
HETATM   14  C7  UNL     1      -5.571  75.182  20.389  1.00  0.00     0.002 C 
HETATM   15  C8  UNL     1      -5.265  75.211  21.856  1.00  0.00     0.033 C 
ENDBRANCH   1  10
TORSDOF 4
ENDMDL
