MODEL 7
REMARK VINA RESULT: -6.073544088      4.561      6.552
REMARK  4 active torsions:
REMARK  status: ('A' for Active; 'I' for Inactive)
REMARK    1  A    between atoms: S1_2  and  C1_5 
REMARK    2  A    between atoms: C1_5  and  C2_6 
REMARK    3  A    between atoms: C2_6  and  N1_7 
REMARK    4  A    between atoms: N1_7  and  C3_10 
ROOT
HETATM    1  N1  UNL     1      -1.472  79.475  22.467  1.00  0.00    -0.070 N 
ATOM      2  H11 UNL     1      -2.006  80.048  21.813  1.00  0.00     0.277 HD
ATOM      3  H12 UNL     1      -1.647  78.563  22.046  1.00  0.00     0.277 HD
ENDROOT
BRANCH   1   4
HETATM    4  C2  UNL     1      -1.999  79.558  23.814  1.00  0.00     0.250 C 
BRANCH   4   5
HETATM    5  C1  UNL     1      -3.000  78.491  24.113  1.00  0.00     0.192 C 
BRANCH   5   6
HETATM    6  S1  UNL     1      -2.361  77.198  25.062  1.00  0.00     0.103 S 
HETATM    7  O1  UNL     1      -3.736  77.337  26.405  1.00  0.00    -0.595 OA
HETATM    8  O2  UNL     1      -2.762  75.780  24.515  1.00  0.00    -0.595 OA
HETATM    9  O3  UNL     1      -1.161  77.382  25.838  1.00  0.00    -0.595 OA
ENDBRANCH   5   6
ENDBRANCH   4   5
ENDBRANCH   1   4
BRANCH   1  10
HETATM   10  C3  UNL     1      -0.047  79.817  22.454  1.00  0.00     0.186 C 
HETATM   11  C4  UNL     1       0.649  78.849  23.357  1.00  0.00     0.033 C 
HETATM   12  C5  UNL     1       2.165  78.992  23.196  1.00  0.00     0.002 C 
HETATM   13  C6  UNL     1       2.466  78.555  21.785  1.00  0.00     0.000 C 
HETATM   14  C7  UNL     1       1.891  79.595  20.863  1.00  0.00     0.002 C 
HETATM   15  C8  UNL     1       0.415  79.794  21.039  1.00  0.00     0.033 C 
ENDBRANCH   1  10
TORSDOF 4
ENDMDL
