MODEL 2
REMARK VINA RESULT: -6.305174492      1.126      1.823
REMARK  4 active torsions:
REMARK  status: ('A' for Active; 'I' for Inactive)
REMARK    1  A    between atoms: S1_2  and  C1_5 
REMARK    2  A    between atoms: C1_5  and  C2_6 
REMARK    3  A    between atoms: C2_6  and  N1_7 
REMARK    4  A    between atoms: N1_7  and  C3_10 
ROOT
HETATM    1  N1  UNL     1      -5.536  76.357  24.101  1.00  0.00    -0.070 N 
ATOM      2  H11 UNL     1      -6.088  76.144  24.932  1.00  0.00     0.277 HD
ATOM      3  H12 UNL     1      -4.718  75.787  24.312  1.00  0.00     0.277 HD
ENDROOT
BRANCH   1   4
HETATM    4  C2  UNL     1      -5.206  77.766  24.017  1.00  0.00     0.250 C 
BRANCH   4   5
HETATM    5  C1  UNL     1      -3.741  78.010  23.866  1.00  0.00     0.192 C 
BRANCH   5   6
HETATM    6  S1  UNL     1      -2.803  77.394  25.178  1.00  0.00     0.103 S 
HETATM    7  O1  UNL     1      -2.630  75.641  24.395  1.00  0.00    -0.595 OA
HETATM    8  O2  UNL     1      -1.287  77.799  25.093  1.00  0.00    -0.595 OA
HETATM    9  O3  UNL     1      -3.423  77.097  26.445  1.00  0.00    -0.595 OA
ENDBRANCH   5   6
ENDBRANCH   4   5
ENDBRANCH   1   4
BRANCH   1  10
HETATM   10  C3  UNL     1      -6.207  75.917  22.875  1.00  0.00     0.186 C 
HETATM   11  C4  UNL     1      -6.801  77.130  22.234  1.00  0.00     0.033 C 
HETATM   12  C5  UNL     1      -7.300  76.780  20.829  1.00  0.00     0.002 C 
HETATM   13  C6  UNL     1      -6.065  76.437  20.035  1.00  0.00     0.000 C 
HETATM   14  C7  UNL     1      -5.531  75.140  20.578  1.00  0.00     0.002 C 
HETATM   15  C8  UNL     1      -5.206  75.196  22.041  1.00  0.00     0.033 C 
ENDBRANCH   1  10
TORSDOF 4
ENDMDL
