MODEL 8
REMARK VINA RESULT: -6.071805171      1.170      1.886
REMARK  4 active torsions:
REMARK  status: ('A' for Active; 'I' for Inactive)
REMARK    1  A    between atoms: S1_2  and  C1_5 
REMARK    2  A    between atoms: C1_5  and  C2_6 
REMARK    3  A    between atoms: C2_6  and  N1_7 
REMARK    4  A    between atoms: N1_7  and  C3_10 
ROOT
HETATM    1  N1  UNL     1      -4.990  76.981  22.742  1.00  0.00    -0.070 N 
ATOM      2  H11 UNL     1      -4.649  76.111  23.152  1.00  0.00     0.277 HD
ATOM      3  H12 UNL     1      -4.383  77.011  21.924  1.00  0.00     0.277 HD
ENDROOT
BRANCH   1   4
HETATM    4  C2  UNL     1      -4.771  78.115  23.619  1.00  0.00     0.250 C 
BRANCH   4   5
HETATM    5  C1  UNL     1      -3.328  78.337  23.930  1.00  0.00     0.192 C 
BRANCH   5   6
HETATM    6  S1  UNL     1      -2.803  77.531  25.364  1.00  0.00     0.103 S 
HETATM    7  O1  UNL     1      -2.660  75.815  24.497  1.00  0.00    -0.595 OA
HETATM    8  O2  UNL     1      -1.272  77.733  25.655  1.00  0.00    -0.595 OA
HETATM    9  O3  UNL     1      -3.732  77.253  26.429  1.00  0.00    -0.595 OA
ENDBRANCH   5   6
ENDBRANCH   4   5
ENDBRANCH   1   4
BRANCH   1  10
HETATM   10  C3  UNL     1      -6.405  76.891  22.369  1.00  0.00     0.186 C 
HETATM   11  C4  UNL     1      -6.850  78.264  21.982  1.00  0.00     0.033 C 
HETATM   12  C5  UNL     1      -8.242  78.196  21.347  1.00  0.00     0.002 C 
HETATM   13  C6  UNL     1      -8.064  77.425  20.064  1.00  0.00     0.000 C 
HETATM   14  C7  UNL     1      -7.751  76.002  20.437  1.00  0.00     0.002 C 
HETATM   15  C8  UNL     1      -6.528  75.868  21.295  1.00  0.00     0.033 C 
ENDBRANCH   1  10
TORSDOF 4
ENDMDL
