MODEL 3
REMARK VINA RESULT: -6.117264073      0.243      1.307
REMARK  4 active torsions:
REMARK  status: ('A' for Active; 'I' for Inactive)
REMARK    1  A    between atoms: S1_2  and  C1_5 
REMARK    2  A    between atoms: C1_5  and  C2_6 
REMARK    3  A    between atoms: C2_6  and  N1_7 
REMARK    4  A    between atoms: N1_7  and  C3_10 
ROOT
HETATM    1  N1  UNL     1      -5.024  76.009  22.222  1.00  0.00    -0.070 N 
ATOM      2  H11 UNL     1      -4.526  75.162  22.499  1.00  0.00     0.277 HD
ATOM      3  H12 UNL     1      -4.295  76.433  21.650  1.00  0.00     0.277 HD
ENDROOT
BRANCH   1   4
HETATM    4  C2  UNL     1      -5.362  76.835  23.365  1.00  0.00     0.250 C 
BRANCH   4   5
HETATM    5  C1  UNL     1      -4.202  77.625  23.873  1.00  0.00     0.192 C 
BRANCH   5   6
HETATM    6  S1  UNL     1      -3.004  76.659  24.656  1.00  0.00     0.103 S 
HETATM    7  O1  UNL     1      -1.535  77.699  23.967  1.00  0.00    -0.595 OA
HETATM    8  O2  UNL     1      -2.813  77.027  26.172  1.00  0.00    -0.595 OA
HETATM    9  O3  UNL     1      -2.694  75.339  24.167  1.00  0.00    -0.595 OA
ENDBRANCH   5   6
ENDBRANCH   4   5
ENDBRANCH   1   4
BRANCH   1  10
HETATM   10  C3  UNL     1      -6.225  75.704  21.440  1.00  0.00     0.186 C 
HETATM   11  C4  UNL     1      -6.933  76.997  21.193  1.00  0.00     0.033 C 
HETATM   12  C5  UNL     1      -8.057  76.784  20.175  1.00  0.00     0.002 C 
HETATM   13  C6  UNL     1      -7.370  76.418  18.884  1.00  0.00     0.000 C 
HETATM   14  C7  UNL     1      -6.768  75.052  19.070  1.00  0.00     0.002 C 
HETATM   15  C8  UNL     1      -5.797  74.981  20.211  1.00  0.00     0.033 C 
ENDBRANCH   1  10
TORSDOF 4
ENDMDL
