MODEL 6
REMARK VINA RESULT: -6.076052400      4.314      6.836
REMARK  4 active torsions:
REMARK  status: ('A' for Active; 'I' for Inactive)
REMARK    1  A    between atoms: S1_2  and  C1_5 
REMARK    2  A    between atoms: C1_5  and  C2_6 
REMARK    3  A    between atoms: C2_6  and  N1_7 
REMARK    4  A    between atoms: N1_7  and  C3_10 
ROOT
HETATM    1  N1  UNL     1      -1.289  79.311  23.083  1.00  0.00    -0.070 N 
ATOM      2  H11 UNL     1      -1.338  78.944  22.132  1.00  0.00     0.277 HD
ATOM      3  H12 UNL     1      -0.860  78.503  23.534  1.00  0.00     0.277 HD
ENDROOT
BRANCH   1   4
HETATM    4  C2  UNL     1      -2.604  79.595  23.622  1.00  0.00     0.250 C 
BRANCH   4   5
HETATM    5  C1  UNL     1      -3.360  78.360  23.988  1.00  0.00     0.192 C 
BRANCH   5   6
HETATM    6  S1  UNL     1      -2.457  77.270  24.975  1.00  0.00     0.103 S 
HETATM    7  O1  UNL     1      -3.734  77.322  26.418  1.00  0.00    -0.595 OA
HETATM    8  O2  UNL     1      -2.669  75.764  24.578  1.00  0.00    -0.595 OA
HETATM    9  O3  UNL     1      -1.248  77.703  25.628  1.00  0.00    -0.595 OA
ENDBRANCH   5   6
ENDBRANCH   4   5
ENDBRANCH   1   4
BRANCH   1  10
HETATM   10  C3  UNL     1      -0.436  80.499  23.166  1.00  0.00     0.186 C 
HETATM   11  C4  UNL     1      -1.273  81.674  22.773  1.00  0.00     0.033 C 
HETATM   12  C5  UNL     1      -0.517  82.971  23.076  1.00  0.00     0.002 C 
HETATM   13  C6  UNL     1      -0.384  83.022  24.576  1.00  0.00     0.000 C 
HETATM   14  C7  UNL     1       0.568  81.929  24.977  1.00  0.00     0.002 C 
HETATM   15  C8  UNL     1       0.124  80.564  24.543  1.00  0.00     0.033 C 
ENDBRANCH   1  10
TORSDOF 4
ENDMDL
