MODEL 1
REMARK VINA RESULT: -6.339517008      0.000      0.000
REMARK  4 active torsions:
REMARK  status: ('A' for Active; 'I' for Inactive)
REMARK    1  A    between atoms: S1_2  and  C1_5 
REMARK    2  A    between atoms: C1_5  and  C2_6 
REMARK    3  A    between atoms: C2_6  and  N1_7 
REMARK    4  A    between atoms: N1_7  and  C3_10 
ROOT
HETATM    1  N1  UNL     1      -4.961  76.098  22.222  1.00  0.00    -0.070 N 
ATOM      2  H11 UNL     1      -4.341  75.295  22.335  1.00  0.00     0.277 HD
ATOM      3  H12 UNL     1      -4.340  76.692  21.674  1.00  0.00     0.277 HD
ENDROOT
BRANCH   1   4
HETATM    4  C2  UNL     1      -5.302  76.701  23.496  1.00  0.00     0.250 C 
BRANCH   4   5
HETATM    5  C1  UNL     1      -4.294  77.702  23.952  1.00  0.00     0.192 C 
BRANCH   5   6
HETATM    6  S1  UNL     1      -2.804  76.993  24.463  1.00  0.00     0.103 S 
HETATM    7  O1  UNL     1      -3.252  77.098  26.334  1.00  0.00    -0.595 OA
HETATM    8  O2  UNL     1      -2.800  75.426  24.348  1.00  0.00    -0.595 OA
HETATM    9  O3  UNL     1      -1.577  77.746  24.404  1.00  0.00    -0.595 OA
ENDBRANCH   5   6
ENDBRANCH   4   5
ENDBRANCH   1   4
BRANCH   1  10
HETATM   10  C3  UNL     1      -6.176  75.748  21.481  1.00  0.00     0.186 C 
HETATM   11  C4  UNL     1      -6.902  77.022  21.193  1.00  0.00     0.033 C 
HETATM   12  C5  UNL     1      -8.046  76.754  20.211  1.00  0.00     0.002 C 
HETATM   13  C6  UNL     1      -7.385  76.336  18.923  1.00  0.00     0.000 C 
HETATM   14  C7  UNL     1      -6.765  74.986  19.156  1.00  0.00     0.002 C 
HETATM   15  C8  UNL     1      -5.768  74.974  20.276  1.00  0.00     0.033 C 
ENDBRANCH   1  10
TORSDOF 4
ENDMDL
