MODEL 1
REMARK VINA RESULT: -7.420561617      0.000      0.000
REMARK  6 active torsions:
REMARK  status: ('A' for Active; 'I' for Inactive)
REMARK    1  A    between atoms: O1_2  and  C2_3 
REMARK    2  A    between atoms: C9_10  and  O2_11 
REMARK    3  A    between atoms: C13_18  and  O3_19 
REMARK    4  A    between atoms: C21_28  and  O4_29 
REMARK    5  A    between atoms: O4_29  and  C22_30 
REMARK    6  A    between atoms: C28_38  and  O6_39 
ROOT
HETATM    1  C2  UNL     1      44.021  -6.266  34.328  1.00  0.00     0.150 C 
HETATM    2  C3  UNL     1      43.562  -7.615  33.850  1.00  0.00     0.039 C 
HETATM    3  C4  UNL     1      44.320  -8.026  32.621  1.00  0.00    -0.012 C 
HETATM    4  C5  UNL     1      44.580  -6.796  31.792  1.00  0.00     0.010 C 
HETATM    5  C6  UNL     1      43.549  -9.004  31.746  1.00  0.00     0.043 C 
HETATM    6  C7  UNL     1      42.918 -10.099  32.546  1.00  0.00    -0.053 A 
HETATM    7  C8  UNL     1      43.934 -10.932  33.095  1.00  0.00     0.043 A 
HETATM    8  C9  UNL     1      43.695 -12.025  33.864  1.00  0.00     0.068 A 
HETATM    9  C10 UNL     1      42.364 -12.282  34.083  1.00  0.00     0.066 A 
HETATM   10  C11 UNL     1      41.301 -11.505  33.574  1.00  0.00     0.037 A 
HETATM   11  C12 UNL     1      41.617 -10.412  32.805  1.00  0.00     0.037 A 
HETATM   12  N1  UNL     1      40.044 -12.063  33.965  1.00  0.00    -0.337 N 
ATOM     13  H1  UNL     1      40.036 -13.080  33.896  1.00  0.00     0.168 HD
HETATM   14  C13 UNL     1      38.812 -11.550  34.422  1.00  0.00     0.146 C 
HETATM   15  C14 UNL     1      38.445 -10.857  35.637  1.00  0.00    -0.015 C 
HETATM   16  C15 UNL     1      36.955 -10.793  36.042  1.00  0.00     0.052 C 
HETATM   17  C16 UNL     1      39.226 -10.230  36.491  1.00  0.00    -0.016 C 
HETATM   18  C17 UNL     1      40.694 -10.056  36.444  1.00  0.00     0.028 C 
HETATM   19  C18 UNL     1      41.131  -9.350  37.698  1.00  0.00     0.011 C 
HETATM   20  C19 UNL     1      41.726  -7.983  37.414  1.00  0.00     0.016 C 
HETATM   21  C20 UNL     1      42.811  -7.811  38.464  1.00  0.00     0.013 C 
HETATM   22  C21 UNL     1      40.700  -6.918  37.662  1.00  0.00     0.165 C 
HETATM   23  C23 UNL     1      40.148  -6.299  36.425  1.00  0.00    -0.058 C 
HETATM   24  C24 UNL     1      38.696  -6.596  36.140  1.00  0.00     0.046 C 
HETATM   25  C25 UNL     1      40.834  -5.532  35.603  1.00  0.00    -0.015 C 
HETATM   26  C26 UNL     1      42.254  -5.126  35.716  1.00  0.00     0.035 C 
HETATM   27  C27 UNL     1      42.358  -3.644  36.121  1.00  0.00     0.017 C 
HETATM   28  C28 UNL     1      42.897  -5.250  34.348  1.00  0.00     0.154 C 
ENDROOT
BRANCH  22  29
HETATM   29  O4  UNL     1      41.210  -5.903  38.537  1.00  0.00    -0.296 OA
BRANCH  29  30
HETATM   30  C22 UNL     1      40.366  -5.099  39.278  1.00  0.00     0.373 C 
HETATM   31  N2  UNL     1      40.359  -5.112  40.680  1.00  0.00    -0.032 NA
HETATM   32  O5  UNL     1      39.578  -4.331  38.631  1.00  0.00    -0.242 OA
ENDBRANCH  29  30
ENDBRANCH  22  29
BRANCH  28  33
HETATM   33  O6  UNL     1      43.433  -4.022  33.959  1.00  0.00    -0.392 OA
ATOM     34  H6  UNL     1      42.774  -3.358  34.121  1.00  0.00     0.210 HD
ENDBRANCH  28  33
BRANCH   1  35
HETATM   35  O1  UNL     1      44.516  -6.321  35.649  1.00  0.00    -0.388 OA
HETATM   36  C1  UNL     1      45.365  -7.441  35.814  1.00  0.00     0.202 C 
ENDBRANCH   1  35
BRANCH  14  37
HETATM   37  O3  UNL     1      37.786 -11.717  33.624  1.00  0.00    -0.346 OA
ATOM     38  H3  UNL     1      36.998 -11.238  33.851  1.00  0.00     0.219 HD
ENDBRANCH  14  37
BRANCH   8  39
HETATM   39  O2  UNL     1      44.709 -12.814  34.384  1.00  0.00    -0.361 OA
ATOM     40  H2  UNL     1      45.547 -12.925  33.952  1.00  0.00     0.217 HD
ENDBRANCH   8  39
TORSDOF 6
ENDMDL
