MODEL 4
REMARK VINA RESULT: -6.370295006      2.796      6.476
REMARK  6 active torsions:
REMARK  status: ('A' for Active; 'I' for Inactive)
REMARK    1  A    between atoms: O1_2  and  C2_3 
REMARK    2  A    between atoms: C9_10  and  O2_11 
REMARK    3  A    between atoms: C13_18  and  O3_19 
REMARK    4  A    between atoms: C21_28  and  O4_29 
REMARK    5  A    between atoms: O4_29  and  C22_30 
REMARK    6  A    between atoms: C28_38  and  O6_39 
ROOT
HETATM    1  C2  UNL     1      42.922  -8.274  34.648  1.00  0.00     0.150 C 
HETATM    2  C3  UNL     1      42.859  -6.806  34.334  1.00  0.00     0.039 C 
HETATM    3  C4  UNL     1      43.913  -6.435  33.332  1.00  0.00    -0.012 C 
HETATM    4  C5  UNL     1      45.140  -7.265  33.604  1.00  0.00     0.010 C 
HETATM    5  C6  UNL     1      44.330  -4.973  33.420  1.00  0.00     0.043 C 
HETATM    6  C7  UNL     1      43.153  -4.057  33.531  1.00  0.00    -0.053 A 
HETATM    7  C8  UNL     1      42.418  -4.080  32.312  1.00  0.00     0.043 A 
HETATM    8  C9  UNL     1      41.298  -3.349  32.081  1.00  0.00     0.068 A 
HETATM    9  C10 UNL     1      40.910  -2.560  33.134  1.00  0.00     0.066 A 
HETATM   10  C11 UNL     1      41.585  -2.482  34.372  1.00  0.00     0.037 A 
HETATM   11  C12 UNL     1      42.711  -3.250  34.537  1.00  0.00     0.037 A 
HETATM   12  N1  UNL     1      40.936  -1.546  35.237  1.00  0.00    -0.337 N 
ATOM     13  H1  UNL     1      40.640  -0.705  34.742  1.00  0.00     0.168 HD
HETATM   14  C13 UNL     1      40.605  -1.502  36.607  1.00  0.00     0.146 C 
HETATM   15  C14 UNL     1      39.691  -2.288  37.406  1.00  0.00    -0.015 C 
HETATM   16  C15 UNL     1      39.232  -1.739  38.776  1.00  0.00     0.052 C 
HETATM   17  C16 UNL     1      39.170  -3.466  37.135  1.00  0.00    -0.016 C 
HETATM   18  C17 UNL     1      39.377  -4.315  35.942  1.00  0.00     0.028 C 
HETATM   19  C18 UNL     1      38.487  -5.522  36.057  1.00  0.00     0.011 C 
HETATM   20  C19 UNL     1      39.277  -6.814  36.171  1.00  0.00     0.016 C 
HETATM   21  C20 UNL     1      38.433  -7.845  35.439  1.00  0.00     0.013 C 
HETATM   22  C21 UNL     1      39.350  -7.242  37.606  1.00  0.00     0.165 C 
HETATM   23  C23 UNL     1      40.684  -7.043  38.237  1.00  0.00    -0.058 C 
HETATM   24  C24 UNL     1      40.744  -5.990  39.316  1.00  0.00     0.046 C 
HETATM   25  C25 UNL     1      41.770  -7.717  37.917  1.00  0.00    -0.015 C 
HETATM   26  C26 UNL     1      41.907  -8.783  36.898  1.00  0.00     0.035 C 
HETATM   27  C27 UNL     1      42.059 -10.157  37.575  1.00  0.00     0.017 C 
HETATM   28  C28 UNL     1      43.184  -8.537  36.118  1.00  0.00     0.154 C 
ENDROOT
BRANCH  22  29
HETATM   29  O4  UNL     1      38.928  -8.603  37.761  1.00  0.00    -0.296 OA
BRANCH  29  30
HETATM   30  C22 UNL     1      38.482  -9.086  38.976  1.00  0.00     0.373 C 
HETATM   31  N2  UNL     1      39.358  -9.404  40.023  1.00  0.00    -0.032 NA
HETATM   32  O5  UNL     1      37.222  -9.235  39.115  1.00  0.00    -0.242 OA
ENDBRANCH  29  30
ENDBRANCH  22  29
BRANCH  28  33
HETATM   33  O6  UNL     1      44.018  -9.652  36.203  1.00  0.00    -0.392 OA
ATOM     34  H6  UNL     1      44.708  -9.447  36.822  1.00  0.00     0.210 HD
ENDBRANCH  28  33
BRANCH   1  35
HETATM   35  O1  UNL     1      41.705  -8.924  34.351  1.00  0.00    -0.388 OA
HETATM   36  C1  UNL     1      41.920  -9.986  33.440  1.00  0.00     0.202 C 
ENDBRANCH   1  35
BRANCH  14  37
HETATM   37  O3  UNL     1      41.219  -0.590  37.319  1.00  0.00    -0.346 OA
ATOM     38  H3  UNL     1      41.758   0.025  36.836  1.00  0.00     0.219 HD
ENDBRANCH  14  37
BRANCH   8  39
HETATM   39  O2  UNL     1      40.604  -3.397  30.882  1.00  0.00    -0.361 OA
ATOM     40  H2  UNL     1      40.030  -2.698  30.591  1.00  0.00     0.217 HD
ENDBRANCH   8  39
TORSDOF 6
ENDMDL
