MODEL 2
REMARK VINA RESULT: -6.783441061      2.927      6.340
REMARK  6 active torsions:
REMARK  status: ('A' for Active; 'I' for Inactive)
REMARK    1  A    between atoms: O1_2  and  C2_3 
REMARK    2  A    between atoms: C9_10  and  O2_11 
REMARK    3  A    between atoms: C13_18  and  O3_19 
REMARK    4  A    between atoms: C21_28  and  O4_29 
REMARK    5  A    between atoms: O4_29  and  C22_30 
REMARK    6  A    between atoms: C28_38  and  O6_39 
ROOT
HETATM    1  C2  UNL     1      43.972  -7.425  35.456  1.00  0.00     0.150 C 
HETATM    2  C3  UNL     1      43.585  -6.093  34.878  1.00  0.00     0.039 C 
HETATM    3  C4  UNL     1      44.633  -5.608  33.920  1.00  0.00    -0.012 C 
HETATM    4  C5  UNL     1      45.982  -6.025  34.442  1.00  0.00     0.010 C 
HETATM    5  C6  UNL     1      44.655  -4.092  33.778  1.00  0.00     0.043 C 
HETATM    6  C7  UNL     1      43.281  -3.522  33.620  1.00  0.00    -0.053 A 
HETATM    7  C8  UNL     1      42.741  -3.926  32.366  1.00  0.00     0.043 A 
HETATM    8  C9  UNL     1      41.513  -3.568  31.911  1.00  0.00     0.068 A 
HETATM    9  C10 UNL     1      40.806  -2.762  32.767  1.00  0.00     0.066 A 
HETATM   10  C11 UNL     1      41.272  -2.318  34.025  1.00  0.00     0.037 A 
HETATM   11  C12 UNL     1      42.523  -2.721  34.422  1.00  0.00     0.037 A 
HETATM   12  N1  UNL     1      40.302  -1.472  34.647  1.00  0.00    -0.337 N 
ATOM     13  H1  UNL     1      39.872  -0.827  33.984  1.00  0.00     0.168 HD
HETATM   14  C13 UNL     1      39.794  -1.311  35.953  1.00  0.00     0.146 C 
HETATM   15  C14 UNL     1      39.011  -2.184  36.799  1.00  0.00    -0.015 C 
HETATM   16  C15 UNL     1      38.254  -1.578  38.002  1.00  0.00     0.052 C 
HETATM   17  C16 UNL     1      38.842  -3.486  36.701  1.00  0.00    -0.016 C 
HETATM   18  C17 UNL     1      39.409  -4.419  35.704  1.00  0.00     0.028 C 
HETATM   19  C18 UNL     1      38.844  -5.789  35.958  1.00  0.00     0.011 C 
HETATM   20  C19 UNL     1      39.910  -6.787  36.370  1.00  0.00     0.016 C 
HETATM   21  C20 UNL     1      39.456  -8.106  35.767  1.00  0.00     0.013 C 
HETATM   22  C21 UNL     1      39.901  -6.957  37.860  1.00  0.00     0.165 C 
HETATM   23  C23 UNL     1      41.048  -6.313  38.557  1.00  0.00    -0.058 C 
HETATM   24  C24 UNL     1      40.701  -5.132  39.430  1.00  0.00     0.046 C 
HETATM   25  C25 UNL     1      42.301  -6.710  38.459  1.00  0.00    -0.015 C 
HETATM   26  C26 UNL     1      42.833  -7.841  37.665  1.00  0.00     0.035 C 
HETATM   27  C27 UNL     1      43.235  -9.004  38.589  1.00  0.00     0.017 C 
HETATM   28  C28 UNL     1      44.097  -7.381  36.966  1.00  0.00     0.154 C 
ENDROOT
BRANCH  22  29
HETATM   29  O4  UNL     1      39.817  -8.342  38.222  1.00  0.00    -0.296 OA
BRANCH  29  30
HETATM   30  C22 UNL     1      39.306  -8.739  39.441  1.00  0.00     0.373 C 
HETATM   31  N2  UNL     1      37.936  -8.966  39.641  1.00  0.00    -0.032 NA
HETATM   32  O5  UNL     1      40.136  -8.894  40.398  1.00  0.00    -0.242 OA
ENDBRANCH  29  30
ENDBRANCH  22  29
BRANCH  28  33
HETATM   33  O6  UNL     1      45.166  -8.204  37.323  1.00  0.00    -0.392 OA
ATOM     34  H6  UNL     1      45.003  -8.519  38.203  1.00  0.00     0.210 HD
ENDBRANCH  28  33
BRANCH   1  35
HETATM   35  O1  UNL     1      43.006  -8.416  35.177  1.00  0.00    -0.388 OA
HETATM   36  C1  UNL     1      43.550  -9.413  34.333  1.00  0.00     0.202 C 
ENDBRANCH   1  35
BRANCH  14  37
HETATM   37  O3  UNL     1      40.061  -0.171  36.538  1.00  0.00    -0.346 OA
ATOM     38  H3  UNL     1      39.543   0.035  37.308  1.00  0.00     0.219 HD
ENDBRANCH  14  37
BRANCH   8  39
HETATM   39  O2  UNL     1      41.017  -3.982  30.685  1.00  0.00    -0.361 OA
ATOM     40  H2  UNL     1      41.120  -4.869  30.361  1.00  0.00     0.217 HD
ENDBRANCH   8  39
TORSDOF 6
ENDMDL
