MODEL 4
REMARK VINA RESULT: -5.850121882      2.365      7.249
REMARK  6 active torsions:
REMARK  status: ('A' for Active; 'I' for Inactive)
REMARK    1  A    between atoms: O1_2  and  C2_3 
REMARK    2  A    between atoms: C6_7  and  O2_8 
REMARK    3  A    between atoms: C21_27  and  O5_28 
REMARK    4  A    between atoms: O5_28  and  C22_29 
REMARK    5  A    between atoms: C28_37  and  O7_38 
REMARK    6  A    between atoms: C30_40  and  O8_41 
ROOT
HETATM    1  C2  UNL     1     -27.451  33.034  -6.230  1.00  0.00     0.150 C 
HETATM    2  C3  UNL     1     -26.235  32.204  -6.439  1.00  0.00     0.041 C 
HETATM    3  C4  UNL     1     -25.242  32.183  -5.317  1.00  0.00     0.018 C 
HETATM    4  C5  UNL     1     -25.711  31.354  -4.142  1.00  0.00     0.013 C 
HETATM    5  C6  UNL     1     -24.715  33.543  -4.937  1.00  0.00     0.160 C 
HETATM    6  C8  UNL     1     -23.360  33.754  -5.560  1.00  0.00     0.010 A 
HETATM    7  C9  UNL     1     -22.421  33.537  -4.601  1.00  0.00     0.067 A 
HETATM    8  C10 UNL     1     -21.002  33.699  -4.827  1.00  0.00     0.174 A 
HETATM    9  O3  UNL     1     -20.147  33.490  -3.918  1.00  0.00    -0.288 OA
HETATM   10  C11 UNL     1     -20.629  34.114  -6.157  1.00  0.00     0.087 A 
HETATM   11  C12 UNL     1     -21.536  34.346  -7.153  1.00  0.00     0.072 A 
HETATM   12  N1  UNL     1     -20.806  34.791  -8.318  1.00  0.00    -0.321 N 
ATOM     13  H1  UNL     1     -20.103  34.133  -8.652  1.00  0.00     0.169 HD
HETATM   14  C13 UNL     1     -20.900  36.002  -9.087  1.00  0.00     0.251 C 
HETATM   15  O4  UNL     1     -21.123  35.835 -10.327  1.00  0.00    -0.268 OA
HETATM   16  C14 UNL     1     -20.772  37.376  -8.643  1.00  0.00     0.006 C 
HETATM   17  C15 UNL     1     -19.774  38.306  -9.386  1.00  0.00     0.054 C 
HETATM   18  C16 UNL     1     -21.440  38.004  -7.687  1.00  0.00     0.012 C 
HETATM   19  C17 UNL     1     -22.488  37.497  -6.824  1.00  0.00    -0.003 C 
HETATM   20  C18 UNL     1     -23.795  37.408  -7.090  1.00  0.00    -0.020 C 
HETATM   21  C19 UNL     1     -24.461  37.813  -8.320  1.00  0.00     0.038 C 
HETATM   22  C20 UNL     1     -24.600  39.315  -8.453  1.00  0.00     0.017 C 
HETATM   23  C21 UNL     1     -25.763  37.114  -8.655  1.00  0.00     0.169 C 
HETATM   24  C23 UNL     1     -26.613  36.792  -7.502  1.00  0.00    -0.057 C 
HETATM   25  C24 UNL     1     -26.696  37.810  -6.351  1.00  0.00     0.046 C 
HETATM   26  C25 UNL     1     -27.377  35.730  -7.303  1.00  0.00    -0.015 C 
HETATM   27  C26 UNL     1     -27.559  34.584  -8.233  1.00  0.00     0.036 C 
HETATM   28  C27 UNL     1     -28.561  35.048  -9.313  1.00  0.00     0.017 C 
HETATM   29  C28 UNL     1     -28.102  33.378  -7.549  1.00  0.00     0.157 C 
HETATM   30  C30 UNL     1     -22.965  34.169  -6.899  1.00  0.00     0.101 A 
ENDROOT
BRANCH  23  31
HETATM   31  O5  UNL     1     -25.577  36.116  -9.616  1.00  0.00    -0.296 OA
BRANCH  31  32
HETATM   32  C22 UNL     1     -25.475  36.303 -10.971  1.00  0.00     0.373 C 
HETATM   33  N2  UNL     1     -24.296  36.811 -11.567  1.00  0.00    -0.032 NA
HETATM   34  O6  UNL     1     -26.482  36.000 -11.680  1.00  0.00    -0.242 OA
ENDBRANCH  31  32
ENDBRANCH  23  31
BRANCH  29  35
HETATM   35  O7  UNL     1     -27.974  32.284  -8.409  1.00  0.00    -0.387 OA
HETATM   36  C29 UNL     1     -29.211  31.771  -8.749  1.00  0.00     0.202 C 
ENDBRANCH  29  35
BRANCH   1  37
HETATM   37  O1  UNL     1     -28.405  32.166  -5.614  1.00  0.00    -0.388 OA
HETATM   38  C1  UNL     1     -29.535  32.805  -5.201  1.00  0.00     0.202 C 
ENDBRANCH   1  37
BRANCH   5  39
HETATM   39  O2  UNL     1     -24.622  33.460  -3.511  1.00  0.00    -0.386 OA
HETATM   40  C7  UNL     1     -25.266  34.476  -2.866  1.00  0.00     0.202 C 
ENDBRANCH   5  39
BRANCH  30  41
HETATM   41  O8  UNL     1     -23.871  34.372  -7.856  1.00  0.00    -0.358 OA
ATOM     42  H8  UNL     1     -24.090  35.249  -8.151  1.00  0.00     0.217 HD
ENDBRANCH  30  41
TORSDOF 6
ENDMDL
