MODEL 2
REMARK VINA RESULT: -6.086931916      2.425      5.861
REMARK  6 active torsions:
REMARK  status: ('A' for Active; 'I' for Inactive)
REMARK    1  A    between atoms: O1_2  and  C2_3 
REMARK    2  A    between atoms: C6_7  and  O2_8 
REMARK    3  A    between atoms: C21_27  and  O5_28 
REMARK    4  A    between atoms: O5_28  and  C22_29 
REMARK    5  A    between atoms: C28_37  and  O7_38 
REMARK    6  A    between atoms: C30_40  and  O8_41 
ROOT
HETATM    1  C2  UNL     1     -22.979  37.478  -9.319  1.00  0.00     0.150 C 
HETATM    2  C3  UNL     1     -22.175  37.946  -8.159  1.00  0.00     0.041 C 
HETATM    3  C4  UNL     1     -20.975  37.123  -7.805  1.00  0.00     0.018 C 
HETATM    4  C5  UNL     1     -19.834  37.311  -8.780  1.00  0.00     0.013 C 
HETATM    5  C6  UNL     1     -21.286  35.680  -7.496  1.00  0.00     0.160 C 
HETATM    6  C8  UNL     1     -21.330  35.479  -6.004  1.00  0.00     0.010 A 
HETATM    7  C9  UNL     1     -20.152  34.914  -5.625  1.00  0.00     0.067 A 
HETATM    8  C10 UNL     1     -19.858  34.530  -4.262  1.00  0.00     0.174 A 
HETATM    9  O3  UNL     1     -18.754  34.006  -3.935  1.00  0.00    -0.288 OA
HETATM   10  C11 UNL     1     -20.907  34.784  -3.305  1.00  0.00     0.087 A 
HETATM   11  C12 UNL     1     -22.107  35.348  -3.639  1.00  0.00     0.072 A 
HETATM   12  N1  UNL     1     -22.916  35.399  -2.443  1.00  0.00    -0.321 N 
ATOM     13  H1  UNL     1     -22.500  35.926  -1.675  1.00  0.00     0.169 HD
HETATM   14  C13 UNL     1     -24.206  34.836  -2.149  1.00  0.00     0.251 C 
HETATM   15  O4  UNL     1     -25.083  35.673  -1.770  1.00  0.00    -0.268 OA
HETATM   16  C14 UNL     1     -24.635  33.454  -2.224  1.00  0.00     0.006 C 
HETATM   17  C15 UNL     1     -25.319  32.821  -0.980  1.00  0.00     0.054 C 
HETATM   18  C16 UNL     1     -24.573  32.621  -3.251  1.00  0.00     0.012 C 
HETATM   19  C17 UNL     1     -24.069  32.859  -4.588  1.00  0.00    -0.003 C 
HETATM   20  C18 UNL     1     -24.714  33.409  -5.621  1.00  0.00    -0.020 C 
HETATM   21  C19 UNL     1     -26.088  33.891  -5.629  1.00  0.00     0.038 C 
HETATM   22  C20 UNL     1     -27.109  32.773  -5.668  1.00  0.00     0.017 C 
HETATM   23  C21 UNL     1     -26.428  34.973  -6.634  1.00  0.00     0.169 C 
HETATM   24  C23 UNL     1     -25.745  34.859  -7.929  1.00  0.00    -0.057 C 
HETATM   25  C24 UNL     1     -25.543  33.454  -8.525  1.00  0.00     0.046 C 
HETATM   26  C25 UNL     1     -25.283  35.820  -8.712  1.00  0.00    -0.015 C 
HETATM   27  C26 UNL     1     -25.354  37.283  -8.456  1.00  0.00     0.036 C 
HETATM   28  C27 UNL     1     -26.786  37.726  -8.831  1.00  0.00     0.017 C 
HETATM   29  C28 UNL     1     -24.376  38.052  -9.273  1.00  0.00     0.157 C 
HETATM   30  C30 UNL     1     -22.376  35.732  -5.024  1.00  0.00     0.101 A 
ENDROOT
BRANCH  23  31
HETATM   31  O5  UNL     1     -26.466  36.236  -6.035  1.00  0.00    -0.296 OA
BRANCH  31  32
HETATM   32  C22 UNL     1     -27.592  36.941  -5.697  1.00  0.00     0.373 C 
HETATM   33  N2  UNL     1     -28.867  36.327  -5.642  1.00  0.00    -0.032 NA
HETATM   34  O6  UNL     1     -27.453  38.172  -5.431  1.00  0.00    -0.242 OA
ENDBRANCH  31  32
ENDBRANCH  23  31
BRANCH  29  35
HETATM   35  O7  UNL     1     -24.308  39.355  -8.775  1.00  0.00    -0.387 OA
HETATM   36  C29 UNL     1     -24.687  40.275  -9.732  1.00  0.00     0.202 C 
ENDBRANCH  29  35
BRANCH   1  37
HETATM   37  O1  UNL     1     -22.405  38.115 -10.463  1.00  0.00    -0.388 OA
HETATM   38  C1  UNL     1     -22.624  37.442 -11.627  1.00  0.00     0.202 C 
ENDBRANCH   1  37
BRANCH   5  39
HETATM   39  O2  UNL     1     -20.182  34.984  -8.081  1.00  0.00    -0.386 OA
HETATM   40  C7  UNL     1     -20.557  34.036  -8.989  1.00  0.00     0.202 C 
ENDBRANCH   5  39
BRANCH  30  41
HETATM   41  O8  UNL     1     -23.531  36.299  -5.375  1.00  0.00    -0.358 OA
ATOM     42  H8  UNL     1     -23.629  37.244  -5.400  1.00  0.00     0.217 HD
ENDBRANCH  30  41
TORSDOF 6
ENDMDL
