MODEL 3
REMARK VINA RESULT: -5.890894933      2.523      6.549
REMARK  6 active torsions:
REMARK  status: ('A' for Active; 'I' for Inactive)
REMARK    1  A    between atoms: O1_2  and  C2_3 
REMARK    2  A    between atoms: C6_7  and  O2_8 
REMARK    3  A    between atoms: C21_27  and  O5_28 
REMARK    4  A    between atoms: O5_28  and  C22_29 
REMARK    5  A    between atoms: C28_37  and  O7_38 
REMARK    6  A    between atoms: C30_40  and  O8_41 
ROOT
HETATM    1  C2  UNL     1     -25.791  32.669  -4.046  1.00  0.00     0.150 C 
HETATM    2  C3  UNL     1     -26.465  33.915  -4.498  1.00  0.00     0.041 C 
HETATM    3  C4  UNL     1     -26.975  33.923  -5.906  1.00  0.00     0.018 C 
HETATM    4  C5  UNL     1     -28.223  33.084  -6.077  1.00  0.00     0.013 C 
HETATM    5  C6  UNL     1     -25.916  33.665  -6.946  1.00  0.00     0.160 C 
HETATM    6  C8  UNL     1     -25.473  34.969  -7.555  1.00  0.00     0.010 A 
HETATM    7  C9  UNL     1     -26.091  35.099  -8.759  1.00  0.00     0.067 A 
HETATM    8  C10 UNL     1     -25.864  36.213  -9.653  1.00  0.00     0.174 A 
HETATM    9  O3  UNL     1     -26.451  36.311 -10.769  1.00  0.00    -0.288 OA
HETATM   10  C11 UNL     1     -24.923  37.202  -9.186  1.00  0.00     0.087 A 
HETATM   11  C12 UNL     1     -24.276  37.114  -7.985  1.00  0.00     0.072 A 
HETATM   12  N1  UNL     1     -23.384  38.245  -7.882  1.00  0.00    -0.321 N 
ATOM     13  H1  UNL     1     -23.843  39.153  -7.950  1.00  0.00     0.169 HD
HETATM   14  C13 UNL     1     -21.959  38.313  -7.702  1.00  0.00     0.251 C 
HETATM   15  O4  UNL     1     -21.576  38.986  -6.694  1.00  0.00    -0.268 OA
HETATM   16  C14 UNL     1     -20.909  37.723  -8.508  1.00  0.00     0.006 C 
HETATM   17  C15 UNL     1     -19.762  38.639  -9.018  1.00  0.00     0.054 C 
HETATM   18  C16 UNL     1     -20.744  36.456  -8.857  1.00  0.00     0.012 C 
HETATM   19  C17 UNL     1     -21.559  35.305  -8.524  1.00  0.00    -0.003 C 
HETATM   20  C18 UNL     1     -21.511  34.562  -7.414  1.00  0.00    -0.020 C 
HETATM   21  C19 UNL     1     -20.611  34.746  -6.284  1.00  0.00     0.038 C 
HETATM   22  C20 UNL     1     -19.195  34.292  -6.573  1.00  0.00     0.017 C 
HETATM   23  C21 UNL     1     -21.084  34.228  -4.941  1.00  0.00     0.169 C 
HETATM   24  C23 UNL     1     -21.859  32.981  -4.991  1.00  0.00    -0.057 C 
HETATM   25  C24 UNL     1     -21.432  31.897  -5.996  1.00  0.00     0.046 C 
HETATM   26  C25 UNL     1     -22.896  32.617  -4.253  1.00  0.00    -0.015 C 
HETATM   27  C26 UNL     1     -23.531  33.409  -3.166  1.00  0.00     0.036 C 
HETATM   28  C27 UNL     1     -22.638  33.239  -1.918  1.00  0.00     0.017 C 
HETATM   29  C28 UNL     1     -24.907  32.937  -2.850  1.00  0.00     0.157 C 
HETATM   30  C30 UNL     1     -24.529  35.979  -7.098  1.00  0.00     0.101 A 
ENDROOT
BRANCH  23  31
HETATM   31  O5  UNL     1     -21.576  35.260  -4.137  1.00  0.00    -0.296 OA
BRANCH  31  32
HETATM   32  C22 UNL     1     -20.964  35.788  -3.030  1.00  0.00     0.373 C 
HETATM   33  N2  UNL     1     -19.863  35.150  -2.410  1.00  0.00    -0.032 NA
HETATM   34  O6  UNL     1     -21.420  36.881  -2.575  1.00  0.00    -0.242 OA
ENDBRANCH  31  32
ENDBRANCH  23  31
BRANCH  29  35
HETATM   35  O7  UNL     1     -25.529  33.892  -2.041  1.00  0.00    -0.387 OA
HETATM   36  C29 UNL     1     -25.510  33.508  -0.714  1.00  0.00     0.202 C 
ENDBRANCH  29  35
BRANCH   1  37
HETATM   37  O1  UNL     1     -26.828  31.848  -3.505  1.00  0.00    -0.388 OA
HETATM   38  C1  UNL     1     -26.447  30.556  -3.298  1.00  0.00     0.202 C 
ENDBRANCH   1  37
BRANCH   5  39
HETATM   39  O2  UNL     1     -26.601  32.853  -7.904  1.00  0.00    -0.386 OA
HETATM   40  C7  UNL     1     -26.145  31.567  -7.952  1.00  0.00     0.202 C 
ENDBRANCH   5  39
BRANCH  30  41
HETATM   41  O8  UNL     1     -23.926  35.876  -5.913  1.00  0.00    -0.358 OA
ATOM     42  H8  UNL     1     -23.192  36.436  -5.682  1.00  0.00     0.217 HD
ENDBRANCH  30  41
TORSDOF 6
ENDMDL
