MODEL 6
REMARK VINA RESULT: -8.303614793      4.135      8.516
REMARK  8 active torsions:
REMARK  status: ('A' for Active; 'I' for Inactive)
REMARK    1  A    between atoms: C1_2  and  C2_3 
REMARK       I    between atoms: C1_2  and  N3_22 
REMARK    2  A    between atoms: C2_3  and  N1_4 
REMARK    3  A    between atoms: C4_6  and  N2_7 
REMARK       I    between atoms: N2_7  and  C5_9 
REMARK    4  A    between atoms: C5_9  and  C6_11 
REMARK    5  A    between atoms: C11_18  and  C12_19 
REMARK    6  A    between atoms: C12_19  and  O3_20 
REMARK    7  A    between atoms: N3_22  and  C13_24 
REMARK    8  A    between atoms: C16_27  and  N4_28 
ROOT
HETATM    1  C2  UNL     1       6.413  65.452  -0.772  1.00  0.00     0.375 C 
ENDROOT
BRANCH   1   2
HETATM    2  C1  UNL     1       7.805  65.477  -0.196  1.00  0.00     0.250 C 
HETATM    3  O1  UNL     1       8.751  65.495  -0.996  1.00  0.00    -0.271 OA
HETATM    4  N3  UNL     1       8.010  65.479   1.193  1.00  0.00    -0.323 N 
ATOM      5  H3  UNL     1       7.174  65.464   1.779  1.00  0.00     0.169 HD
BRANCH   4   6
HETATM    6  C13 UNL     1       9.259  65.501   1.865  1.00  0.00     0.073 A 
HETATM    7  C14 UNL     1       9.893  66.654   2.221  1.00  0.00     0.035 A 
HETATM    8  C15 UNL     1      11.127  66.561   2.884  1.00  0.00     0.032 A 
HETATM    9  C16 UNL     1      11.674  65.333   3.163  1.00  0.00     0.045 A 
HETATM   10  C22 UNL     1      11.045  64.165   2.811  1.00  0.00     0.074 A 
HETATM   11  C23 UNL     1       9.844  64.259   2.165  1.00  0.00     0.145 A 
HETATM   12  F1  UNL     1       9.196  63.122   1.803  1.00  0.00    -0.204 F 
BRANCH   9  13
HETATM   13  N4  UNL     1      12.936  65.310   3.843  1.00  0.00    -0.290 N 
HETATM   14  C17 UNL     1      13.023  65.613   5.153  1.00  0.00     0.100 A 
HETATM   15  C18 UNL     1      14.283  65.567   5.737  1.00  0.00     0.018 A 
HETATM   16  C19 UNL     1      15.396  65.227   5.008  1.00  0.00     0.007 A 
HETATM   17  C20 UNL     1      15.290  64.919   3.667  1.00  0.00     0.075 A 
HETATM   18  C21 UNL     1      14.011  64.976   3.116  1.00  0.00     0.252 A 
HETATM   19  O4  UNL     1      13.909  64.698   1.894  1.00  0.00    -0.268 OA
ENDBRANCH   9  13
ENDBRANCH   4   6
ENDBRANCH   1   2
BRANCH   1  20
HETATM   20  N1  UNL     1       6.192  64.277  -1.551  1.00  0.00     0.106 N 
HETATM   21  C3  UNL     1       6.697  63.142  -0.784  1.00  0.00     0.298 C 
HETATM   22  C4  UNL     1       5.434  62.664  -0.099  1.00  0.00     0.115 C 
HETATM   23  C10 UNL     1       4.467  62.660  -1.286  1.00  0.00     0.065 C 
HETATM   24  C11 UNL     1       4.844  64.002  -1.913  1.00  0.00     0.249 C 
BRANCH  22  25
HETATM   25  N2  UNL     1       5.588  61.346   0.467  1.00  0.00    -0.350 N 
HETATM   26  C5  UNL     1       6.008  61.253   1.818  1.00  0.00     0.259 C 
HETATM   27  O2  UNL     1       6.243  62.276   2.511  1.00  0.00    -0.267 OA
ATOM     28  H2  UNL     1       5.400  60.509  -0.085  1.00  0.00     0.163 HD
BRANCH  26  29
HETATM   29  C6  UNL     1       6.188  59.929   2.466  1.00  0.00     0.074 A 
HETATM   30  C7  UNL     1       7.199  59.547   3.309  1.00  0.00     0.027 A 
HETATM   31  C8  UNL     1       7.163  58.297   3.781  1.00  0.00     0.033 A 
HETATM   32  C9  UNL     1       6.124  57.503   3.384  1.00  0.00     0.075 A 
HETATM   33 CL1  UNL     1       5.816  55.816   3.844  1.00  0.00    -0.076 Cl
HETATM   34  S1  UNL     1       5.224  58.529   2.362  1.00  0.00    -0.072 SA
ENDBRANCH  26  29
ENDBRANCH  22  25
BRANCH  24  35
HETATM   35  C12 UNL     1       3.826  65.000  -1.467  1.00  0.00     0.200 C 
BRANCH  35  36
HETATM   36  O3  UNL     1       2.578  64.338  -1.487  1.00  0.00    -0.399 OA
ATOM     37  H3  UNL     1       2.053  64.770  -2.151  1.00  0.00     0.209 HD
ENDBRANCH  35  36
ENDBRANCH  24  35
ENDBRANCH   1  20
TORSDOF 8
ENDMDL
