MODEL 5
REMARK VINA RESULT: -8.912341978      1.182      1.555
REMARK  8 active torsions:
REMARK  status: ('A' for Active; 'I' for Inactive)
REMARK    1  A    between atoms: C1_2  and  C2_3 
REMARK       I    between atoms: C1_2  and  N3_22 
REMARK    2  A    between atoms: C2_3  and  N1_4 
REMARK    3  A    between atoms: C4_6  and  N2_7 
REMARK       I    between atoms: N2_7  and  C5_9 
REMARK    4  A    between atoms: C5_9  and  C6_11 
REMARK    5  A    between atoms: C11_18  and  C12_19 
REMARK    6  A    between atoms: C12_19  and  O3_20 
REMARK    7  A    between atoms: N3_22  and  C13_24 
REMARK    8  A    between atoms: C16_27  and  N4_28 
ROOT
HETATM    1  C2  UNL     1       8.239  67.280   1.977  1.00  0.00     0.375 C 
ENDROOT
BRANCH   1   2
HETATM    2  C1  UNL     1       7.399  66.030   1.935  1.00  0.00     0.250 C 
HETATM    3  O1  UNL     1       6.176  66.172   1.793  1.00  0.00    -0.271 OA
HETATM    4  N3  UNL     1       7.989  64.761   2.053  1.00  0.00    -0.323 N 
ATOM      5  H3  UNL     1       9.003  64.736   2.166  1.00  0.00     0.169 HD
BRANCH   4   6
HETATM    6  C13 UNL     1       7.320  63.511   2.030  1.00  0.00     0.073 A 
HETATM    7  C14 UNL     1       7.359  62.664   0.962  1.00  0.00     0.035 A 
HETATM    8  C15 UNL     1       6.660  61.450   1.046  1.00  0.00     0.032 A 
HETATM    9  C16 UNL     1       5.957  61.131   2.181  1.00  0.00     0.045 A 
HETATM   10  C22 UNL     1       5.909  61.974   3.263  1.00  0.00     0.074 A 
HETATM   11  C23 UNL     1       6.591  63.156   3.178  1.00  0.00     0.145 A 
HETATM   12  F1  UNL     1       6.565  64.013   4.231  1.00  0.00    -0.204 F 
BRANCH   9  13
HETATM   13  N4  UNL     1       5.266  59.875   2.200  1.00  0.00    -0.290 N 
HETATM   14  C17 UNL     1       5.897  58.742   2.567  1.00  0.00     0.100 A 
HETATM   15  C18 UNL     1       5.157  57.566   2.560  1.00  0.00     0.018 A 
HETATM   16  C19 UNL     1       3.833  57.558   2.191  1.00  0.00     0.007 A 
HETATM   17  C20 UNL     1       3.201  58.726   1.818  1.00  0.00     0.075 A 
HETATM   18  C21 UNL     1       3.976  59.885   1.838  1.00  0.00     0.252 A 
HETATM   19  O4  UNL     1       3.405  60.953   1.498  1.00  0.00    -0.268 OA
ENDBRANCH   9  13
ENDBRANCH   4   6
ENDBRANCH   1   2
BRANCH   1  20
HETATM   20  N1  UNL     1       8.428  67.737   3.315  1.00  0.00     0.106 N 
HETATM   21  C3  UNL     1       9.084  66.664   4.056  1.00  0.00     0.298 C 
HETATM   22  C4  UNL     1      10.538  67.073   3.941  1.00  0.00     0.115 C 
HETATM   23  C10 UNL     1      10.430  68.557   4.304  1.00  0.00     0.065 C 
HETATM   24  C11 UNL     1       9.198  68.922   3.478  1.00  0.00     0.249 C 
BRANCH  22  25
HETATM   25  N2  UNL     1      11.379  66.357   4.869  1.00  0.00    -0.350 N 
HETATM   26  C5  UNL     1      12.743  66.180   4.522  1.00  0.00     0.259 C 
HETATM   27  O2  UNL     1      13.217  66.627   3.446  1.00  0.00    -0.267 OA
ATOM     28  H2  UNL     1      11.006  65.991   5.745  1.00  0.00     0.163 HD
BRANCH  26  29
HETATM   29  C6  UNL     1      13.667  65.454   5.429  1.00  0.00     0.074 A 
HETATM   30  C7  UNL     1      13.737  65.549   6.794  1.00  0.00     0.027 A 
HETATM   31  C8  UNL     1      14.652  64.797   7.414  1.00  0.00     0.033 A 
HETATM   32  C9  UNL     1      15.442  63.997   6.638  1.00  0.00     0.075 A 
HETATM   33 CL1  UNL     1      16.729  62.899   7.176  1.00  0.00    -0.076 Cl
HETATM   34  S1  UNL     1      14.881  64.318   5.059  1.00  0.00    -0.072 SA
ENDBRANCH  26  29
ENDBRANCH  22  25
BRANCH  24  35
HETATM   35  C12 UNL     1       9.683  69.568   2.221  1.00  0.00     0.200 C 
BRANCH  35  36
HETATM   36  O3  UNL     1       9.025  70.815   2.128  1.00  0.00    -0.399 OA
ATOM     37  H3  UNL     1       9.694  71.461   1.936  1.00  0.00     0.209 HD
ENDBRANCH  35  36
ENDBRANCH  24  35
ENDBRANCH   1  20
TORSDOF 8
ENDMDL
