MODEL 7
REMARK VINA RESULT: -8.292067693      4.645      6.122
REMARK  8 active torsions:
REMARK  status: ('A' for Active; 'I' for Inactive)
REMARK    1  A    between atoms: C1_2  and  C2_3 
REMARK       I    between atoms: C1_2  and  N3_22 
REMARK    2  A    between atoms: C2_3  and  N1_4 
REMARK    3  A    between atoms: C4_6  and  N2_7 
REMARK       I    between atoms: N2_7  and  C5_9 
REMARK    4  A    between atoms: C5_9  and  C6_11 
REMARK    5  A    between atoms: C11_18  and  C12_19 
REMARK    6  A    between atoms: C12_19  and  O3_20 
REMARK    7  A    between atoms: N3_22  and  C13_24 
REMARK    8  A    between atoms: C16_27  and  N4_28 
ROOT
HETATM    1  C2  UNL     1       9.240  66.479   2.394  1.00  0.00     0.375 C 
ENDROOT
BRANCH   1   2
HETATM    2  C1  UNL     1       8.757  65.066   2.197  1.00  0.00     0.250 C 
HETATM    3  O1  UNL     1       8.516  64.704   1.036  1.00  0.00    -0.271 OA
HETATM    4  N3  UNL     1       8.590  64.202   3.291  1.00  0.00    -0.323 N 
ATOM      5  H3  UNL     1       8.812  64.581   4.212  1.00  0.00     0.169 HD
BRANCH   4   6
HETATM    6  C13 UNL     1       8.146  62.855   3.248  1.00  0.00     0.073 A 
HETATM    7  C14 UNL     1       8.658  61.929   2.389  1.00  0.00     0.035 A 
HETATM    8  C15 UNL     1       8.145  60.623   2.430  1.00  0.00     0.032 A 
HETATM    9  C16 UNL     1       7.150  60.296   3.319  1.00  0.00     0.045 A 
HETATM   10  C22 UNL     1       6.626  61.219   4.188  1.00  0.00     0.074 A 
HETATM   11  C23 UNL     1       7.128  62.490   4.146  1.00  0.00     0.145 A 
HETATM   12  F1  UNL     1       6.632  63.428   4.993  1.00  0.00    -0.204 F 
BRANCH   9  13
HETATM   13  N4  UNL     1       6.672  58.945   3.309  1.00  0.00    -0.290 N 
HETATM   14  C17 UNL     1       7.293  57.985   4.021  1.00  0.00     0.100 A 
HETATM   15  C18 UNL     1       6.767  56.700   3.958  1.00  0.00     0.018 A 
HETATM   16  C19 UNL     1       5.656  56.420   3.199  1.00  0.00     0.007 A 
HETATM   17  C20 UNL     1       5.032  57.414   2.475  1.00  0.00     0.075 A 
HETATM   18  C21 UNL     1       5.588  58.689   2.563  1.00  0.00     0.252 A 
HETATM   19  O4  UNL     1       5.023  59.600   1.905  1.00  0.00    -0.268 OA
ENDBRANCH   9  13
ENDBRANCH   4   6
ENDBRANCH   1   2
BRANCH   1  20
HETATM   20  N1  UNL     1       8.309  67.425   1.871  1.00  0.00     0.106 N 
HETATM   21  C3  UNL     1       7.014  67.153   2.487  1.00  0.00     0.298 C 
HETATM   22  C4  UNL     1       7.028  68.131   3.644  1.00  0.00     0.115 C 
HETATM   23  C10 UNL     1       7.494  69.397   2.922  1.00  0.00     0.065 C 
HETATM   24  C11 UNL     1       8.618  68.799   2.078  1.00  0.00     0.249 C 
BRANCH  22  25
HETATM   25  N2  UNL     1       5.719  68.301   4.228  1.00  0.00    -0.350 N 
HETATM   26  C5  UNL     1       5.321  67.385   5.234  1.00  0.00     0.259 C 
HETATM   27  O2  UNL     1       6.073  66.451   5.615  1.00  0.00    -0.267 OA
ATOM     28  H2  UNL     1       5.101  69.055   3.926  1.00  0.00     0.163 HD
BRANCH  26  29
HETATM   29  C6  UNL     1       3.988  67.500   5.878  1.00  0.00     0.074 A 
HETATM   30  C7  UNL     1       3.129  68.566   5.825  1.00  0.00     0.027 A 
HETATM   31  C8  UNL     1       1.972  68.453   6.484  1.00  0.00     0.033 A 
HETATM   32  C9  UNL     1       1.741  67.287   7.158  1.00  0.00     0.075 A 
HETATM   33 CL1  UNL     1       0.308  66.855   8.113  1.00  0.00    -0.076 Cl
HETATM   34  S1  UNL     1       3.151  66.378   6.849  1.00  0.00    -0.072 SA
ENDBRANCH  26  29
ENDBRANCH  22  25
BRANCH  24  35
HETATM   35  C12 UNL     1       9.903  69.084   2.786  1.00  0.00     0.200 C 
BRANCH  35  36
HETATM   36  O3  UNL     1      10.038  70.490   2.823  1.00  0.00    -0.399 OA
ATOM     37  H3  UNL     1      10.004  70.741   3.739  1.00  0.00     0.209 HD
ENDBRANCH  35  36
ENDBRANCH  24  35
ENDBRANCH   1  20
TORSDOF 8
ENDMDL
