MODEL 2
REMARK VINA RESULT: -9.971037907      0.795      1.143
REMARK  8 active torsions:
REMARK  status: ('A' for Active; 'I' for Inactive)
REMARK    1  A    between atoms: C1_2  and  C2_3 
REMARK       I    between atoms: C1_2  and  N3_22 
REMARK    2  A    between atoms: C2_3  and  N1_4 
REMARK    3  A    between atoms: C4_6  and  N2_7 
REMARK       I    between atoms: N2_7  and  C5_9 
REMARK    4  A    between atoms: C5_9  and  C6_11 
REMARK    5  A    between atoms: C11_18  and  C12_19 
REMARK    6  A    between atoms: C12_19  and  O3_20 
REMARK    7  A    between atoms: N3_22  and  C13_24 
REMARK    8  A    between atoms: C16_27  and  N4_28 
ROOT
HETATM    1  C2  UNL     1       8.184  67.256   1.992  1.00  0.00     0.375 C 
ENDROOT
BRANCH   1   2
HETATM    2  C1  UNL     1       7.640  65.852   2.016  1.00  0.00     0.250 C 
HETATM    3  O1  UNL     1       6.497  65.677   1.569  1.00  0.00    -0.271 OA
HETATM    4  N3  UNL     1       8.405  64.791   2.526  1.00  0.00    -0.323 N 
ATOM      5  H3  UNL     1       9.336  65.023   2.874  1.00  0.00     0.169 HD
BRANCH   4   6
HETATM    6  C13 UNL     1       8.017  63.429   2.609  1.00  0.00     0.073 A 
HETATM    7  C14 UNL     1       8.417  62.485   1.710  1.00  0.00     0.035 A 
HETATM    8  C15 UNL     1       7.974  61.164   1.886  1.00  0.00     0.032 A 
HETATM    9  C16 UNL     1       7.157  60.841   2.941  1.00  0.00     0.045 A 
HETATM   10  C22 UNL     1       6.748  61.782   3.852  1.00  0.00     0.074 A 
HETATM   11  C23 UNL     1       7.181  63.067   3.678  1.00  0.00     0.145 A 
HETATM   12  F1  UNL     1       6.794  64.022   4.563  1.00  0.00    -0.204 F 
BRANCH   9  13
HETATM   13  N4  UNL     1       6.742  59.475   3.062  1.00  0.00    -0.290 N 
HETATM   14  C17 UNL     1       7.502  58.575   3.717  1.00  0.00     0.100 A 
HETATM   15  C18 UNL     1       7.028  57.270   3.790  1.00  0.00     0.018 A 
HETATM   16  C19 UNL     1       5.833  56.911   3.216  1.00  0.00     0.007 A 
HETATM   17  C20 UNL     1       5.066  57.845   2.548  1.00  0.00     0.075 A 
HETATM   18  C21 UNL     1       5.574  59.142   2.497  1.00  0.00     0.252 A 
HETATM   19  O4  UNL     1       4.880  59.997   1.888  1.00  0.00    -0.268 OA
ENDBRANCH   9  13
ENDBRANCH   4   6
ENDBRANCH   1   2
BRANCH   1  20
HETATM   20  N1  UNL     1       8.395  67.756   3.311  1.00  0.00     0.106 N 
HETATM   21  C3  UNL     1       9.052  66.703   4.079  1.00  0.00     0.298 C 
HETATM   22  C4  UNL     1      10.507  67.095   3.931  1.00  0.00     0.115 C 
HETATM   23  C10 UNL     1      10.418  68.590   4.244  1.00  0.00     0.065 C 
HETATM   24  C11 UNL     1       9.178  68.939   3.422  1.00  0.00     0.249 C 
BRANCH  22  25
HETATM   25  N2  UNL     1      11.355  66.403   4.871  1.00  0.00    -0.350 N 
HETATM   26  C5  UNL     1      12.705  66.175   4.501  1.00  0.00     0.259 C 
HETATM   27  O2  UNL     1      13.161  66.559   3.393  1.00  0.00    -0.267 OA
ATOM     28  H2  UNL     1      10.995  66.087   5.773  1.00  0.00     0.163 HD
BRANCH  26  29
HETATM   29  C6  UNL     1      13.634  65.470   5.419  1.00  0.00     0.074 A 
HETATM   30  C7  UNL     1      13.678  65.559   6.786  1.00  0.00     0.027 A 
HETATM   31  C8  UNL     1      14.604  64.829   7.417  1.00  0.00     0.033 A 
HETATM   32  C9  UNL     1      15.429  64.056   6.649  1.00  0.00     0.075 A 
HETATM   33 CL1  UNL     1      16.738  62.992   7.203  1.00  0.00    -0.076 Cl
HETATM   34  S1  UNL     1      14.886  64.371   5.064  1.00  0.00    -0.072 SA
ENDBRANCH  26  29
ENDBRANCH  22  25
BRANCH  24  35
HETATM   35  C12 UNL     1       9.653  69.537   2.137  1.00  0.00     0.200 C 
BRANCH  35  36
HETATM   36  O3  UNL     1       8.967  70.763   1.987  1.00  0.00    -0.399 OA
ATOM     37  H3  UNL     1       9.622  71.414   1.763  1.00  0.00     0.209 HD
ENDBRANCH  35  36
ENDBRANCH  24  35
ENDBRANCH   1  20
TORSDOF 8
ENDMDL
