MODEL 4
REMARK VINA RESULT: -9.633995400      1.115      1.604
REMARK  8 active torsions:
REMARK  status: ('A' for Active; 'I' for Inactive)
REMARK    1  A    between atoms: C1_2  and  C2_3 
REMARK       I    between atoms: C1_2  and  N3_22 
REMARK    2  A    between atoms: C2_3  and  N1_4 
REMARK    3  A    between atoms: C4_6  and  N2_7 
REMARK       I    between atoms: N2_7  and  C5_9 
REMARK    4  A    between atoms: C5_9  and  C6_11 
REMARK    5  A    between atoms: C11_18  and  C12_19 
REMARK    6  A    between atoms: C12_19  and  O3_20 
REMARK    7  A    between atoms: N3_22  and  C13_24 
REMARK    8  A    between atoms: C16_27  and  N4_28 
ROOT
HETATM    1  C2  UNL     1       8.207  67.409   1.979  1.00  0.00     0.375 C 
ENDROOT
BRANCH   1   2
HETATM    2  C1  UNL     1       7.492  66.082   1.955  1.00  0.00     0.250 C 
HETATM    3  O1  UNL     1       6.280  66.095   1.696  1.00  0.00    -0.271 OA
HETATM    4  N3  UNL     1       8.181  64.887   2.216  1.00  0.00    -0.323 N 
ATOM      5  H3  UNL     1       9.178  64.969   2.419  1.00  0.00     0.169 HD
BRANCH   4   6
HETATM    6  C13 UNL     1       7.634  63.578   2.225  1.00  0.00     0.073 A 
HETATM    7  C14 UNL     1       7.675  62.746   1.146  1.00  0.00     0.035 A 
HETATM    8  C15 UNL     1       7.102  61.470   1.264  1.00  0.00     0.032 A 
HETATM    9  C16 UNL     1       6.518  61.078   2.443  1.00  0.00     0.045 A 
HETATM   10  C22 UNL     1       6.471  61.906   3.537  1.00  0.00     0.074 A 
HETATM   11  C23 UNL     1       7.029  63.148   3.418  1.00  0.00     0.145 A 
HETATM   12  F1  UNL     1       7.000  63.992   4.482  1.00  0.00    -0.204 F 
BRANCH   9  13
HETATM   13  N4  UNL     1       5.953  59.762   2.496  1.00  0.00    -0.290 N 
HETATM   14  C17 UNL     1       4.708  59.523   2.037  1.00  0.00     0.100 A 
HETATM   15  C18 UNL     1       4.234  58.220   2.124  1.00  0.00     0.018 A 
HETATM   16  C19 UNL     1       5.003  57.213   2.657  1.00  0.00     0.007 A 
HETATM   17  C20 UNL     1       6.276  57.474   3.122  1.00  0.00     0.075 A 
HETATM   18  C21 UNL     1       6.717  58.792   3.019  1.00  0.00     0.252 A 
HETATM   19  O4  UNL     1       7.876  59.036   3.442  1.00  0.00    -0.268 OA
ENDBRANCH   9  13
ENDBRANCH   4   6
ENDBRANCH   1   2
BRANCH   1  20
HETATM   20  N1  UNL     1       8.401  67.871   3.315  1.00  0.00     0.106 N 
HETATM   21  C3  UNL     1       9.059  66.800   4.058  1.00  0.00     0.298 C 
HETATM   22  C4  UNL     1      10.512  67.207   3.936  1.00  0.00     0.115 C 
HETATM   23  C10 UNL     1      10.409  68.692   4.292  1.00  0.00     0.065 C 
HETATM   24  C11 UNL     1       9.174  69.056   3.469  1.00  0.00     0.249 C 
BRANCH  22  25
HETATM   25  N2  UNL     1      11.357  66.494   4.864  1.00  0.00    -0.350 N 
HETATM   26  C5  UNL     1      12.695  66.236   4.474  1.00  0.00     0.259 C 
HETATM   27  O2  UNL     1      13.145  66.610   3.361  1.00  0.00    -0.267 OA
ATOM     28  H2  UNL     1      11.002  66.186   5.770  1.00  0.00     0.163 HD
BRANCH  26  29
HETATM   29  C6  UNL     1      13.620  65.507   5.379  1.00  0.00     0.074 A 
HETATM   30  C7  UNL     1      13.679  65.587   6.746  1.00  0.00     0.027 A 
HETATM   31  C8  UNL     1      14.597  64.836   7.363  1.00  0.00     0.033 A 
HETATM   32  C9  UNL     1      15.401  64.054   6.583  1.00  0.00     0.075 A 
HETATM   33 CL1  UNL     1      16.695  62.963   7.117  1.00  0.00    -0.076 Cl
HETATM   34  S1  UNL     1      14.849  64.389   5.004  1.00  0.00    -0.072 SA
ENDBRANCH  26  29
ENDBRANCH  22  25
BRANCH  24  35
HETATM   35  C12 UNL     1       9.655  69.695   2.207  1.00  0.00     0.200 C 
BRANCH  35  36
HETATM   36  O3  UNL     1       8.985  70.935   2.102  1.00  0.00    -0.399 OA
ATOM     37  H3  UNL     1       9.120  71.241   1.213  1.00  0.00     0.209 HD
ENDBRANCH  35  36
ENDBRANCH  24  35
ENDBRANCH   1  20
TORSDOF 8
ENDMDL
