MODEL 1
REMARK VINA RESULT: -9.973052356      0.000      0.000
REMARK  8 active torsions:
REMARK  status: ('A' for Active; 'I' for Inactive)
REMARK    1  A    between atoms: C1_2  and  C2_3 
REMARK       I    between atoms: C1_2  and  N3_22 
REMARK    2  A    between atoms: C2_3  and  N1_4 
REMARK    3  A    between atoms: C4_6  and  N2_7 
REMARK       I    between atoms: N2_7  and  C5_9 
REMARK    4  A    between atoms: C5_9  and  C6_11 
REMARK    5  A    between atoms: C11_18  and  C12_19 
REMARK    6  A    between atoms: C12_19  and  O3_20 
REMARK    7  A    between atoms: N3_22  and  C13_24 
REMARK    8  A    between atoms: C16_27  and  N4_28 
ROOT
HETATM    1  C2  UNL     1       8.140  67.132   2.057  1.00  0.00     0.375 C 
ENDROOT
BRANCH   1   2
HETATM    2  C1  UNL     1       7.541  65.754   2.169  1.00  0.00     0.250 C 
HETATM    3  O1  UNL     1       6.359  65.618   1.822  1.00  0.00    -0.271 OA
HETATM    4  N3  UNL     1       8.301  64.675   2.649  1.00  0.00    -0.323 N 
ATOM      5  H3  UNL     1       9.266  64.875   2.912  1.00  0.00     0.169 HD
BRANCH   4   6
HETATM    6  C13 UNL     1       7.864  63.334   2.805  1.00  0.00     0.073 A 
HETATM    7  C14 UNL     1       7.016  62.938   3.796  1.00  0.00     0.035 A 
HETATM    8  C15 UNL     1       6.647  61.584   3.859  1.00  0.00     0.032 A 
HETATM    9  C16 UNL     1       7.134  60.689   2.939  1.00  0.00     0.045 A 
HETATM   10  C22 UNL     1       7.988  61.076   1.936  1.00  0.00     0.074 A 
HETATM   11  C23 UNL     1       8.345  62.394   1.878  1.00  0.00     0.145 A 
HETATM   12  F1  UNL     1       9.188  62.810   0.898  1.00  0.00    -0.204 F 
BRANCH   9  13
HETATM   13  N4  UNL     1       6.717  59.323   3.060  1.00  0.00    -0.290 N 
HETATM   14  C17 UNL     1       7.464  58.428   3.736  1.00  0.00     0.100 A 
HETATM   15  C18 UNL     1       6.990  57.124   3.808  1.00  0.00     0.018 A 
HETATM   16  C19 UNL     1       5.806  56.760   3.212  1.00  0.00     0.007 A 
HETATM   17  C20 UNL     1       5.053  57.689   2.524  1.00  0.00     0.075 A 
HETATM   18  C21 UNL     1       5.560  58.986   2.474  1.00  0.00     0.252 A 
HETATM   19  O4  UNL     1       4.878  59.837   1.847  1.00  0.00    -0.268 OA
ENDBRANCH   9  13
ENDBRANCH   4   6
ENDBRANCH   1   2
BRANCH   1  20
HETATM   20  N1  UNL     1       8.396  67.695   3.342  1.00  0.00     0.106 N 
HETATM   21  C3  UNL     1       9.062  66.674   4.145  1.00  0.00     0.298 C 
HETATM   22  C4  UNL     1      10.517  67.039   3.935  1.00  0.00     0.115 C 
HETATM   23  C10 UNL     1      10.454  68.549   4.173  1.00  0.00     0.065 C 
HETATM   24  C11 UNL     1       9.195  68.872   3.370  1.00  0.00     0.249 C 
BRANCH  22  25
HETATM   25  N2  UNL     1      11.384  66.385   4.885  1.00  0.00    -0.350 N 
HETATM   26  C5  UNL     1      12.715  66.110   4.483  1.00  0.00     0.259 C 
HETATM   27  O2  UNL     1      13.141  66.420   3.341  1.00  0.00    -0.267 OA
ATOM     28  H2  UNL     1      11.050  66.129   5.814  1.00  0.00     0.163 HD
BRANCH  26  29
HETATM   29  C6  UNL     1      13.663  65.439   5.409  1.00  0.00     0.074 A 
HETATM   30  C7  UNL     1      13.741  65.588   6.769  1.00  0.00     0.027 A 
HETATM   31  C8  UNL     1      14.677  64.880   7.409  1.00  0.00     0.033 A 
HETATM   32  C9  UNL     1      15.479  64.069   6.657  1.00  0.00     0.075 A 
HETATM   33 CL1  UNL     1      16.795  63.022   7.226  1.00  0.00    -0.076 Cl
HETATM   34  S1  UNL     1      14.900  64.317   5.073  1.00  0.00    -0.072 SA
ENDBRANCH  26  29
ENDBRANCH  22  25
BRANCH  24  35
HETATM   35  C12 UNL     1       9.638  69.398   2.044  1.00  0.00     0.200 C 
BRANCH  35  36
HETATM   36  O3  UNL     1       9.285  70.766   2.014  1.00  0.00    -0.399 OA
ATOM     37  H3  UNL     1      10.046  71.234   1.691  1.00  0.00     0.209 HD
ENDBRANCH  35  36
ENDBRANCH  24  35
ENDBRANCH   1  20
TORSDOF 8
ENDMDL
