MODEL 9
REMARK VINA RESULT: -8.271282214      4.690      6.710
REMARK  8 active torsions:
REMARK  status: ('A' for Active; 'I' for Inactive)
REMARK    1  A    between atoms: C1_2  and  C2_3 
REMARK       I    between atoms: C1_2  and  N3_22 
REMARK    2  A    between atoms: C2_3  and  N1_4 
REMARK    3  A    between atoms: C4_6  and  N2_7 
REMARK       I    between atoms: N2_7  and  C5_9 
REMARK    4  A    between atoms: C5_9  and  C6_11 
REMARK    5  A    between atoms: C11_18  and  C12_19 
REMARK    6  A    between atoms: C12_19  and  O3_20 
REMARK    7  A    between atoms: N3_22  and  C13_24 
REMARK    8  A    between atoms: C16_27  and  N4_28 
ROOT
HETATM    1  C2  UNL     1       7.510  66.991   3.997  1.00  0.00     0.375 C 
ENDROOT
BRANCH   1   2
HETATM    2  C1  UNL     1       6.995  65.576   4.028  1.00  0.00     0.250 C 
HETATM    3  O1  UNL     1       5.811  65.409   4.355  1.00  0.00    -0.271 OA
HETATM    4  N3  UNL     1       7.830  64.497   3.697  1.00  0.00    -0.323 N 
ATOM      5  H3  UNL     1       8.791  64.724   3.438  1.00  0.00     0.169 HD
BRANCH   4   6
HETATM    6  C13 UNL     1       7.475  63.123   3.685  1.00  0.00     0.073 A 
HETATM    7  C14 UNL     1       6.666  62.555   4.622  1.00  0.00     0.035 A 
HETATM    8  C15 UNL     1       6.379  61.185   4.516  1.00  0.00     0.032 A 
HETATM    9  C16 UNL     1       6.906  60.444   3.487  1.00  0.00     0.045 A 
HETATM   10  C22 UNL     1       7.722  61.004   2.537  1.00  0.00     0.074 A 
HETATM   11  C23 UNL     1       7.999  62.338   2.644  1.00  0.00     0.145 A 
HETATM   12  F1  UNL     1       8.804  62.924   1.719  1.00  0.00    -0.204 F 
BRANCH   9  13
HETATM   13  N4  UNL     1       6.572  59.051   3.437  1.00  0.00    -0.290 N 
HETATM   14  C17 UNL     1       7.339  58.132   4.056  1.00  0.00     0.100 A 
HETATM   15  C18 UNL     1       6.947  56.802   3.961  1.00  0.00     0.018 A 
HETATM   16  C19 UNL     1       5.822  56.438   3.262  1.00  0.00     0.007 A 
HETATM   17  C20 UNL     1       5.047  57.391   2.633  1.00  0.00     0.075 A 
HETATM   18  C21 UNL     1       5.471  58.713   2.752  1.00  0.00     0.252 A 
HETATM   19  O4  UNL     1       4.769  59.586   2.180  1.00  0.00    -0.268 OA
ENDBRANCH   9  13
ENDBRANCH   4   6
ENDBRANCH   1   2
BRANCH   1  20
HETATM   20  N1  UNL     1       8.269  67.244   2.815  1.00  0.00     0.106 N 
HETATM   21  C3  UNL     1       7.544  68.239   2.032  1.00  0.00     0.298 C 
HETATM   22  C4  UNL     1       8.222  69.517   2.481  1.00  0.00     0.115 C 
HETATM   23  C10 UNL     1       9.690  69.098   2.368  1.00  0.00     0.065 C 
HETATM   24  C11 UNL     1       9.599  67.712   3.005  1.00  0.00     0.249 C 
BRANCH  22  25
HETATM   25  N2  UNL     1       7.917  70.628   1.613  1.00  0.00    -0.350 N 
HETATM   26  C5  UNL     1       7.234  71.737   2.174  1.00  0.00     0.259 C 
HETATM   27  O2  UNL     1       6.900  71.764   3.387  1.00  0.00    -0.267 OA
ATOM     28  H2  UNL     1       8.183  70.617   0.628  1.00  0.00     0.163 HD
BRANCH  26  29
HETATM   29  C6  UNL     1       6.887  72.915   1.340  1.00  0.00     0.074 A 
HETATM   30  C7  UNL     1       6.864  74.229   1.728  1.00  0.00     0.027 A 
HETATM   31  C8  UNL     1       6.520  75.133   0.805  1.00  0.00     0.033 A 
HETATM   32  C9  UNL     1       6.218  74.674  -0.446  1.00  0.00     0.075 A 
HETATM   33 CL1  UNL     1       5.734  75.631  -1.861  1.00  0.00    -0.076 Cl
HETATM   34  S1  UNL     1       6.427  72.988  -0.298  1.00  0.00    -0.072 SA
ENDBRANCH  26  29
ENDBRANCH  22  25
BRANCH  24  35
HETATM   35  C12 UNL     1      10.053  67.847   4.423  1.00  0.00     0.200 C 
BRANCH  35  36
HETATM   36  O3  UNL     1      10.644  66.613   4.774  1.00  0.00    -0.399 OA
ATOM     37  H3  UNL     1      11.544  66.802   5.012  1.00  0.00     0.209 HD
ENDBRANCH  35  36
ENDBRANCH  24  35
ENDBRANCH   1  20
TORSDOF 8
ENDMDL
