MODEL 3
REMARK VINA RESULT: -9.649525477      0.861      1.186
REMARK  8 active torsions:
REMARK  status: ('A' for Active; 'I' for Inactive)
REMARK    1  A    between atoms: C1_2  and  C2_3 
REMARK       I    between atoms: C1_2  and  N3_22 
REMARK    2  A    between atoms: C2_3  and  N1_4 
REMARK    3  A    between atoms: C4_6  and  N2_7 
REMARK       I    between atoms: N2_7  and  C5_9 
REMARK    4  A    between atoms: C5_9  and  C6_11 
REMARK    5  A    between atoms: C11_18  and  C12_19 
REMARK    6  A    between atoms: C12_19  and  O3_20 
REMARK    7  A    between atoms: N3_22  and  C13_24 
REMARK    8  A    between atoms: C16_27  and  N4_28 
ROOT
HETATM    1  C2  UNL     1       8.055  67.427   2.109  1.00  0.00     0.375 C 
ENDROOT
BRANCH   1   2
HETATM    2  C1  UNL     1       7.346  66.102   2.219  1.00  0.00     0.250 C 
HETATM    3  O1  UNL     1       6.107  66.117   2.192  1.00  0.00    -0.271 OA
HETATM    4  N3  UNL     1       8.070  64.906   2.346  1.00  0.00    -0.323 N 
ATOM      5  H3  UNL     1       9.087  64.985   2.359  1.00  0.00     0.169 HD
BRANCH   4   6
HETATM    6  C13 UNL     1       7.532  63.598   2.458  1.00  0.00     0.073 A 
HETATM    7  C14 UNL     1       7.019  63.100   3.619  1.00  0.00     0.035 A 
HETATM    8  C15 UNL     1       6.512  61.791   3.618  1.00  0.00     0.032 A 
HETATM    9  C16 UNL     1       6.535  61.038   2.471  1.00  0.00     0.045 A 
HETATM   10  C22 UNL     1       7.048  61.528   1.296  1.00  0.00     0.074 A 
HETATM   11  C23 UNL     1       7.541  62.803   1.299  1.00  0.00     0.145 A 
HETATM   12  F1  UNL     1       8.056  63.317   0.152  1.00  0.00    -0.204 F 
BRANCH   9  13
HETATM   13  N4  UNL     1       6.000  59.710   2.540  1.00  0.00    -0.290 N 
HETATM   14  C17 UNL     1       4.736  59.451   2.151  1.00  0.00     0.100 A 
HETATM   15  C18 UNL     1       4.293  58.137   2.248  1.00  0.00     0.018 A 
HETATM   16  C19 UNL     1       5.112  57.141   2.724  1.00  0.00     0.007 A 
HETATM   17  C20 UNL     1       6.404  57.423   3.119  1.00  0.00     0.075 A 
HETATM   18  C21 UNL     1       6.812  58.751   3.006  1.00  0.00     0.252 A 
HETATM   19  O4  UNL     1       7.988  59.014   3.365  1.00  0.00    -0.268 OA
ENDBRANCH   9  13
ENDBRANCH   4   6
ENDBRANCH   1   2
BRANCH   1  20
HETATM   20  N1  UNL     1       8.361  67.963   3.395  1.00  0.00     0.106 N 
HETATM   21  C3  UNL     1       9.001  66.905   4.171  1.00  0.00     0.298 C 
HETATM   22  C4  UNL     1      10.465  67.212   3.934  1.00  0.00     0.115 C 
HETATM   23  C10 UNL     1      10.470  68.721   4.192  1.00  0.00     0.065 C 
HETATM   24  C11 UNL     1       9.209  69.106   3.420  1.00  0.00     0.249 C 
BRANCH  22  25
HETATM   25  N2  UNL     1      11.324  66.511   4.857  1.00  0.00    -0.350 N 
HETATM   26  C5  UNL     1      12.652  66.237   4.445  1.00  0.00     0.259 C 
HETATM   27  O2  UNL     1      13.082  66.587   3.316  1.00  0.00    -0.267 OA
ATOM     28  H2  UNL     1      10.986  66.221   5.776  1.00  0.00     0.163 HD
BRANCH  26  29
HETATM   29  C6  UNL     1      13.591  65.518   5.344  1.00  0.00     0.074 A 
HETATM   30  C7  UNL     1      13.685  65.629   6.707  1.00  0.00     0.027 A 
HETATM   31  C8  UNL     1      14.610  64.883   7.319  1.00  0.00     0.033 A 
HETATM   32  C9  UNL     1      15.385  64.072   6.538  1.00  0.00     0.075 A 
HETATM   33 CL1  UNL     1      16.679  62.979   7.066  1.00  0.00    -0.076 Cl
HETATM   34  S1  UNL     1      14.797  64.376   4.966  1.00  0.00    -0.072 SA
ENDBRANCH  26  29
ENDBRANCH  22  25
BRANCH  24  35
HETATM   35  C12 UNL     1       9.645  69.629   2.091  1.00  0.00     0.200 C 
BRANCH  35  36
HETATM   36  O3  UNL     1       8.934  70.831   1.878  1.00  0.00    -0.399 OA
ATOM     37  H3  UNL     1       8.266  70.640   1.230  1.00  0.00     0.209 HD
ENDBRANCH  35  36
ENDBRANCH  24  35
ENDBRANCH   1  20
TORSDOF 8
ENDMDL
