MODEL 9
REMARK VINA RESULT: -7.653724061      4.942      8.952
REMARK  7 active torsions:
REMARK  status: ('A' for Active; 'I' for Inactive)
REMARK    1  A    between atoms: C1_2  and  C2_3 
REMARK       I    between atoms: C1_2  and  N3_21 
REMARK    2  A    between atoms: C2_3  and  N1_4 
REMARK    3  A    between atoms: C4_6  and  O2_7 
REMARK    4  A    between atoms: C5_9  and  N2_10 
REMARK       I    between atoms: N2_10  and  C6_12 
REMARK    5  A    between atoms: C6_12  and  C7_14 
REMARK    6  A    between atoms: N3_21  and  C12_23 
REMARK    7  A    between atoms: C15_26  and  N4_27 
ROOT
HETATM    1  O1  UNL     1       9.771  66.877   1.860  1.00  0.00    -0.271 OA
HETATM    2  C1  UNL     1       9.934  66.278   2.983  1.00  0.00     0.250 C 
HETATM    3  N3  UNL     1       9.031  66.560   4.005  1.00  0.00    -0.323 N 
ATOM      4  H3  UNL     1       9.180  66.071   4.888  1.00  0.00     0.169 HD
ENDROOT
BRANCH   2   5
HETATM    5  C2  UNL     1      11.058  65.363   3.055  1.00  0.00     0.375 C 
BRANCH   5   6
HETATM    6  N1  UNL     1      10.884  63.978   2.804  1.00  0.00     0.101 N 
HETATM    7  C3  UNL     1      11.659  63.471   1.692  1.00  0.00     0.306 C 
HETATM    8  C4  UNL     1      10.853  62.408   1.037  1.00  0.00     0.171 C 
HETATM    9  C5  UNL     1       9.517  62.472   1.626  1.00  0.00     0.143 C 
HETATM   10  C11 UNL     1       9.564  63.481   2.713  1.00  0.00     0.300 C 
BRANCH   8  11
HETATM   11  O2  UNL     1      10.777  62.706  -0.339  1.00  0.00    -0.392 OA
ATOM     12  H2  UNL     1      11.374  62.127  -0.798  1.00  0.00     0.210 HD
ENDBRANCH   8  11
BRANCH   9  13
HETATM   13  N2  UNL     1       8.964  61.203   2.050  1.00  0.00    -0.348 N 
HETATM   14  C6  UNL     1       7.594  60.887   2.055  1.00  0.00     0.259 C 
HETATM   15  O3  UNL     1       6.770  61.721   1.680  1.00  0.00    -0.267 OA
ATOM     16  H2  UNL     1       9.616  60.485   2.367  1.00  0.00     0.163 HD
BRANCH  14  17
HETATM   17  C7  UNL     1       7.165  59.553   2.512  1.00  0.00     0.074 A 
HETATM   18  C8  UNL     1       7.833  58.702   3.358  1.00  0.00     0.027 A 
HETATM   19  C9  UNL     1       7.252  57.532   3.639  1.00  0.00     0.033 A 
HETATM   20  C10 UNL     1       6.037  57.275   3.061  1.00  0.00     0.075 A 
HETATM   21 CL1  UNL     1       5.033  55.823   3.243  1.00  0.00    -0.076 Cl
HETATM   22  S1  UNL     1       5.746  58.679   2.142  1.00  0.00    -0.072 SA
ENDBRANCH  14  17
ENDBRANCH   9  13
ENDBRANCH   5   6
ENDBRANCH   2   5
BRANCH   3  23
HETATM   23  C12 UNL     1       7.920  67.453   3.957  1.00  0.00     0.073 A 
HETATM   24  C13 UNL     1       6.664  67.100   3.544  1.00  0.00     0.035 A 
HETATM   25  C14 UNL     1       5.606  68.025   3.517  1.00  0.00     0.032 A 
HETATM   26  C15 UNL     1       5.848  69.316   3.918  1.00  0.00     0.045 A 
HETATM   27  C21 UNL     1       7.102  69.724   4.346  1.00  0.00     0.074 A 
HETATM   28  C22 UNL     1       8.095  68.792   4.353  1.00  0.00     0.145 A 
HETATM   29  F1  UNL     1       9.322  69.168   4.766  1.00  0.00    -0.204 F 
BRANCH  26  30
HETATM   30  N4  UNL     1       4.768  70.239   3.887  1.00  0.00    -0.290 N 
HETATM   31  C16 UNL     1       4.650  71.048   2.831  1.00  0.00     0.100 A 
HETATM   32  C17 UNL     1       3.626  71.972   2.728  1.00  0.00     0.018 A 
HETATM   33  C18 UNL     1       2.695  72.066   3.747  1.00  0.00     0.007 A 
HETATM   34  C19 UNL     1       2.825  71.222   4.841  1.00  0.00     0.075 A 
HETATM   35  C20 UNL     1       3.869  70.328   4.872  1.00  0.00     0.252 A 
HETATM   36  O4  UNL     1       4.029  69.536   5.853  1.00  0.00    -0.268 OA
ENDBRANCH  26  30
ENDBRANCH   3  23
TORSDOF 7
ENDMDL
