MODEL 5
REMARK VINA RESULT: -7.860145704      4.788      9.836
REMARK  7 active torsions:
REMARK  status: ('A' for Active; 'I' for Inactive)
REMARK    1  A    between atoms: C1_2  and  C2_3 
REMARK       I    between atoms: C1_2  and  N3_21 
REMARK    2  A    between atoms: C2_3  and  N1_4 
REMARK    3  A    between atoms: C4_6  and  O2_7 
REMARK    4  A    between atoms: C5_9  and  N2_10 
REMARK       I    between atoms: N2_10  and  C6_12 
REMARK    5  A    between atoms: C6_12  and  C7_14 
REMARK    6  A    between atoms: N3_21  and  C12_23 
REMARK    7  A    between atoms: C15_26  and  N4_27 
ROOT
HETATM    1  O1  UNL     1      12.248  66.573   1.911  1.00  0.00    -0.271 OA
HETATM    2  C1  UNL     1      11.634  66.020   2.892  1.00  0.00     0.250 C 
HETATM    3  N3  UNL     1      10.533  66.686   3.425  1.00  0.00    -0.323 N 
ATOM      4  H3  UNL     1      10.060  66.228   4.204  1.00  0.00     0.169 HD
ENDROOT
BRANCH   2   5
HETATM    5  C2  UNL     1      12.167  64.746   3.336  1.00  0.00     0.375 C 
BRANCH   5   6
HETATM    6  N1  UNL     1      11.640  63.526   2.840  1.00  0.00     0.101 N 
HETATM    7  C3  UNL     1      12.116  63.163   1.523  1.00  0.00     0.306 C 
HETATM    8  C4  UNL     1      11.002  62.471   0.823  1.00  0.00     0.171 C 
HETATM    9  C5  UNL     1       9.811  62.652   1.651  1.00  0.00     0.143 C 
HETATM   10  C11 UNL     1      10.240  63.337   2.895  1.00  0.00     0.300 C 
BRANCH   8  11
HETATM   11  O2  UNL     1      10.811  63.103  -0.422  1.00  0.00    -0.392 OA
ATOM     12  H2  UNL     1      11.652  63.145  -0.861  1.00  0.00     0.210 HD
ENDBRANCH   8  11
BRANCH   9  13
HETATM   13  N2  UNL     1       9.038  61.453   1.898  1.00  0.00    -0.348 N 
HETATM   14  C6  UNL     1       7.671  61.433   2.222  1.00  0.00     0.259 C 
HETATM   15  O3  UNL     1       7.046  62.490   2.314  1.00  0.00    -0.267 OA
ATOM     16  H2  UNL     1       9.521  60.557   1.832  1.00  0.00     0.163 HD
BRANCH  14  17
HETATM   17  C7  UNL     1       7.003  60.139   2.449  1.00  0.00     0.074 A 
HETATM   18  C8  UNL     1       7.449  59.088   3.213  1.00  0.00     0.027 A 
HETATM   19  C9  UNL     1       6.675  58.002   3.277  1.00  0.00     0.033 A 
HETATM   20  C10 UNL     1       5.499  58.022   2.577  1.00  0.00     0.075 A 
HETATM   21 CL1  UNL     1       4.275  56.740   2.470  1.00  0.00    -0.076 Cl
HETATM   22  S1  UNL     1       5.513  59.561   1.849  1.00  0.00    -0.072 SA
ENDBRANCH  14  17
ENDBRANCH   9  13
ENDBRANCH   5   6
ENDBRANCH   2   5
BRANCH   3  23
HETATM   23  C12 UNL     1       9.992  67.937   3.005  1.00  0.00     0.073 A 
HETATM   24  C13 UNL     1      10.590  69.148   3.226  1.00  0.00     0.035 A 
HETATM   25  C14 UNL     1      10.009  70.351   2.790  1.00  0.00     0.032 A 
HETATM   26  C15 UNL     1       8.809  70.301   2.122  1.00  0.00     0.045 A 
HETATM   27  C21 UNL     1       8.163  69.100   1.872  1.00  0.00     0.074 A 
HETATM   28  C22 UNL     1       8.765  67.962   2.316  1.00  0.00     0.145 A 
HETATM   29  F1  UNL     1       8.154  66.783   2.083  1.00  0.00    -0.204 F 
BRANCH  26  30
HETATM   30  N4  UNL     1       8.235  71.526   1.686  1.00  0.00    -0.290 N 
HETATM   31  C16 UNL     1       8.223  71.795   0.378  1.00  0.00     0.100 A 
HETATM   32  C17 UNL     1       7.682  72.966  -0.123  1.00  0.00     0.018 A 
HETATM   33  C18 UNL     1       7.137  73.888   0.753  1.00  0.00     0.007 A 
HETATM   34  C19 UNL     1       7.154  73.600   2.110  1.00  0.00     0.075 A 
HETATM   35  C20 UNL     1       7.709  72.415   2.533  1.00  0.00     0.252 A 
HETATM   36  O4  UNL     1       7.747  72.109   3.766  1.00  0.00    -0.268 OA
ENDBRANCH  26  30
ENDBRANCH   3  23
TORSDOF 7
ENDMDL
