MODEL 7
REMARK VINA RESULT: -7.677636023      5.617      7.496
REMARK  7 active torsions:
REMARK  status: ('A' for Active; 'I' for Inactive)
REMARK    1  A    between atoms: C1_2  and  C2_3 
REMARK       I    between atoms: C1_2  and  N3_21 
REMARK    2  A    between atoms: C2_3  and  N1_4 
REMARK    3  A    between atoms: C4_6  and  O2_7 
REMARK    4  A    between atoms: C5_9  and  N2_10 
REMARK       I    between atoms: N2_10  and  C6_12 
REMARK    5  A    between atoms: C6_12  and  C7_14 
REMARK    6  A    between atoms: N3_21  and  C12_23 
REMARK    7  A    between atoms: C15_26  and  N4_27 
ROOT
HETATM    1  O1  UNL     1       6.845  64.934   2.560  1.00  0.00    -0.271 OA
HETATM    2  C1  UNL     1       8.079  65.029   2.897  1.00  0.00     0.250 C 
HETATM    3  N3  UNL     1       8.746  63.858   3.249  1.00  0.00    -0.323 N 
ATOM      4  H3  UNL     1       9.726  63.957   3.513  1.00  0.00     0.169 HD
ENDROOT
BRANCH   2   5
HETATM    5  C2  UNL     1       8.643  66.366   2.869  1.00  0.00     0.375 C 
BRANCH   5   6
HETATM    6  N1  UNL     1       7.901  67.455   2.345  1.00  0.00     0.101 N 
HETATM    7  C3  UNL     1       7.801  67.469   0.902  1.00  0.00     0.306 C 
HETATM    8  C4  UNL     1       7.798  68.891   0.470  1.00  0.00     0.171 C 
HETATM    9  C5  UNL     1       8.139  69.686   1.647  1.00  0.00     0.143 C 
HETATM   10  C11 UNL     1       8.220  68.755   2.799  1.00  0.00     0.300 C 
BRANCH   8  11
HETATM   11  O2  UNL     1       8.796  69.050  -0.513  1.00  0.00    -0.392 OA
ATOM     12  H2  UNL     1       8.701  69.916  -0.891  1.00  0.00     0.210 HD
ENDBRANCH   8  11
BRANCH   9  13
HETATM   13  N2  UNL     1       7.282  70.827   1.896  1.00  0.00    -0.348 N 
HETATM   14  C6  UNL     1       7.501  72.120   1.389  1.00  0.00     0.259 C 
HETATM   15  O3  UNL     1       8.481  72.343   0.678  1.00  0.00    -0.267 OA
ATOM     16  H2  UNL     1       6.459  70.682   2.482  1.00  0.00     0.163 HD
BRANCH  14  17
HETATM   17  C7  UNL     1       6.547  73.194   1.720  1.00  0.00     0.074 A 
HETATM   18  C8  UNL     1       6.834  74.480   2.105  1.00  0.00     0.027 A 
HETATM   19  C9  UNL     1       5.803  75.292   2.357  1.00  0.00     0.033 A 
HETATM   20  C10 UNL     1       4.543  74.775   2.214  1.00  0.00     0.075 A 
HETATM   21 CL1  UNL     1       2.994  75.601   2.477  1.00  0.00    -0.076 Cl
HETATM   22  S1  UNL     1       4.840  73.170   1.729  1.00  0.00    -0.072 SA
ENDBRANCH  14  17
ENDBRANCH   9  13
ENDBRANCH   5   6
ENDBRANCH   2   5
BRANCH   3  23
HETATM   23  C12 UNL     1       8.213  62.535   3.284  1.00  0.00     0.073 A 
HETATM   24  C13 UNL     1       7.361  62.073   4.250  1.00  0.00     0.035 A 
HETATM   25  C14 UNL     1       6.867  60.757   4.233  1.00  0.00     0.032 A 
HETATM   26  C15 UNL     1       7.254  59.920   3.216  1.00  0.00     0.045 A 
HETATM   27  C21 UNL     1       8.114  60.339   2.212  1.00  0.00     0.074 A 
HETATM   28  C22 UNL     1       8.567  61.623   2.273  1.00  0.00     0.145 A 
HETATM   29  F1  UNL     1       9.404  62.051   1.307  1.00  0.00    -0.204 F 
BRANCH  26  30
HETATM   30  N4  UNL     1       6.745  58.593   3.212  1.00  0.00    -0.290 N 
HETATM   31  C16 UNL     1       7.378  57.664   3.933  1.00  0.00     0.100 A 
HETATM   32  C17 UNL     1       6.943  56.352   3.979  1.00  0.00     0.018 A 
HETATM   33  C18 UNL     1       5.821  55.985   3.258  1.00  0.00     0.007 A 
HETATM   34  C19 UNL     1       5.169  56.956   2.510  1.00  0.00     0.075 A 
HETATM   35  C20 UNL     1       5.661  58.241   2.514  1.00  0.00     0.252 A 
HETATM   36  O4  UNL     1       5.098  59.163   1.845  1.00  0.00    -0.268 OA
ENDBRANCH  26  30
ENDBRANCH   3  23
TORSDOF 7
ENDMDL
