MODEL 3
REMARK VINA RESULT: -9.857350384      1.436      1.682
REMARK  6 active torsions:
REMARK  status: ('A' for Active; 'I' for Inactive)
REMARK    1  A    between atoms: C1_2  and  C2_3 
REMARK       I    between atoms: C1_2  and  N3_20 
REMARK    2  A    between atoms: C2_3  and  N1_4 
REMARK    3  A    between atoms: C5_8  and  N2_9 
REMARK       I    between atoms: N2_9  and  C6_11 
REMARK    4  A    between atoms: C6_11  and  C7_13 
REMARK    5  A    between atoms: N3_20  and  C12_22 
REMARK    6  A    between atoms: C15_25  and  N4_26 
ROOT
HETATM    1  O1  UNL     1       9.623  62.937   2.897  1.00  0.00    -0.267 OA
HETATM    2  C1  UNL     1       8.624  63.742   2.732  1.00  0.00     0.261 C 
HETATM    3  N3  UNL     1       7.356  63.145   2.901  1.00  0.00    -0.320 N 
ATOM      4  H3  UNL     1       6.555  63.764   2.775  1.00  0.00     0.169 HD
ENDROOT
BRANCH   2   5
HETATM    5  C2  UNL     1       8.940  65.124   2.401  1.00  0.00     0.160 C 
BRANCH   5   6
HETATM    6  N1  UNL     1       9.758  65.908   3.222  1.00  0.00    -0.381 N 
HETATM    7  C3  UNL     1       9.135  66.818   4.133  1.00  0.00     0.161 C 
HETATM    8  C4  UNL     1      10.059  67.993   4.302  1.00  0.00     0.212 C 
HETATM    9  F1  UNL     1       9.712  69.104   3.574  1.00  0.00    -0.245 F 
HETATM   10  C5  UNL     1      11.356  67.471   3.753  1.00  0.00     0.138 C 
HETATM   11  C11 UNL     1      10.883  66.572   2.633  1.00  0.00     0.150 C 
BRANCH  10  12
HETATM   12  N2  UNL     1      12.087  66.630   4.697  1.00  0.00    -0.347 N 
HETATM   13  C6  UNL     1      13.190  65.839   4.319  1.00  0.00     0.259 C 
HETATM   14  O2  UNL     1      13.563  65.852   3.128  1.00  0.00    -0.267 OA
ATOM     15  H2  UNL     1      11.786  66.615   5.671  1.00  0.00     0.163 HD
BRANCH  13  16
HETATM   16  C7  UNL     1      13.901  65.003   5.305  1.00  0.00     0.074 A 
HETATM   17  C8  UNL     1      13.791  64.985   6.658  1.00  0.00     0.027 A 
HETATM   18  C9  UNL     1      14.556  64.123   7.339  1.00  0.00     0.033 A 
HETATM   19  C10 UNL     1      15.396  63.322   6.608  1.00  0.00     0.075 A 
HETATM   20 CL1  UNL     1      16.525  62.090   7.203  1.00  0.00    -0.076 Cl
HETATM   21  S1  UNL     1      15.078  63.810   5.003  1.00  0.00    -0.072 SA
ENDBRANCH  13  16
ENDBRANCH  10  12
ENDBRANCH   5   6
ENDBRANCH   2   5
BRANCH   3  22
HETATM   22  C12 UNL     1       7.051  61.805   3.223  1.00  0.00     0.074 A 
HETATM   23  C13 UNL     1       6.811  61.303   4.473  1.00  0.00     0.035 A 
HETATM   24  C14 UNL     1       6.520  59.938   4.622  1.00  0.00     0.032 A 
HETATM   25  C15 UNL     1       6.467  59.072   3.552  1.00  0.00     0.045 A 
HETATM   26  C21 UNL     1       6.706  59.567   2.287  1.00  0.00     0.074 A 
HETATM   27  C22 UNL     1       6.989  60.898   2.155  1.00  0.00     0.145 A 
HETATM   28  F2  UNL     1       7.220  61.343   0.887  1.00  0.00    -0.204 F 
BRANCH  25  29
HETATM   29  N4  UNL     1       6.174  57.697   3.700  1.00  0.00    -0.290 N 
HETATM   30  C16 UNL     1       7.008  56.898   4.374  1.00  0.00     0.100 A 
HETATM   31  C17 UNL     1       6.753  55.555   4.536  1.00  0.00     0.018 A 
HETATM   32  C18 UNL     1       5.609  55.005   3.994  1.00  0.00     0.007 A 
HETATM   33  C19 UNL     1       4.779  55.873   3.305  1.00  0.00     0.075 A 
HETATM   34  C20 UNL     1       5.057  57.211   3.158  1.00  0.00     0.252 A 
HETATM   35  O3  UNL     1       4.234  57.922   2.510  1.00  0.00    -0.268 OA
ENDBRANCH  25  29
ENDBRANCH   3  22
TORSDOF 6
ENDMDL
