MODEL 4
REMARK VINA RESULT: -9.231174805      0.964      1.088
REMARK  6 active torsions:
REMARK  status: ('A' for Active; 'I' for Inactive)
REMARK    1  A    between atoms: C1_2  and  C2_3 
REMARK       I    between atoms: C1_2  and  N3_20 
REMARK    2  A    between atoms: C2_3  and  N1_4 
REMARK    3  A    between atoms: C5_8  and  N2_9 
REMARK       I    between atoms: N2_9  and  C6_11 
REMARK    4  A    between atoms: C6_11  and  C7_13 
REMARK    5  A    between atoms: N3_20  and  C12_22 
REMARK    6  A    between atoms: C15_25  and  N4_26 
ROOT
HETATM    1  O1  UNL     1       5.894  65.677   3.268  1.00  0.00    -0.267 OA
HETATM    2  C1  UNL     1       7.033  65.682   3.880  1.00  0.00     0.261 C 
HETATM    3  N3  UNL     1       7.617  64.408   4.043  1.00  0.00    -0.320 N 
ATOM      4  H3  UNL     1       8.516  64.391   4.524  1.00  0.00     0.169 HD
ENDROOT
BRANCH   2   5
HETATM    5  C2  UNL     1       7.544  66.976   4.308  1.00  0.00     0.160 C 
BRANCH   5   6
HETATM    6  N1  UNL     1       8.907  67.288   4.238  1.00  0.00    -0.381 N 
HETATM    7  C3  UNL     1       9.316  68.623   4.547  1.00  0.00     0.161 C 
HETATM    8  C4  UNL     1      10.536  68.926   3.721  1.00  0.00     0.212 C 
HETATM    9  F1  UNL     1      10.298  69.680   2.600  1.00  0.00    -0.245 F 
HETATM   10  C5  UNL     1      10.974  67.560   3.272  1.00  0.00     0.138 C 
HETATM   11  C11 UNL     1       9.650  66.851   3.093  1.00  0.00     0.150 C 
BRANCH  10  12
HETATM   12  N2  UNL     1      11.718  66.826   4.290  1.00  0.00    -0.347 N 
HETATM   13  C6  UNL     1      12.820  66.002   3.986  1.00  0.00     0.259 C 
HETATM   14  O2  UNL     1      13.179  65.889   2.797  1.00  0.00    -0.267 OA
ATOM     15  H2  UNL     1      11.428  66.914   5.264  1.00  0.00     0.163 HD
BRANCH  13  16
HETATM   16  C7  UNL     1      13.545  65.277   5.047  1.00  0.00     0.074 A 
HETATM   17  C8  UNL     1      13.432  65.385   6.396  1.00  0.00     0.027 A 
HETATM   18  C9  UNL     1      14.212  64.606   7.156  1.00  0.00     0.033 A 
HETATM   19  C10 UNL     1      15.070  63.757   6.504  1.00  0.00     0.075 A 
HETATM   20 CL1  UNL     1      16.222  62.610   7.214  1.00  0.00    -0.076 Cl
HETATM   21  S1  UNL     1      14.747  64.085   4.860  1.00  0.00    -0.072 SA
ENDBRANCH  13  16
ENDBRANCH  10  12
ENDBRANCH   5   6
ENDBRANCH   2   5
BRANCH   3  22
HETATM   22  C12 UNL     1       7.120  63.153   3.627  1.00  0.00     0.074 A 
HETATM   23  C13 UNL     1       7.309  62.569   2.404  1.00  0.00     0.035 A 
HETATM   24  C14 UNL     1       6.744  61.310   2.149  1.00  0.00     0.032 A 
HETATM   25  C15 UNL     1       5.999  60.630   3.087  1.00  0.00     0.045 A 
HETATM   26  C21 UNL     1       5.803  61.208   4.323  1.00  0.00     0.074 A 
HETATM   27  C22 UNL     1       6.358  62.435   4.559  1.00  0.00     0.145 A 
HETATM   28  F2  UNL     1       6.137  62.970   5.794  1.00  0.00    -0.204 F 
BRANCH  25  29
HETATM   29  N4  UNL     1       5.429  59.361   2.832  1.00  0.00    -0.290 N 
HETATM   30  C16 UNL     1       6.129  58.247   3.071  1.00  0.00     0.100 A 
HETATM   31  C17 UNL     1       5.605  56.996   2.832  1.00  0.00     0.018 A 
HETATM   32  C18 UNL     1       4.323  56.875   2.335  1.00  0.00     0.007 A 
HETATM   33  C19 UNL     1       3.641  58.057   2.105  1.00  0.00     0.075 A 
HETATM   34  C20 UNL     1       4.188  59.294   2.351  1.00  0.00     0.252 A 
HETATM   35  O3  UNL     1       3.482  60.316   2.107  1.00  0.00    -0.268 OA
ENDBRANCH  25  29
ENDBRANCH   3  22
TORSDOF 6
ENDMDL
