MODEL 13
REMARK VINA RESULT: -8.315065954      4.847      9.354
REMARK  6 active torsions:
REMARK  status: ('A' for Active; 'I' for Inactive)
REMARK    1  A    between atoms: C1_2  and  C2_3 
REMARK       I    between atoms: C1_2  and  N3_20 
REMARK    2  A    between atoms: C2_3  and  N1_4 
REMARK    3  A    between atoms: C5_8  and  N2_9 
REMARK       I    between atoms: N2_9  and  C6_11 
REMARK    4  A    between atoms: C6_11  and  C7_13 
REMARK    5  A    between atoms: N3_20  and  C12_22 
REMARK    6  A    between atoms: C15_25  and  N4_26 
ROOT
HETATM    1  O1  UNL     1       8.325  65.037  -0.742  1.00  0.00    -0.267 OA
HETATM    2  C1  UNL     1       8.618  63.955  -1.388  1.00  0.00     0.261 C 
HETATM    3  N3  UNL     1       9.780  63.297  -0.931  1.00  0.00    -0.320 N 
ATOM      4  H3  UNL     1      10.028  62.441  -1.427  1.00  0.00     0.169 HD
ENDROOT
BRANCH   2   5
HETATM    5  C2  UNL     1       7.727  63.575  -2.474  1.00  0.00     0.160 C 
BRANCH   5   6
HETATM    6  N1  UNL     1       6.758  62.576  -2.315  1.00  0.00    -0.381 N 
HETATM    7  C3  UNL     1       6.492  61.705  -3.417  1.00  0.00     0.161 C 
HETATM    8  C4  UNL     1       5.045  61.303  -3.337  1.00  0.00     0.212 C 
HETATM    9  F1  UNL     1       4.212  61.986  -4.187  1.00  0.00    -0.245 F 
HETATM   10  C5  UNL     1       4.677  61.682  -1.930  1.00  0.00     0.138 C 
HETATM   11  C11 UNL     1       5.505  62.929  -1.716  1.00  0.00     0.150 C 
BRANCH  10  12
HETATM   12  N2  UNL     1       5.111  60.705  -0.936  1.00  0.00    -0.347 N 
HETATM   13  C6  UNL     1       4.420  60.489   0.274  1.00  0.00     0.259 C 
HETATM   14  O2  UNL     1       3.394  61.157   0.511  1.00  0.00    -0.267 OA
ATOM     15  H2  UNL     1       5.949  60.156  -1.124  1.00  0.00     0.163 HD
BRANCH  13  16
HETATM   16  C7  UNL     1       4.892  59.491   1.252  1.00  0.00     0.074 A 
HETATM   17  C8  UNL     1       4.441  58.231   1.484  1.00  0.00     0.027 A 
HETATM   18  C9  UNL     1       5.045  57.513   2.440  1.00  0.00     0.033 A 
HETATM   19  C10 UNL     1       6.078  58.115   3.112  1.00  0.00     0.075 A 
HETATM   20 CL1  UNL     1       7.071  57.441   4.419  1.00  0.00    -0.076 Cl
HETATM   21  S1  UNL     1       6.158  59.654   2.379  1.00  0.00    -0.072 SA
ENDBRANCH  13  16
ENDBRANCH  10  12
ENDBRANCH   5   6
ENDBRANCH   2   5
BRANCH   3  22
HETATM   22  C12 UNL     1      10.643  63.667   0.123  1.00  0.00     0.074 A 
HETATM   23  C13 UNL     1      11.653  64.589   0.061  1.00  0.00     0.035 A 
HETATM   24  C14 UNL     1      12.424  64.842   1.206  1.00  0.00     0.032 A 
HETATM   25  C15 UNL     1      12.206  64.195   2.403  1.00  0.00     0.045 A 
HETATM   26  C21 UNL     1      11.191  63.264   2.477  1.00  0.00     0.074 A 
HETATM   27  C22 UNL     1      10.447  63.026   1.355  1.00  0.00     0.145 A 
HETATM   28  F2  UNL     1       9.455  62.098   1.475  1.00  0.00    -0.204 F 
BRANCH  25  29
HETATM   29  N4  UNL     1      12.982  64.449   3.557  1.00  0.00    -0.290 N 
HETATM   30  C16 UNL     1      14.155  63.831   3.732  1.00  0.00     0.100 A 
HETATM   31  C17 UNL     1      14.934  64.055   4.844  1.00  0.00     0.018 A 
HETATM   32  C18 UNL     1      14.505  64.939   5.814  1.00  0.00     0.007 A 
HETATM   33  C19 UNL     1      13.285  65.552   5.587  1.00  0.00     0.075 A 
HETATM   34  C20 UNL     1      12.526  65.311   4.467  1.00  0.00     0.252 A 
HETATM   35  O3  UNL     1      11.423  65.922   4.351  1.00  0.00    -0.268 OA
ENDBRANCH  25  29
ENDBRANCH   3  22
TORSDOF 6
ENDMDL
