MODEL 2
REMARK VINA RESULT: -10.398189807      0.902      1.221
REMARK  6 active torsions:
REMARK  status: ('A' for Active; 'I' for Inactive)
REMARK    1  A    between atoms: C1_2  and  C2_3 
REMARK       I    between atoms: C1_2  and  N3_20 
REMARK    2  A    between atoms: C2_3  and  N1_4 
REMARK    3  A    between atoms: C5_8  and  N2_9 
REMARK       I    between atoms: N2_9  and  C6_11 
REMARK    4  A    between atoms: C6_11  and  C7_13 
REMARK    5  A    between atoms: N3_20  and  C12_22 
REMARK    6  A    between atoms: C15_25  and  N4_26 
ROOT
HETATM    1  O1  UNL     1       6.253  64.849   5.036  1.00  0.00    -0.267 OA
HETATM    2  C1  UNL     1       7.207  65.115   4.204  1.00  0.00     0.261 C 
HETATM    3  N3  UNL     1       7.729  63.989   3.532  1.00  0.00    -0.320 N 
ATOM      4  H3  UNL     1       8.483  64.178   2.871  1.00  0.00     0.169 HD
ENDROOT
BRANCH   2   5
HETATM    5  C2  UNL     1       7.602  66.510   4.079  1.00  0.00     0.160 C 
BRANCH   5   6
HETATM    6  N1  UNL     1       8.947  66.897   4.074  1.00  0.00    -0.381 N 
HETATM    7  C3  UNL     1       9.271  68.237   4.452  1.00  0.00     0.161 C 
HETATM    8  C4  UNL     1      10.503  68.638   3.687  1.00  0.00     0.212 C 
HETATM    9  F1  UNL     1      10.266  69.425   2.588  1.00  0.00    -0.245 F 
HETATM   10  C5  UNL     1      11.031  67.318   3.202  1.00  0.00     0.138 C 
HETATM   11  C11 UNL     1       9.755  66.548   2.943  1.00  0.00     0.150 C 
BRANCH  10  12
HETATM   12  N2  UNL     1      11.775  66.582   4.219  1.00  0.00    -0.347 N 
HETATM   13  C6  UNL     1      12.951  65.860   3.932  1.00  0.00     0.259 C 
HETATM   14  O2  UNL     1      13.379  65.843   2.760  1.00  0.00    -0.267 OA
ATOM     15  H2  UNL     1      11.430  66.591   5.178  1.00  0.00     0.163 HD
BRANCH  13  16
HETATM   16  C7  UNL     1      13.674  65.130   4.990  1.00  0.00     0.074 A 
HETATM   17  C8  UNL     1      13.571  65.244   6.340  1.00  0.00     0.027 A 
HETATM   18  C9  UNL     1      14.347  64.458   7.097  1.00  0.00     0.033 A 
HETATM   19  C10 UNL     1      15.188  63.595   6.443  1.00  0.00     0.075 A 
HETATM   20 CL1  UNL     1      16.330  62.435   7.149  1.00  0.00    -0.076 Cl
HETATM   21  S1  UNL     1      14.858  63.921   4.800  1.00  0.00    -0.072 SA
ENDBRANCH  13  16
ENDBRANCH  10  12
ENDBRANCH   5   6
ENDBRANCH   2   5
BRANCH   3  22
HETATM   22  C12 UNL     1       7.346  62.636   3.654  1.00  0.00     0.074 A 
HETATM   23  C13 UNL     1       6.657  62.077   4.696  1.00  0.00     0.035 A 
HETATM   24  C14 UNL     1       6.352  60.707   4.662  1.00  0.00     0.032 A 
HETATM   25  C15 UNL     1       6.722  59.892   3.615  1.00  0.00     0.045 A 
HETATM   26  C21 UNL     1       7.415  60.445   2.559  1.00  0.00     0.074 A 
HETATM   27  C22 UNL     1       7.706  61.780   2.603  1.00  0.00     0.145 A 
HETATM   28  F2  UNL     1       8.394  62.283   1.538  1.00  0.00    -0.204 F 
BRANCH  25  29
HETATM   29  N4  UNL     1       6.415  58.512   3.580  1.00  0.00    -0.290 N 
HETATM   30  C16 UNL     1       7.246  57.623   4.132  1.00  0.00     0.100 A 
HETATM   31  C17 UNL     1       6.979  56.272   4.115  1.00  0.00     0.018 A 
HETATM   32  C18 UNL     1       5.825  55.811   3.515  1.00  0.00     0.007 A 
HETATM   33  C19 UNL     1       4.998  56.771   2.958  1.00  0.00     0.075 A 
HETATM   34  C20 UNL     1       5.289  58.114   2.988  1.00  0.00     0.252 A 
HETATM   35  O3  UNL     1       4.468  58.914   2.450  1.00  0.00    -0.268 OA
ENDBRANCH  25  29
ENDBRANCH   3  22
TORSDOF 6
ENDMDL
