MODEL 8
REMARK VINA RESULT: -8.629628742      4.528      9.387
REMARK  6 active torsions:
REMARK  status: ('A' for Active; 'I' for Inactive)
REMARK    1  A    between atoms: C1_2  and  C2_3 
REMARK       I    between atoms: C1_2  and  N3_20 
REMARK    2  A    between atoms: C2_3  and  N1_4 
REMARK    3  A    between atoms: C5_8  and  N2_9 
REMARK       I    between atoms: N2_9  and  C6_11 
REMARK    4  A    between atoms: C6_11  and  C7_13 
REMARK    5  A    between atoms: N3_20  and  C12_22 
REMARK    6  A    between atoms: C15_25  and  N4_26 
ROOT
HETATM    1  O1  UNL     1       6.664  63.974   0.541  1.00  0.00    -0.267 OA
HETATM    2  C1  UNL     1       7.037  63.101  -0.337  1.00  0.00     0.261 C 
HETATM    3  N3  UNL     1       8.417  62.805  -0.320  1.00  0.00    -0.320 N 
ATOM      4  H3  UNL     1       8.731  62.119  -1.005  1.00  0.00     0.169 HD
ENDROOT
BRANCH   2   5
HETATM    5  C2  UNL     1       6.003  62.556  -1.204  1.00  0.00     0.160 C 
BRANCH   5   6
HETATM    6  N1  UNL     1       5.541  61.242  -1.062  1.00  0.00    -0.381 N 
HETATM    7  C3  UNL     1       5.654  60.357  -2.178  1.00  0.00     0.161 C 
HETATM    8  C4  UNL     1       4.508  59.385  -2.105  1.00  0.00     0.212 C 
HETATM    9  F1  UNL     1       3.459  59.671  -2.943  1.00  0.00    -0.245 F 
HETATM   10  C5  UNL     1       4.027  59.554  -0.692  1.00  0.00     0.138 C 
HETATM   11  C11 UNL     1       4.260  61.030  -0.457  1.00  0.00     0.150 C 
BRANCH  10  12
HETATM   12  N2  UNL     1       4.836  58.833   0.286  1.00  0.00    -0.347 N 
HETATM   13  C6  UNL     1       4.513  58.783   1.657  1.00  0.00     0.259 C 
HETATM   14  O2  UNL     1       3.495  59.381   2.060  1.00  0.00    -0.267 OA
ATOM     15  H2  UNL     1       5.670  58.344  -0.038  1.00  0.00     0.163 HD
BRANCH  13  16
HETATM   16  C7  UNL     1       5.359  58.042   2.612  1.00  0.00     0.074 A 
HETATM   17  C8  UNL     1       6.319  58.505   3.453  1.00  0.00     0.027 A 
HETATM   18  C9  UNL     1       6.953  57.619   4.232  1.00  0.00     0.033 A 
HETATM   19  C10 UNL     1       6.578  56.306   4.114  1.00  0.00     0.075 A 
HETATM   20 CL1  UNL     1       7.217  54.903   4.993  1.00  0.00    -0.076 Cl
HETATM   21  S1  UNL     1       5.357  56.368   2.922  1.00  0.00    -0.072 SA
ENDBRANCH  13  16
ENDBRANCH  10  12
ENDBRANCH   5   6
ENDBRANCH   2   5
BRANCH   3  22
HETATM   22  C12 UNL     1       9.419  63.335   0.522  1.00  0.00     0.074 A 
HETATM   23  C13 UNL     1      10.184  64.443   0.278  1.00  0.00     0.035 A 
HETATM   24  C14 UNL     1      11.143  64.838   1.224  1.00  0.00     0.032 A 
HETATM   25  C15 UNL     1      11.350  64.151   2.399  1.00  0.00     0.045 A 
HETATM   26  C21 UNL     1      10.585  63.033   2.656  1.00  0.00     0.074 A 
HETATM   27  C22 UNL     1       9.654  62.658   1.728  1.00  0.00     0.145 A 
HETATM   28  F2  UNL     1       8.921  61.547   2.024  1.00  0.00    -0.204 F 
BRANCH  25  29
HETATM   29  N4  UNL     1      12.315  64.548   3.353  1.00  0.00    -0.290 N 
HETATM   30  C16 UNL     1      13.534  63.999   3.348  1.00  0.00     0.100 A 
HETATM   31  C17 UNL     1      14.497  64.362   4.262  1.00  0.00     0.018 A 
HETATM   32  C18 UNL     1      14.210  65.318   5.216  1.00  0.00     0.007 A 
HETATM   33  C19 UNL     1      12.935  65.856   5.179  1.00  0.00     0.075 A 
HETATM   34  C20 UNL     1      11.991  65.475   4.255  1.00  0.00     0.252 A 
HETATM   35  O3  UNL     1      10.853  66.026   4.304  1.00  0.00    -0.268 OA
ENDBRANCH  25  29
ENDBRANCH   3  22
TORSDOF 6
ENDMDL
