MODEL 1
REMARK VINA RESULT: -10.818056329      0.000      0.000
REMARK  6 active torsions:
REMARK  status: ('A' for Active; 'I' for Inactive)
REMARK    1  A    between atoms: C1_2  and  C2_3 
REMARK       I    between atoms: C1_2  and  N3_20 
REMARK    2  A    between atoms: C2_3  and  N1_4 
REMARK    3  A    between atoms: C5_8  and  N2_9 
REMARK       I    between atoms: N2_9  and  C6_11 
REMARK    4  A    between atoms: C6_11  and  C7_13 
REMARK    5  A    between atoms: N3_20  and  C12_22 
REMARK    6  A    between atoms: C15_25  and  N4_26 
ROOT
HETATM    1  O1  UNL     1       6.043  64.616   3.282  1.00  0.00    -0.267 OA
HETATM    2  C1  UNL     1       7.240  64.867   3.702  1.00  0.00     0.261 C 
HETATM    3  N3  UNL     1       8.046  63.724   3.893  1.00  0.00    -0.320 N 
ATOM      4  H3  UNL     1       8.994  63.901   4.225  1.00  0.00     0.169 HD
ENDROOT
BRANCH   2   5
HETATM    5  C2  UNL     1       7.583  66.265   3.916  1.00  0.00     0.160 C 
BRANCH   5   6
HETATM    6  N1  UNL     1       8.914  66.700   3.941  1.00  0.00    -0.381 N 
HETATM    7  C3  UNL     1       9.181  68.048   4.338  1.00  0.00     0.161 C 
HETATM    8  C4  UNL     1      10.412  68.501   3.601  1.00  0.00     0.212 C 
HETATM    9  F1  UNL     1      10.166  69.291   2.505  1.00  0.00    -0.245 F 
HETATM   10  C5  UNL     1      10.996  67.206   3.113  1.00  0.00     0.138 C 
HETATM   11  C11 UNL     1       9.754  66.393   2.823  1.00  0.00     0.150 C 
BRANCH  10  12
HETATM   12  N2  UNL     1      11.748  66.488   4.137  1.00  0.00    -0.347 N 
HETATM   13  C6  UNL     1      12.949  65.802   3.863  1.00  0.00     0.259 C 
HETATM   14  O2  UNL     1      13.392  65.803   2.697  1.00  0.00    -0.267 OA
ATOM     15  H2  UNL     1      11.389  66.482   5.091  1.00  0.00     0.163 HD
BRANCH  13  16
HETATM   16  C7  UNL     1      13.678  65.088   4.928  1.00  0.00     0.074 A 
HETATM   17  C8  UNL     1      13.564  65.203   6.277  1.00  0.00     0.027 A 
HETATM   18  C9  UNL     1      14.349  64.434   7.042  1.00  0.00     0.033 A 
HETATM   19  C10 UNL     1      15.211  63.586   6.395  1.00  0.00     0.075 A 
HETATM   20 CL1  UNL     1      16.370  62.450   7.112  1.00  0.00    -0.076 Cl
HETATM   21  S1  UNL     1      14.886  63.902   4.749  1.00  0.00    -0.072 SA
ENDBRANCH  13  16
ENDBRANCH  10  12
ENDBRANCH   5   6
ENDBRANCH   2   5
BRANCH   3  22
HETATM   22  C12 UNL     1       7.712  62.368   3.685  1.00  0.00     0.074 A 
HETATM   23  C13 UNL     1       8.076  61.596   2.615  1.00  0.00     0.035 A 
HETATM   24  C14 UNL     1       7.658  60.257   2.560  1.00  0.00     0.032 A 
HETATM   25  C15 UNL     1       6.890  59.681   3.547  1.00  0.00     0.045 A 
HETATM   26  C21 UNL     1       6.517  60.448   4.629  1.00  0.00     0.074 A 
HETATM   27  C22 UNL     1       6.930  61.751   4.672  1.00  0.00     0.145 A 
HETATM   28  F2  UNL     1       6.538  62.473   5.761  1.00  0.00    -0.204 F 
BRANCH  25  29
HETATM   29  N4  UNL     1       6.469  58.332   3.493  1.00  0.00    -0.290 N 
HETATM   30  C16 UNL     1       7.144  57.387   4.156  1.00  0.00     0.100 A 
HETATM   31  C17 UNL     1       6.762  56.065   4.124  1.00  0.00     0.018 A 
HETATM   32  C18 UNL     1       5.653  55.690   3.392  1.00  0.00     0.007 A 
HETATM   33  C19 UNL     1       4.989  56.705   2.723  1.00  0.00     0.075 A 
HETATM   34  C20 UNL     1       5.392  58.018   2.771  1.00  0.00     0.252 A 
HETATM   35  O3  UNL     1       4.717  58.872   2.125  1.00  0.00    -0.268 OA
ENDBRANCH  25  29
ENDBRANCH   3  22
TORSDOF 6
ENDMDL
