MODEL 10
REMARK VINA RESULT: -8.421452770      4.538      9.438
REMARK  6 active torsions:
REMARK  status: ('A' for Active; 'I' for Inactive)
REMARK    1  A    between atoms: C1_2  and  C2_3 
REMARK       I    between atoms: C1_2  and  N3_20 
REMARK    2  A    between atoms: C2_3  and  N1_4 
REMARK    3  A    between atoms: C5_8  and  N2_9 
REMARK       I    between atoms: N2_9  and  C6_11 
REMARK    4  A    between atoms: C6_11  and  C7_13 
REMARK    5  A    between atoms: N3_20  and  C12_22 
REMARK    6  A    between atoms: C15_25  and  N4_26 
ROOT
HETATM    1  O1  UNL     1       7.941  63.128  -1.615  1.00  0.00    -0.267 OA
HETATM    2  C1  UNL     1       6.933  62.774  -0.885  1.00  0.00     0.261 C 
HETATM    3  N3  UNL     1       7.108  62.986   0.499  1.00  0.00    -0.320 N 
ATOM      4  H3  UNL     1       6.324  62.713   1.091  1.00  0.00     0.169 HD
ENDROOT
BRANCH   2   5
HETATM    5  C2  UNL     1       5.781  62.217  -1.580  1.00  0.00     0.160 C 
BRANCH   5   6
HETATM    6  N1  UNL     1       5.280  60.946  -1.271  1.00  0.00    -0.381 N 
HETATM    7  C3  UNL     1       5.234  59.963  -2.308  1.00  0.00     0.161 C 
HETATM    8  C4  UNL     1       4.061  59.064  -2.028  1.00  0.00     0.212 C 
HETATM    9  F1  UNL     1       2.941  59.332  -2.775  1.00  0.00    -0.245 F 
HETATM   10  C5  UNL     1       3.742  59.380  -0.594  1.00  0.00     0.138 C 
HETATM   11  C11 UNL     1       4.063  60.856  -0.520  1.00  0.00     0.150 C 
BRANCH  10  12
HETATM   12  N2  UNL     1       4.619  58.704   0.357  1.00  0.00    -0.347 N 
HETATM   13  C6  UNL     1       4.376  58.691   1.745  1.00  0.00     0.259 C 
HETATM   14  O2  UNL     1       3.370  59.282   2.187  1.00  0.00    -0.267 OA
ATOM     15  H2  UNL     1       5.443  58.219   0.001  1.00  0.00     0.163 HD
BRANCH  13  16
HETATM   16  C7  UNL     1       5.288  57.994   2.672  1.00  0.00     0.074 A 
HETATM   17  C8  UNL     1       6.261  58.505   3.469  1.00  0.00     0.027 A 
HETATM   18  C9  UNL     1       6.962  57.653   4.229  1.00  0.00     0.033 A 
HETATM   19  C10 UNL     1       6.636  56.324   4.139  1.00  0.00     0.075 A 
HETATM   20 CL1  UNL     1       7.366  54.958   5.004  1.00  0.00    -0.076 Cl
HETATM   21  S1  UNL     1       5.366  56.325   2.997  1.00  0.00    -0.072 SA
ENDBRANCH  13  16
ENDBRANCH  10  12
ENDBRANCH   5   6
ENDBRANCH   2   5
BRANCH   3  22
HETATM   22  C12 UNL     1       8.226  63.527   1.171  1.00  0.00     0.074 A 
HETATM   23  C13 UNL     1       8.632  64.834   1.153  1.00  0.00     0.035 A 
HETATM   24  C14 UNL     1       9.772  65.210   1.879  1.00  0.00     0.032 A 
HETATM   25  C15 UNL     1      10.508  64.310   2.618  1.00  0.00     0.045 A 
HETATM   26  C21 UNL     1      10.109  62.991   2.644  1.00  0.00     0.074 A 
HETATM   27  C22 UNL     1       8.997  62.637   1.932  1.00  0.00     0.145 A 
HETATM   28  F2  UNL     1       8.640  61.322   1.986  1.00  0.00    -0.204 F 
BRANCH  25  29
HETATM   29  N4  UNL     1      11.657  64.688   3.351  1.00  0.00    -0.290 N 
HETATM   30  C16 UNL     1      11.549  65.512   4.398  1.00  0.00     0.100 A 
HETATM   31  C17 UNL     1      12.646  65.901   5.133  1.00  0.00     0.018 A 
HETATM   32  C18 UNL     1      13.899  65.432   4.791  1.00  0.00     0.007 A 
HETATM   33  C19 UNL     1      13.958  64.582   3.700  1.00  0.00     0.075 A 
HETATM   34  C20 UNL     1      12.846  64.210   2.983  1.00  0.00     0.252 A 
HETATM   35  O3  UNL     1      13.005  63.427   2.001  1.00  0.00    -0.268 OA
ENDBRANCH  25  29
ENDBRANCH   3  22
TORSDOF 6
ENDMDL
