MODEL 3
REMARK VINA RESULT: -6.083305906      1.329      1.600
REMARK  4 active torsions:
REMARK  status: ('A' for Active; 'I' for Inactive)
REMARK    1  A    between atoms: C1_2  and  C2_3 
REMARK       I    between atoms: C1_2  and  N1_9 
REMARK    2  A    between atoms: C2_3  and  O2_4 
REMARK    3  A    between atoms: O2_4  and  P1_5 
REMARK    4  A    between atoms: N1_9  and  O6_11 
ROOT
HETATM    1  O1  UNL     1      26.885  -3.571  11.595  1.00  0.00    -0.269 OA
HETATM    2  C1  UNL     1      26.442  -2.533  10.992  1.00  0.00     0.265 C 
HETATM    3  N1  UNL     1      25.820  -1.550  11.787  1.00  0.00    -0.236 N 
ATOM      4  H1  UNL     1      25.450  -0.703  11.354  1.00  0.00     0.197 HD
ENDROOT
BRANCH   2   5
HETATM    5  C2  UNL     1      26.625  -2.475   9.552  1.00  0.00     0.287 C 
BRANCH   5   6
HETATM    6  O2  UNL     1      27.905  -2.037   9.211  1.00  0.00    -0.273 OA
BRANCH   6   7
HETATM    7  P1  UNL     1      28.295  -2.188   7.732  1.00  0.00     0.422 P 
HETATM    8  O3  UNL     1      28.683  -2.250   6.246  1.00  0.00    -0.617 OA
HETATM    9  O4  UNL     1      29.796  -2.671   8.201  1.00  0.00    -0.617 OA
HETATM   10  O5  UNL     1      27.151  -3.357   7.521  1.00  0.00    -0.617 OA
ENDBRANCH   6   7
ENDBRANCH   5   6
ENDBRANCH   2   5
BRANCH   3  11
HETATM   11  O6  UNL     1      25.714  -1.725  13.114  1.00  0.00    -0.287 OA
ATOM     12  H6  UNL     1      24.903  -1.509  13.560  1.00  0.00     0.244 HD
ENDBRANCH   3  11
TORSDOF 4
ENDMDL
