MODEL 2
REMARK VINA RESULT: -6.085254679      0.951      1.596
REMARK  4 active torsions:
REMARK  status: ('A' for Active; 'I' for Inactive)
REMARK    1  A    between atoms: C1_2  and  C2_3 
REMARK       I    between atoms: C1_2  and  N1_9 
REMARK    2  A    between atoms: C2_3  and  O2_4 
REMARK    3  A    between atoms: O2_4  and  P1_5 
REMARK    4  A    between atoms: N1_9  and  O6_11 
ROOT
HETATM    1  O1  UNL     1      27.030  -3.598  11.668  1.00  0.00    -0.269 OA
HETATM    2  C1  UNL     1      26.357  -2.770  10.962  1.00  0.00     0.265 C 
HETATM    3  N1  UNL     1      25.756  -1.691  11.643  1.00  0.00    -0.236 N 
ATOM      4  H1  UNL     1      25.208  -1.004  11.126  1.00  0.00     0.197 HD
ENDROOT
BRANCH   2   5
HETATM    5  C2  UNL     1      26.280  -3.026   9.534  1.00  0.00     0.287 C 
BRANCH   5   6
HETATM    6  O2  UNL     1      26.749  -1.943   8.789  1.00  0.00    -0.273 OA
BRANCH   6   7
HETATM    7  P1  UNL     1      27.488  -2.294   7.487  1.00  0.00     0.422 P 
HETATM    8  O3  UNL     1      28.155  -2.693   6.162  1.00  0.00    -0.617 OA
HETATM    9  O4  UNL     1      27.295  -0.738   6.987  1.00  0.00    -0.617 OA
HETATM   10  O5  UNL     1      28.857  -2.658   8.331  1.00  0.00    -0.617 OA
ENDBRANCH   6   7
ENDBRANCH   5   6
ENDBRANCH   2   5
BRANCH   3  11
HETATM   11  O6  UNL     1      25.905  -1.568  12.972  1.00  0.00    -0.287 OA
ATOM     12  H6  UNL     1      26.056  -0.712  13.357  1.00  0.00     0.244 HD
ENDBRANCH   3  11
TORSDOF 4
ENDMDL
