MODEL 6
REMARK VINA RESULT: -5.548222142      3.645      5.490
REMARK  4 active torsions:
REMARK  status: ('A' for Active; 'I' for Inactive)
REMARK    1  A    between atoms: C1_2  and  C2_3 
REMARK       I    between atoms: C1_2  and  N1_9 
REMARK    2  A    between atoms: C2_3  and  O2_4 
REMARK    3  A    between atoms: O2_4  and  P1_5 
REMARK    4  A    between atoms: N1_9  and  O6_11 
ROOT
HETATM    1  O1  UNL     1      27.048   0.747   6.125  1.00  0.00    -0.269 OA
HETATM    2  C1  UNL     1      27.551  -0.255   5.508  1.00  0.00     0.265 C 
HETATM    3  N1  UNL     1      27.798  -0.095   4.129  1.00  0.00    -0.236 N 
ATOM      4  H1  UNL     1      28.198  -0.864   3.591  1.00  0.00     0.197 HD
ENDROOT
BRANCH   2   5
HETATM    5  C2  UNL     1      27.814  -1.451   6.289  1.00  0.00     0.287 C 
BRANCH   5   6
HETATM    6  O2  UNL     1      27.590  -1.239   7.650  1.00  0.00    -0.273 OA
BRANCH   6   7
HETATM    7  P1  UNL     1      26.824  -2.350   8.386  1.00  0.00     0.422 P 
HETATM    8  O3  UNL     1      26.094  -3.432   9.197  1.00  0.00    -0.617 OA
HETATM    9  O4  UNL     1      25.423  -1.533   8.110  1.00  0.00    -0.617 OA
HETATM   10  O5  UNL     1      27.293  -3.458   7.257  1.00  0.00    -0.617 OA
ENDBRANCH   6   7
ENDBRANCH   5   6
ENDBRANCH   2   5
BRANCH   3  11
HETATM   11  O6  UNL     1      27.509   1.068   3.523  1.00  0.00    -0.287 OA
ATOM     12  H6  UNL     1      27.947   1.867   3.792  1.00  0.00     0.244 HD
ENDBRANCH   3  11
TORSDOF 4
ENDMDL
