MODEL 10
REMARK VINA RESULT: -5.360447705      1.306      2.119
REMARK  4 active torsions:
REMARK  status: ('A' for Active; 'I' for Inactive)
REMARK    1  A    between atoms: C1_2  and  C2_3 
REMARK       I    between atoms: C1_2  and  N1_9 
REMARK    2  A    between atoms: C2_3  and  O2_4 
REMARK    3  A    between atoms: O2_4  and  P1_5 
REMARK    4  A    between atoms: N1_9  and  O6_11 
ROOT
HETATM    1  O1  UNL     1      25.552  -1.572   9.715  1.00  0.00    -0.269 OA
HETATM    2  C1  UNL     1      26.415  -2.509   9.840  1.00  0.00     0.265 C 
HETATM    3  N1  UNL     1      26.678  -2.964  11.149  1.00  0.00    -0.236 N 
ATOM      4  H1  UNL     1      27.358  -3.709  11.302  1.00  0.00     0.197 HD
ENDROOT
BRANCH   2   5
HETATM    5  C2  UNL     1      27.033  -3.007   8.624  1.00  0.00     0.287 C 
BRANCH   5   6
HETATM    6  O2  UNL     1      26.781  -2.171   7.536  1.00  0.00    -0.273 OA
BRANCH   6   7
HETATM    7  P1  UNL     1      28.012  -1.731   6.727  1.00  0.00     0.422 P 
HETATM    8  O3  UNL     1      29.217  -1.349   5.854  1.00  0.00    -0.617 OA
HETATM    9  O4  UNL     1      27.296  -0.271   6.477  1.00  0.00    -0.617 OA
HETATM   10  O5  UNL     1      28.975  -1.889   8.056  1.00  0.00    -0.617 OA
ENDBRANCH   6   7
ENDBRANCH   5   6
ENDBRANCH   2   5
BRANCH   3  11
HETATM   11  O6  UNL     1      26.035  -2.417  12.193  1.00  0.00    -0.287 OA
ATOM     12  H6  UNL     1      26.455  -2.380  13.044  1.00  0.00     0.244 HD
ENDBRANCH   3  11
TORSDOF 4
ENDMDL
