MODEL 1
REMARK VINA RESULT: -6.155991296      0.000      0.000
REMARK  4 active torsions:
REMARK  status: ('A' for Active; 'I' for Inactive)
REMARK    1  A    between atoms: C1_2  and  C2_3 
REMARK       I    between atoms: C1_2  and  N1_9 
REMARK    2  A    between atoms: C2_3  and  O2_4 
REMARK    3  A    between atoms: O2_4  and  P1_5 
REMARK    4  A    between atoms: N1_9  and  O6_11 
ROOT
HETATM    1  O1  UNL     1      27.034  -3.718  11.623  1.00  0.00    -0.269 OA
HETATM    2  C1  UNL     1      26.351  -2.915  10.899  1.00  0.00     0.265 C 
HETATM    3  N1  UNL     1      25.696  -1.857  11.562  1.00  0.00    -0.236 N 
ATOM      4  H1  UNL     1      25.138  -1.189  11.030  1.00  0.00     0.197 HD
ENDROOT
BRANCH   2   5
HETATM    5  C2  UNL     1      26.321  -3.173   9.470  1.00  0.00     0.287 C 
BRANCH   5   6
HETATM    6  O2  UNL     1      25.977  -2.031   8.745  1.00  0.00    -0.273 OA
BRANCH   6   7
HETATM    7  P1  UNL     1      26.951  -1.627   7.626  1.00  0.00     0.422 P 
HETATM    8  O3  UNL     1      27.983  -1.198   6.571  1.00  0.00    -0.617 OA
HETATM    9  O4  UNL     1      27.176  -3.220   7.279  1.00  0.00    -0.617 OA
HETATM   10  O5  UNL     1      25.746  -0.837   6.825  1.00  0.00    -0.617 OA
ENDBRANCH   6   7
ENDBRANCH   5   6
ENDBRANCH   2   5
BRANCH   3  11
HETATM   11  O6  UNL     1      25.804  -1.728  12.895  1.00  0.00    -0.287 OA
ATOM     12  H6  UNL     1      25.828  -0.864  13.289  1.00  0.00     0.244 HD
ENDBRANCH   3  11
TORSDOF 4
ENDMDL
