MODEL 1
REMARK VINA RESULT: -4.119540811      0.000      0.000
REMARK  7 active torsions:
REMARK  status: ('A' for Active; 'I' for Inactive)
REMARK    1  A    between atoms: N1_2  and  C2_5 
REMARK    2  A    between atoms: C2_5  and  C3_6 
REMARK    3  A    between atoms: C3_6  and  C4_7 
REMARK    4  A    between atoms: C4_7  and  C5_8 
REMARK    5  A    between atoms: C5_8  and  C6_9 
REMARK    6  A    between atoms: C6_9  and  N2_10 
REMARK    7  A    between atoms: C6_9  and  C7_14 
ROOT
HETATM    1  C5  UNL     1      16.865  42.290  56.115  1.00  0.00     0.044 C 
ENDROOT
BRANCH   1   2
HETATM    2  C4  UNL     1      17.319  40.940  55.741  1.00  0.00     0.004 C 
BRANCH   2   3
HETATM    3  C3  UNL     1      18.814  40.733  55.825  1.00  0.00     0.027 C 
BRANCH   3   4
HETATM    4  C2  UNL     1      19.339  40.675  57.212  1.00  0.00     0.231 C 
BRANCH   4   5
HETATM    5  N1  UNL     1      20.158  41.836  57.452  1.00  0.00    -0.079 N 
HETATM    6  C1  UNL     1      21.566  41.599  57.284  1.00  0.00     0.266 C 
ATOM      7  H12 UNL     1      19.966  42.226  58.375  1.00  0.00     0.276 HD
ATOM      8  H11 UNL     1      19.852  42.617  56.870  1.00  0.00     0.276 HD
ENDBRANCH   4   5
ENDBRANCH   3   4
ENDBRANCH   2   3
ENDBRANCH   1   2
BRANCH   1   9
HETATM    9  C6  UNL     1      15.964  42.887  55.066  1.00  0.00     0.283 C 
BRANCH   9  10
HETATM   10  N2  UNL     1      16.565  42.692  53.736  1.00  0.00    -0.065 N 
ATOM     11  H23 UNL     1      17.341  43.332  53.566  1.00  0.00     0.275 HD
ATOM     12  H22 UNL     1      17.082  41.815  53.671  1.00  0.00     0.275 HD
ATOM     13  H21 UNL     1      15.841  42.767  53.022  1.00  0.00     0.275 HD
ENDBRANCH   9  10
BRANCH   9  14
HETATM   14  C7  UNL     1      15.773  44.338  55.251  1.00  0.00     0.204 C 
HETATM   15  O1  UNL     1      15.632  44.880  56.356  1.00  0.00    -0.646 OA
HETATM   16  O2  UNL     1      15.743  45.189  54.128  1.00  0.00    -0.646 OA
ENDBRANCH   9  14
ENDBRANCH   1   9
TORSDOF 7
ENDMDL
