MODEL 2
REMARK VINA RESULT: -4.074724063      0.908      1.279
REMARK  7 active torsions:
REMARK  status: ('A' for Active; 'I' for Inactive)
REMARK    1  A    between atoms: N1_2  and  C2_5 
REMARK    2  A    between atoms: C2_5  and  C3_6 
REMARK    3  A    between atoms: C3_6  and  C4_7 
REMARK    4  A    between atoms: C4_7  and  C5_8 
REMARK    5  A    between atoms: C5_8  and  C6_9 
REMARK    6  A    between atoms: C6_9  and  N2_10 
REMARK    7  A    between atoms: C6_9  and  C7_14 
ROOT
HETATM    1  C5  UNL     1      16.553  42.604  55.820  1.00  0.00     0.044 C 
ENDROOT
BRANCH   1   2
HETATM    2  C4  UNL     1      17.233  41.589  54.999  1.00  0.00     0.004 C 
BRANCH   2   3
HETATM    3  C3  UNL     1      18.246  40.751  55.746  1.00  0.00     0.027 C 
BRANCH   3   4
HETATM    4  C2  UNL     1      18.511  41.214  57.130  1.00  0.00     0.231 C 
BRANCH   4   5
HETATM    5  N1  UNL     1      19.917  41.498  57.268  1.00  0.00    -0.079 N 
HETATM    6  C1  UNL     1      20.771  40.506  56.673  1.00  0.00     0.266 C 
ATOM      7  H12 UNL     1      20.160  41.640  58.248  1.00  0.00     0.276 HD
ATOM      8  H11 UNL     1      20.133  42.425  56.903  1.00  0.00     0.276 HD
ENDBRANCH   4   5
ENDBRANCH   3   4
ENDBRANCH   2   3
ENDBRANCH   1   2
BRANCH   1   9
HETATM    9  C6  UNL     1      15.637  43.469  54.993  1.00  0.00     0.283 C 
BRANCH   9  10
HETATM   10  N2  UNL     1      16.230  43.677  53.662  1.00  0.00    -0.065 N 
ATOM     11  H23 UNL     1      17.228  43.877  53.711  1.00  0.00     0.275 HD
ATOM     12  H22 UNL     1      16.281  42.813  53.123  1.00  0.00     0.275 HD
ATOM     13  H21 UNL     1      15.714  44.408  53.171  1.00  0.00     0.275 HD
ENDBRANCH   9  10
BRANCH   9  14
HETATM   14  C7  UNL     1      15.430  44.800  55.593  1.00  0.00     0.204 C 
HETATM   15  O1  UNL     1      14.940  45.762  54.987  1.00  0.00    -0.646 OA
HETATM   16  O2  UNL     1      15.800  45.029  56.934  1.00  0.00    -0.646 OA
ENDBRANCH   9  14
ENDBRANCH   1   9
TORSDOF 7
ENDMDL
