MODEL 14
REMARK VINA RESULT: -3.750495294      4.628      5.804
REMARK  7 active torsions:
REMARK  status: ('A' for Active; 'I' for Inactive)
REMARK    1  A    between atoms: N1_2  and  C2_5 
REMARK    2  A    between atoms: C2_5  and  C3_6 
REMARK    3  A    between atoms: C3_6  and  C4_7 
REMARK    4  A    between atoms: C4_7  and  C5_8 
REMARK    5  A    between atoms: C5_8  and  C6_9 
REMARK    6  A    between atoms: C6_9  and  N2_10 
REMARK    7  A    between atoms: C6_9  and  C7_14 
ROOT
HETATM    1  C5  UNL     1      17.260  42.750  51.365  1.00  0.00     0.044 C 
ENDROOT
BRANCH   1   2
HETATM    2  C4  UNL     1      16.234  42.713  52.420  1.00  0.00     0.004 C 
BRANCH   2   3
HETATM    3  C3  UNL     1      16.286  43.871  53.391  1.00  0.00     0.027 C 
BRANCH   3   4
HETATM    4  C2  UNL     1      16.066  43.484  54.806  1.00  0.00     0.231 C 
BRANCH   4   5
HETATM    5  N1  UNL     1      15.040  44.326  55.368  1.00  0.00    -0.079 N 
HETATM    6  C1  UNL     1      15.207  45.722  55.069  1.00  0.00     0.266 C 
ATOM      7  H12 UNL     1      14.966  44.180  56.374  1.00  0.00     0.276 HD
ATOM      8  H11 UNL     1      14.115  44.005  55.080  1.00  0.00     0.276 HD
ENDBRANCH   4   5
ENDBRANCH   3   4
ENDBRANCH   2   3
ENDBRANCH   1   2
BRANCH   1   9
HETATM    9  C6  UNL     1      16.813  42.021  50.125  1.00  0.00     0.283 C 
BRANCH   9  10
HETATM   10  N2  UNL     1      17.942  41.258  49.571  1.00  0.00    -0.065 N 
ATOM     11  H23 UNL     1      17.775  40.964  48.609  1.00  0.00     0.275 HD
ATOM     12  H22 UNL     1      18.760  41.844  49.404  1.00  0.00     0.275 HD
ATOM     13  H21 UNL     1      18.152  40.469  50.183  1.00  0.00     0.275 HD
ENDBRANCH   9  10
BRANCH   9  14
HETATM   14  C7  UNL     1      16.348  42.943  49.071  1.00  0.00     0.204 C 
HETATM   15  O1  UNL     1      15.168  43.033  48.704  1.00  0.00    -0.646 OA
HETATM   16  O2  UNL     1      17.272  43.786  48.421  1.00  0.00    -0.646 OA
ENDBRANCH   9  14
ENDBRANCH   1   9
TORSDOF 7
ENDMDL
