MODEL 7
REMARK VINA RESULT: -8.311362337      4.266      5.931
REMARK  1 active torsions:
REMARK  status: ('A' for Active; 'I' for Inactive)
REMARK    1  A    between atoms: C5_5  and  C6_6 
ROOT
HETATM    1  C6  UNL     1       7.384 -15.153  14.091  1.00  0.00    -0.025 A 
HETATM    2  C7  UNL     1       8.759 -15.165  14.201  1.00  0.00     0.014 A 
HETATM    3  C8  UNL     1       9.471 -13.968  14.151  1.00  0.00     0.031 A 
HETATM    4  C9  UNL     1       8.816 -12.770  13.993  1.00  0.00     0.048 A 
HETATM    5  N1  UNL     1       9.464 -11.576  13.939  1.00  0.00    -0.330 N 
ATOM      6  H1  UNL     1      10.481 -11.562  14.020  1.00  0.00     0.168 HD
HETATM    7  C10 UNL     1       8.812 -10.422  13.785  1.00  0.00     0.194 A 
HETATM    8  N2  UNL     1       9.581  -9.221  13.740  1.00  0.00    -0.063 NA
HETATM    9  N3  UNL     1       7.455 -10.383  13.674  1.00  0.00    -0.318 N 
ATOM     10  H3  UNL     1       6.958  -9.499  13.556  1.00  0.00     0.169 HD
HETATM   11  C11 UNL     1       6.793 -11.555  13.725  1.00  0.00     0.131 A 
HETATM   12  N4  UNL     1       5.376 -11.570  13.614  1.00  0.00    -0.082 NA
HETATM   13  C12 UNL     1       7.460 -12.760  13.884  1.00  0.00     0.033 A 
HETATM   14  C13 UNL     1       6.758 -13.937  13.933  1.00  0.00     0.029 A 
ENDROOT
BRANCH   1  15
HETATM   15  C5  UNL     1       6.556 -16.349  14.131  1.00  0.00    -0.026 A 
HETATM   16  C4  UNL     1       5.604 -16.581  13.140  1.00  0.00     0.013 A 
HETATM   17  C3  UNL     1       4.799 -17.714  13.154  1.00  0.00     0.007 A 
HETATM   18  C2  UNL     1       4.952 -18.624  14.173  1.00  0.00    -0.062 A 
HETATM   19  C1  UNL     1       4.098 -19.842  14.203  1.00  0.00     0.048 C 
HETATM   20  C15 UNL     1       5.881 -18.436  15.174  1.00  0.00     0.007 A 
HETATM   21  C14 UNL     1       6.659 -17.300  15.125  1.00  0.00     0.013 A 
ENDBRANCH   1  15
TORSDOF 1
ENDMDL
