MODEL 5
REMARK VINA RESULT: -8.393599471      3.973      7.084
REMARK  1 active torsions:
REMARK  status: ('A' for Active; 'I' for Inactive)
REMARK    1  A    between atoms: C5_5  and  C6_6 
ROOT
HETATM    1  C6  UNL     1       7.703 -11.563  12.049  1.00  0.00    -0.025 A 
HETATM    2  C7  UNL     1       6.649 -10.677  11.991  1.00  0.00     0.014 A 
HETATM    3  C8  UNL     1       5.507 -10.902  12.758  1.00  0.00     0.031 A 
HETATM    4  C9  UNL     1       5.420 -12.002  13.577  1.00  0.00     0.048 A 
HETATM    5  N1  UNL     1       4.330 -12.266  14.345  1.00  0.00    -0.330 N 
ATOM      6  H1  UNL     1       3.539 -11.623  14.318  1.00  0.00     0.168 HD
HETATM    7  C10 UNL     1       4.262 -13.341  15.134  1.00  0.00     0.194 A 
HETATM    8  N2  UNL     1       3.075 -13.532  15.902  1.00  0.00    -0.063 NA
HETATM    9  N3  UNL     1       5.290 -14.232  15.210  1.00  0.00    -0.318 N 
ATOM     10  H3  UNL     1       5.236 -15.052  15.814  1.00  0.00     0.169 HD
HETATM   11  C11 UNL     1       6.380 -13.989  14.457  1.00  0.00     0.131 A 
HETATM   12  N4  UNL     1       7.481 -14.888  14.499  1.00  0.00    -0.082 NA
HETATM   13  C12 UNL     1       6.461 -12.877  13.632  1.00  0.00     0.033 A 
HETATM   14  C13 UNL     1       7.585 -12.656  12.878  1.00  0.00     0.029 A 
ENDROOT
BRANCH   1  15
HETATM   15  C5  UNL     1       8.934 -11.413  11.287  1.00  0.00    -0.026 A 
HETATM   16  C4  UNL     1       9.838 -12.470  11.193  1.00  0.00     0.013 A 
HETATM   17  C3  UNL     1      11.020 -12.355  10.472  1.00  0.00     0.007 A 
HETATM   18  C2  UNL     1      11.298 -11.166   9.839  1.00  0.00    -0.062 A 
HETATM   19  C1  UNL     1      12.560 -11.026   9.062  1.00  0.00     0.048 C 
HETATM   20  C15 UNL     1      10.432 -10.096   9.904  1.00  0.00     0.007 A 
HETATM   21  C14 UNL     1       9.271 -10.249  10.628  1.00  0.00     0.013 A 
ENDBRANCH   1  15
TORSDOF 1
ENDMDL
