MODEL 6
REMARK VINA RESULT: -8.371017618      3.953      7.135
REMARK  1 active torsions:
REMARK  status: ('A' for Active; 'I' for Inactive)
REMARK    1  A    between atoms: C5_5  and  C6_6 
ROOT
HETATM    1  C6  UNL     1       7.780 -11.639  11.996  1.00  0.00    -0.025 A 
HETATM    2  C7  UNL     1       6.728 -10.753  11.905  1.00  0.00     0.014 A 
HETATM    3  C8  UNL     1       5.582 -10.953  12.672  1.00  0.00     0.031 A 
HETATM    4  C9  UNL     1       5.488 -12.027  13.523  1.00  0.00     0.048 A 
HETATM    5  N1  UNL     1       4.393 -12.266  14.293  1.00  0.00    -0.330 N 
ATOM      6  H1  UNL     1       3.603 -11.623  14.242  1.00  0.00     0.168 HD
HETATM    7  C10 UNL     1       4.319 -13.316  15.114  1.00  0.00     0.194 A 
HETATM    8  N2  UNL     1       3.127 -13.482  15.881  1.00  0.00    -0.063 NA
HETATM    9  N3  UNL     1       5.345 -14.206  15.223  1.00  0.00    -0.318 N 
ATOM     10  H3  UNL     1       5.286 -15.007  15.851  1.00  0.00     0.169 HD
HETATM   11  C11 UNL     1       6.439 -13.988  14.469  1.00  0.00     0.131 A 
HETATM   12  N4  UNL     1       7.538 -14.887  14.544  1.00  0.00    -0.082 NA
HETATM   13  C12 UNL     1       6.527 -12.901  13.612  1.00  0.00     0.033 A 
HETATM   14  C13 UNL     1       7.655 -12.706  12.857  1.00  0.00     0.029 A 
ENDROOT
BRANCH   1  15
HETATM   15  C5  UNL     1       9.016 -11.515  11.237  1.00  0.00    -0.026 A 
HETATM   16  C4  UNL     1       9.368 -10.296  10.659  1.00  0.00     0.013 A 
HETATM   17  C3  UNL     1      10.542 -10.149   9.929  1.00  0.00     0.007 A 
HETATM   18  C2  UNL     1      11.370 -11.236   9.778  1.00  0.00    -0.062 A 
HETATM   19  C1  UNL     1      12.631 -11.095   8.999  1.00  0.00     0.048 C 
HETATM   20  C15 UNL     1      11.062 -12.459  10.333  1.00  0.00     0.007 A 
HETATM   21  C14 UNL     1       9.890 -12.565  11.048  1.00  0.00     0.013 A 
ENDBRANCH   1  15
TORSDOF 1
ENDMDL
