MODEL 8
REMARK VINA RESULT: -8.292075405      4.262      5.836
REMARK  1 active torsions:
REMARK  status: ('A' for Active; 'I' for Inactive)
REMARK    1  A    between atoms: C5_5  and  C6_6 
ROOT
HETATM    1  C6  UNL     1       7.366 -15.127  14.050  1.00  0.00    -0.025 A 
HETATM    2  C7  UNL     1       8.739 -15.143  14.176  1.00  0.00     0.014 A 
HETATM    3  C8  UNL     1       9.455 -13.947  14.138  1.00  0.00     0.031 A 
HETATM    4  C9  UNL     1       8.806 -12.748  13.977  1.00  0.00     0.048 A 
HETATM    5  N1  UNL     1       9.458 -11.555  13.934  1.00  0.00    -0.330 N 
ATOM      6  H1  UNL     1      10.473 -11.544  14.027  1.00  0.00     0.168 HD
HETATM    7  C10 UNL     1       8.810 -10.399  13.776  1.00  0.00     0.194 A 
HETATM    8  N2  UNL     1       9.583  -9.199  13.744  1.00  0.00    -0.063 NA
HETATM    9  N3  UNL     1       7.454 -10.356  13.650  1.00  0.00    -0.318 N 
ATOM     10  H3  UNL     1       6.962  -9.470  13.529  1.00  0.00     0.169 HD
HETATM   11  C11 UNL     1       6.789 -11.526  13.689  1.00  0.00     0.131 A 
HETATM   12  N4  UNL     1       5.373 -11.537  13.562  1.00  0.00    -0.082 NA
HETATM   13  C12 UNL     1       7.451 -12.734  13.852  1.00  0.00     0.033 A 
HETATM   14  C13 UNL     1       6.745 -13.909  13.889  1.00  0.00     0.029 A 
ENDROOT
BRANCH   1  15
HETATM   15  C5  UNL     1       6.534 -16.320  14.077  1.00  0.00    -0.026 A 
HETATM   16  C4  UNL     1       6.667 -17.250  15.107  1.00  0.00     0.013 A 
HETATM   17  C3  UNL     1       5.885 -18.397  15.159  1.00  0.00     0.007 A 
HETATM   18  C2  UNL     1       4.960 -18.614  14.165  1.00  0.00    -0.062 A 
HETATM   19  C1  UNL     1       4.115 -19.839  14.205  1.00  0.00     0.048 C 
HETATM   20  C15 UNL     1       4.793 -17.722  13.128  1.00  0.00     0.007 A 
HETATM   21  C14 UNL     1       5.588 -16.597  13.112  1.00  0.00     0.013 A 
ENDBRANCH   1  15
TORSDOF 1
ENDMDL
