MODEL 1
REMARK VINA RESULT: -8.996838269      0.000      0.000
REMARK  1 active torsions:
REMARK  status: ('A' for Active; 'I' for Inactive)
REMARK    1  A    between atoms: C5_5  and  C6_6 
ROOT
HETATM    1  C6  UNL     1       9.092 -11.576  11.961  1.00  0.00    -0.025 A 
HETATM    2  C7  UNL     1       8.895 -10.498  11.124  1.00  0.00     0.014 A 
HETATM    3  C8  UNL     1       9.869 -10.158  10.187  1.00  0.00     0.031 A 
HETATM    4  C9  UNL     1      11.028 -10.889  10.085  1.00  0.00     0.048 A 
HETATM    5  N1  UNL     1      12.007 -10.599   9.188  1.00  0.00    -0.330 N 
ATOM      6  H1  UNL     1      11.882  -9.806   8.559  1.00  0.00     0.168 HD
HETATM    7  C10 UNL     1      13.128 -11.319   9.104  1.00  0.00     0.194 A 
HETATM    8  N2  UNL     1      14.097 -10.936   8.130  1.00  0.00    -0.063 NA
HETATM    9  N3  UNL     1      13.347 -12.389   9.918  1.00  0.00    -0.318 N 
ATOM     10  H3  UNL     1      14.204 -12.939   9.852  1.00  0.00     0.169 HD
HETATM   11  C11 UNL     1      12.389 -12.694  10.815  1.00  0.00     0.131 A 
HETATM   12  N4  UNL     1      12.567 -13.801  11.689  1.00  0.00    -0.082 NA
HETATM   13  C12 UNL     1      11.221 -11.952  10.912  1.00  0.00     0.033 A 
HETATM   14  C13 UNL     1      10.264 -12.288  11.835  1.00  0.00     0.029 A 
ENDROOT
BRANCH   1  15
HETATM   15  C5  UNL     1       8.135 -12.008  12.969  1.00  0.00    -0.026 A 
HETATM   16  C4  UNL     1       8.502 -12.945  13.933  1.00  0.00     0.013 A 
HETATM   17  C3  UNL     1       7.609 -13.375  14.908  1.00  0.00     0.007 A 
HETATM   18  C2  UNL     1       6.335 -12.858  14.914  1.00  0.00    -0.062 A 
HETATM   19  C1  UNL     1       5.366 -13.308  15.950  1.00  0.00     0.048 C 
HETATM   20  C15 UNL     1       5.930 -11.929  13.981  1.00  0.00     0.007 A 
HETATM   21  C14 UNL     1       6.843 -11.529  13.031  1.00  0.00     0.013 A 
ENDBRANCH   1  15
TORSDOF 1
ENDMDL
