MODEL 8
REMARK VINA RESULT: -4.886383971      1.613      3.747
REMARK  5 active torsions:
REMARK  status: ('A' for Active; 'I' for Inactive)
REMARK    1  A    between atoms: C1_2  and  C2_4 
REMARK    2  A    between atoms: C3_6  and  O4_7 
REMARK    3  A    between atoms: C4_9  and  O5_10 
REMARK    4  A    between atoms: C5_12  and  O6_13 
REMARK    5  A    between atoms: C6_15  and  O7_16 
ROOT
HETATM    1  C2  UNL     1      18.648   9.640  52.597  1.00  0.00     0.256 C 
HETATM    2  O3  UNL     1      18.376   9.178  51.340  1.00  0.00    -0.340 OA
HETATM    3  C3  UNL     1      17.382   8.230  51.267  1.00  0.00     0.289 C 
HETATM    4  C4  UNL     1      16.024   8.745  51.658  1.00  0.00     0.204 C 
HETATM    5  C5  UNL     1      16.244   9.906  52.621  1.00  0.00     0.183 C 
HETATM    6  C6  UNL     1      17.436   9.476  53.481  1.00  0.00     0.189 C 
ENDROOT
BRANCH   1   7
HETATM    7  C1  UNL     1      19.869   9.065  53.194  1.00  0.00     0.206 C 
HETATM    8  O1  UNL     1      20.878   8.912  52.461  1.00  0.00    -0.646 OA
HETATM    9  O2  UNL     1      19.966   8.684  54.518  1.00  0.00    -0.646 OA
ENDBRANCH   1   7
BRANCH   6  10
HETATM   10  O7  UNL     1      17.521  10.191  54.651  1.00  0.00    -0.390 OA
ATOM     11  H7  UNL     1      17.262  11.100  54.553  1.00  0.00     0.210 HD
ENDBRANCH   6  10
BRANCH   3  12
HETATM   12  O4  UNL     1      17.297   7.809  49.940  1.00  0.00    -0.368 OA
ATOM     13  H4  UNL     1      16.376   7.735  49.721  1.00  0.00     0.212 HD
ENDBRANCH   3  12
BRANCH   5  14
HETATM   14  O6  UNL     1      15.134  10.193  53.372  1.00  0.00    -0.390 OA
ATOM     15  H6  UNL     1      14.327  10.136  52.874  1.00  0.00     0.210 HD
ENDBRANCH   5  14
BRANCH   4  16
HETATM   16  O5  UNL     1      15.247   9.126  50.583  1.00  0.00    -0.388 OA
ATOM     17  H5  UNL     1      15.410   8.620  49.796  1.00  0.00     0.210 HD
ENDBRANCH   4  16
TORSDOF 5
ENDMDL
