MODEL 4
REMARK VINA RESULT: -5.269581542      1.352      2.794
REMARK  5 active torsions:
REMARK  status: ('A' for Active; 'I' for Inactive)
REMARK    1  A    between atoms: C1_2  and  C2_4 
REMARK    2  A    between atoms: C3_6  and  O4_7 
REMARK    3  A    between atoms: C4_9  and  O5_10 
REMARK    4  A    between atoms: C5_12  and  O6_13 
REMARK    5  A    between atoms: C6_15  and  O7_16 
ROOT
HETATM    1  C2  UNL     1      17.323   8.608  52.149  1.00  0.00     0.256 C 
HETATM    2  O3  UNL     1      17.552   8.573  53.495  1.00  0.00    -0.340 OA
HETATM    3  C3  UNL     1      17.755   7.319  54.022  1.00  0.00     0.289 C 
HETATM    4  C4  UNL     1      19.006   6.648  53.525  1.00  0.00     0.204 C 
HETATM    5  C5  UNL     1      19.308   7.226  52.147  1.00  0.00     0.183 C 
HETATM    6  C6  UNL     1      17.936   7.397  51.489  1.00  0.00     0.189 C 
ENDROOT
BRANCH   1   7
HETATM    7  C1  UNL     1      15.905   8.795  51.789  1.00  0.00     0.206 C 
HETATM    8  O1  UNL     1      15.609   8.931  50.575  1.00  0.00    -0.646 OA
HETATM    9  O2  UNL     1      14.879   8.829  52.714  1.00  0.00    -0.646 OA
ENDBRANCH   1   7
BRANCH   6  10
HETATM   10  O7  UNL     1      18.022   7.513  50.123  1.00  0.00    -0.390 OA
ATOM     11  H7  UNL     1      18.853   7.870  49.830  1.00  0.00     0.210 HD
ENDBRANCH   6  10
BRANCH   3  12
HETATM   12  O4  UNL     1      17.884   7.458  55.405  1.00  0.00    -0.368 OA
ATOM     13  H4  UNL     1      18.641   6.951  55.675  1.00  0.00     0.212 HD
ENDBRANCH   3  12
BRANCH   5  14
HETATM   14  O6  UNL     1      20.147   6.432  51.409  1.00  0.00    -0.390 OA
ATOM     15  H6  UNL     1      19.741   6.104  50.615  1.00  0.00     0.210 HD
ENDBRANCH   5  14
BRANCH   4  16
HETATM   16  O5  UNL     1      20.084   6.789  54.375  1.00  0.00    -0.388 OA
ATOM     17  H5  UNL     1      20.421   5.963  54.703  1.00  0.00     0.210 HD
ENDBRANCH   4  16
TORSDOF 5
ENDMDL
