MODEL 19
REMARK VINA RESULT: -4.479933505      2.251      4.251
REMARK  5 active torsions:
REMARK  status: ('A' for Active; 'I' for Inactive)
REMARK    1  A    between atoms: C1_2  and  C2_4 
REMARK    2  A    between atoms: C3_6  and  O4_7 
REMARK    3  A    between atoms: C4_9  and  O5_10 
REMARK    4  A    between atoms: C5_12  and  O6_13 
REMARK    5  A    between atoms: C6_15  and  O7_16 
ROOT
HETATM    1  C2  UNL     1      20.612   8.269  53.346  1.00  0.00     0.256 C 
HETATM    2  O3  UNL     1      20.832   8.004  52.024  1.00  0.00    -0.340 OA
HETATM    3  C3  UNL     1      20.167   6.907  51.528  1.00  0.00     0.289 C 
HETATM    4  C4  UNL     1      18.671   7.058  51.521  1.00  0.00     0.204 C 
HETATM    5  C5  UNL     1      18.313   8.039  52.631  1.00  0.00     0.183 C 
HETATM    6  C6  UNL     1      19.279   7.704  53.771  1.00  0.00     0.189 C 
ENDROOT
BRANCH   1   7
HETATM    7  C1  UNL     1      21.716   7.849  54.230  1.00  0.00     0.206 C 
HETATM    8  O1  UNL     1      21.629   6.736  54.807  1.00  0.00    -0.646 OA
HETATM    9  O2  UNL     1      22.844   8.613  54.461  1.00  0.00    -0.646 OA
ENDBRANCH   1   7
BRANCH   6  10
HETATM   10  O7  UNL     1      18.849   8.191  54.982  1.00  0.00    -0.390 OA
ATOM     11  H7  UNL     1      19.323   8.964  55.263  1.00  0.00     0.210 HD
ENDBRANCH   6  10
BRANCH   3  12
HETATM   12  O4  UNL     1      20.570   6.733  50.203  1.00  0.00    -0.368 OA
ATOM     13  H4  UNL     1      21.517   6.660  50.198  1.00  0.00     0.212 HD
ENDBRANCH   3  12
BRANCH   5  14
HETATM   14  O6  UNL     1      17.001   7.953  53.016  1.00  0.00    -0.390 OA
ATOM     15  H6  UNL     1      16.446   8.589  52.580  1.00  0.00     0.210 HD
ENDBRANCH   5  14
BRANCH   4  16
HETATM   16  O5  UNL     1      18.162   7.469  50.306  1.00  0.00    -0.388 OA
ATOM     17  H5  UNL     1      17.900   8.382  50.292  1.00  0.00     0.210 HD
ENDBRANCH   4  16
TORSDOF 5
ENDMDL
