MODEL 6
REMARK VINA RESULT: -5.141557647      1.082      4.091
REMARK  5 active torsions:
REMARK  status: ('A' for Active; 'I' for Inactive)
REMARK    1  A    between atoms: C1_2  and  C2_4 
REMARK    2  A    between atoms: C3_6  and  O4_7 
REMARK    3  A    between atoms: C4_9  and  O5_10 
REMARK    4  A    between atoms: C5_12  and  O6_13 
REMARK    5  A    between atoms: C6_15  and  O7_16 
ROOT
HETATM    1  C2  UNL     1      18.870   8.190  52.173  1.00  0.00     0.256 C 
HETATM    2  O3  UNL     1      18.331   8.359  50.929  1.00  0.00    -0.340 OA
HETATM    3  C3  UNL     1      17.120   7.739  50.727  1.00  0.00     0.289 C 
HETATM    4  C4  UNL     1      16.007   8.293  51.573  1.00  0.00     0.204 C 
HETATM    5  C5  UNL     1      16.646   8.878  52.827  1.00  0.00     0.183 C 
HETATM    6  C6  UNL     1      17.778   7.907  53.176  1.00  0.00     0.189 C 
ENDROOT
BRANCH   1   7
HETATM    7  C1  UNL     1      19.959   7.195  52.223  1.00  0.00     0.206 C 
HETATM    8  O1  UNL     1      20.371   6.817  53.347  1.00  0.00    -0.646 OA
HETATM    9  O2  UNL     1      20.552   6.655  51.098  1.00  0.00    -0.646 OA
ENDBRANCH   1   7
BRANCH   6  10
HETATM   10  O7  UNL     1      18.195   8.036  54.478  1.00  0.00    -0.390 OA
ATOM     11  H7  UNL     1      18.696   7.289  54.785  1.00  0.00     0.210 HD
ENDBRANCH   6  10
BRANCH   3  12
HETATM   12  O4  UNL     1      16.761   7.938  49.393  1.00  0.00    -0.368 OA
ATOM     13  H4  UNL     1      15.908   7.542  49.263  1.00  0.00     0.212 HD
ENDBRANCH   3  12
BRANCH   5  14
HETATM   14  O6  UNL     1      15.754   9.032  53.857  1.00  0.00    -0.390 OA
ATOM     15  H6  UNL     1      14.860   8.835  53.604  1.00  0.00     0.210 HD
ENDBRANCH   5  14
BRANCH   4  16
HETATM   16  O5  UNL     1      15.231   9.231  50.922  1.00  0.00    -0.388 OA
ATOM     17  H5  UNL     1      14.436   8.872  50.545  1.00  0.00     0.210 HD
ENDBRANCH   4  16
TORSDOF 5
ENDMDL
