MODEL 9
REMARK VINA RESULT: -4.115641122      2.612      4.055
REMARK  5 active torsions:
REMARK  status: ('A' for Active; 'I' for Inactive)
REMARK    1  A    between atoms: C2_2  and  O1_3 
REMARK    2  A    between atoms: C2_2  and  C3_8 
REMARK    3  A    between atoms: O1_3  and  P1_4 
REMARK    4  A    between atoms: C3_8  and  N1_9 
REMARK    5  A    between atoms: C3_8  and  C4_13 
ROOT
HETATM    1  C3  UNL     1      19.401  16.493  54.228  1.00  0.00     0.312 C 
ENDROOT
BRANCH   1   2
HETATM    2  C2  UNL     1      19.061  16.061  55.632  1.00  0.00     0.172 C 
HETATM    3  C1  UNL     1      20.292  15.702  56.432  1.00  0.00     0.043 C 
BRANCH   2   4
HETATM    4  O1  UNL     1      18.273  16.978  56.248  1.00  0.00    -0.275 OA
BRANCH   4   5
HETATM    5  P1  UNL     1      16.894  16.642  56.966  1.00  0.00     0.422 P 
HETATM    6  O2  UNL     1      16.784  15.633  58.289  1.00  0.00    -0.617 OA
HETATM    7  O3  UNL     1      15.442  17.426  56.544  1.00  0.00    -0.617 OA
HETATM    8  O4  UNL     1      16.483  15.488  56.028  1.00  0.00    -0.617 OA
ENDBRANCH   4   5
ENDBRANCH   2   4
ENDBRANCH   1   2
BRANCH   1   9
HETATM    9  N1  UNL     1      18.992  17.841  53.937  1.00  0.00    -0.063 N 
ATOM     10  H13 UNL     1      18.898  18.385  54.795  1.00  0.00     0.275 HD
ATOM     11  H12 UNL     1      19.746  18.361  53.490  1.00  0.00     0.275 HD
ATOM     12  H11 UNL     1      18.138  17.888  53.381  1.00  0.00     0.275 HD
ENDBRANCH   1   9
BRANCH   1  13
HETATM   13  C4  UNL     1      18.800  15.566  53.239  1.00  0.00     0.207 C 
HETATM   14  O5  UNL     1      19.435  14.569  52.835  1.00  0.00    -0.646 OA
HETATM   15  O6  UNL     1      17.535  15.811  52.764  1.00  0.00    -0.646 OA
ENDBRANCH   1  13
TORSDOF 5
ENDMDL
