MODEL 2
REMARK VINA RESULT: -4.334423346      3.008      4.096
REMARK  5 active torsions:
REMARK  status: ('A' for Active; 'I' for Inactive)
REMARK    1  A    between atoms: C2_2  and  O1_3 
REMARK    2  A    between atoms: C2_2  and  C3_8 
REMARK    3  A    between atoms: O1_3  and  P1_4 
REMARK    4  A    between atoms: C3_8  and  N1_9 
REMARK    5  A    between atoms: C3_8  and  C4_13 
ROOT
HETATM    1  C3  UNL     1      18.693  15.237  53.953  1.00  0.00     0.312 C 
ENDROOT
BRANCH   1   2
HETATM    2  C2  UNL     1      17.818  14.928  55.141  1.00  0.00     0.172 C 
HETATM    3  C1  UNL     1      17.686  13.441  55.381  1.00  0.00     0.043 C 
BRANCH   2   4
HETATM    4  O1  UNL     1      18.225  15.612  56.240  1.00  0.00    -0.275 OA
BRANCH   4   5
HETATM    5  P1  UNL     1      17.299  16.588  57.087  1.00  0.00     0.422 P 
HETATM    6  O2  UNL     1      17.871  17.503  58.358  1.00  0.00    -0.617 OA
HETATM    7  O3  UNL     1      15.683  16.905  56.650  1.00  0.00    -0.617 OA
HETATM    8  O4  UNL     1      16.769  15.522  58.069  1.00  0.00    -0.617 OA
ENDBRANCH   4   5
ENDBRANCH   2   4
ENDBRANCH   1   2
BRANCH   1   9
HETATM    9  N1  UNL     1      20.064  15.483  54.311  1.00  0.00    -0.063 N 
ATOM     10  H13 UNL     1      20.448  16.258  53.769  1.00  0.00     0.275 HD
ATOM     11  H12 UNL     1      20.130  15.884  55.246  1.00  0.00     0.275 HD
ATOM     12  H11 UNL     1      20.653  14.655  54.228  1.00  0.00     0.275 HD
ENDBRANCH   1   9
BRANCH   1  13
HETATM   13  C4  UNL     1      18.159  16.398  53.202  1.00  0.00     0.207 C 
HETATM   14  O5  UNL     1      18.585  17.551  53.426  1.00  0.00    -0.646 OA
HETATM   15  O6  UNL     1      17.185  16.201  52.253  1.00  0.00    -0.646 OA
ENDBRANCH   1  13
TORSDOF 5
ENDMDL
