MODEL 6
REMARK VINA RESULT: -4.129688254      3.396      4.607
REMARK  5 active torsions:
REMARK  status: ('A' for Active; 'I' for Inactive)
REMARK    1  A    between atoms: C2_2  and  O1_3 
REMARK    2  A    between atoms: C2_2  and  C3_8 
REMARK    3  A    between atoms: O1_3  and  P1_4 
REMARK    4  A    between atoms: C3_8  and  N1_9 
REMARK    5  A    between atoms: C3_8  and  C4_13 
ROOT
HETATM    1  C3  UNL     1      17.479  17.479  57.832  1.00  0.00     0.312 C 
ENDROOT
BRANCH   1   2
HETATM    2  C2  UNL     1      18.934  17.172  57.582  1.00  0.00     0.172 C 
HETATM    3  C1  UNL     1      19.242  17.035  56.108  1.00  0.00     0.043 C 
BRANCH   2   4
HETATM    4  O1  UNL     1      19.738  18.063  58.216  1.00  0.00    -0.275 OA
BRANCH   4   5
HETATM    5  P1  UNL     1      20.477  17.784  59.596  1.00  0.00     0.422 P 
HETATM    6  O2  UNL     1      20.072  16.516  60.600  1.00  0.00    -0.617 OA
HETATM    7  O3  UNL     1      21.858  18.659  60.073  1.00  0.00    -0.617 OA
HETATM    8  O4  UNL     1      19.632  18.753  60.449  1.00  0.00    -0.617 OA
ENDBRANCH   4   5
ENDBRANCH   2   4
ENDBRANCH   1   2
BRANCH   1   9
HETATM    9  N1  UNL     1      17.178  17.694  59.222  1.00  0.00    -0.063 N 
ATOM     10  H13 UNL     1      17.380  18.657  59.493  1.00  0.00     0.275 HD
ATOM     11  H12 UNL     1      16.171  17.682  59.382  1.00  0.00     0.275 HD
ATOM     12  H11 UNL     1      17.652  17.036  59.840  1.00  0.00     0.275 HD
ENDBRANCH   1   9
BRANCH   1  13
HETATM   13  C4  UNL     1      16.620  16.395  57.299  1.00  0.00     0.207 C 
HETATM   14  O5  UNL     1      15.724  16.645  56.464  1.00  0.00    -0.646 OA
HETATM   15  O6  UNL     1      16.811  15.105  57.731  1.00  0.00    -0.646 OA
ENDBRANCH   1  13
TORSDOF 5
ENDMDL
