MODEL 1
REMARK VINA RESULT: -6.222923953      0.000      0.000
REMARK  9 active torsions:
REMARK  status: ('A' for Active; 'I' for Inactive)
REMARK    1  A    between atoms: C1_2  and  C2_4 
REMARK    2  A    between atoms: C4_6  and  O3_7 
REMARK    3  A    between atoms: C5_9  and  O4_10 
REMARK    4  A    between atoms: C6_12  and  O5_13 
REMARK    5  A    between atoms: O5_13  and  C7_14 
REMARK    6  A    between atoms: C8_15  and  C9_16 
REMARK    7  A    between atoms: C10_20  and  O9_21 
REMARK    8  A    between atoms: C11_23  and  O10_24 
REMARK    9  A    between atoms: C12_26  and  O11_27 
ROOT
HETATM    1  C7  UNL     1      -0.820  15.496   7.286  1.00  0.00     0.195 C 
HETATM    2  C8  UNL     1      -1.456  15.974   8.545  1.00  0.00     0.257 C 
HETATM    3  O8  UNL     1      -1.383  17.342   8.733  1.00  0.00    -0.340 OA
HETATM    4  C10 UNL     1      -0.518  17.992   7.897  1.00  0.00     0.289 C 
HETATM    5  C11 UNL     1       0.799  17.260   7.793  1.00  0.00     0.204 C 
HETATM    6  C12 UNL     1       0.651  15.849   7.304  1.00  0.00     0.183 C 
ENDROOT
BRANCH   1   7
HETATM    7  O5  UNL     1      -1.041  14.129   7.171  1.00  0.00    -0.347 OA
BRANCH   7   8
HETATM    8  C6  UNL     1      -1.673  13.772   6.005  1.00  0.00     0.298 C 
HETATM    9  C5  UNL     1      -2.023  12.282   5.965  1.00  0.00     0.206 C 
HETATM   10  C4  UNL     1      -0.728  11.565   6.272  1.00  0.00     0.177 C 
HETATM   11  C3  UNL     1       0.228  11.913   5.190  1.00  0.00     0.051 C 
HETATM   12  C2  UNL     1       0.206  13.084   4.538  1.00  0.00     0.147 C 
HETATM   13  O12 UNL     1      -0.780  13.988   4.929  1.00  0.00    -0.311 OA
BRANCH   9  14
HETATM   14  O4  UNL     1      -3.046  11.953   6.806  1.00  0.00    -0.388 OA
ATOM     15  H4  UNL     1      -3.062  12.464   7.607  1.00  0.00     0.210 HD
ENDBRANCH   9  14
BRANCH  10  16
HETATM   16  O3  UNL     1      -0.937  10.180   6.284  1.00  0.00    -0.389 OA
ATOM     17  H3  UNL     1      -1.777   9.989   6.687  1.00  0.00     0.210 HD
ENDBRANCH  10  16
BRANCH  12  18
HETATM   18  C1  UNL     1       1.158  13.387   3.485  1.00  0.00     0.233 C 
HETATM   19  O1  UNL     1       2.243  12.779   3.449  1.00  0.00    -0.642 OA
HETATM   20  O2  UNL     1       0.878  14.333   2.530  1.00  0.00    -0.642 OA
ENDBRANCH  12  18
ENDBRANCH   7   8
ENDBRANCH   1   7
BRANCH   2  21
HETATM   21  C9  UNL     1      -0.836  15.334   9.739  1.00  0.00     0.206 C 
HETATM   22  O6  UNL     1      -0.331  16.023  10.662  1.00  0.00    -0.646 OA
HETATM   23  O7  UNL     1      -0.779  13.950   9.903  1.00  0.00    -0.646 OA
ENDBRANCH   2  21
BRANCH   6  24
HETATM   24  O11 UNL     1       1.386  14.940   8.065  1.00  0.00    -0.390 OA
ATOM     25  H11 UNL     1       1.104  14.046   7.910  1.00  0.00     0.210 HD
ENDBRANCH   6  24
BRANCH   5  26
HETATM   26  O10 UNL     1       1.709  17.988   7.028  1.00  0.00    -0.388 OA
ATOM     27  H10 UNL     1       2.588  17.640   7.129  1.00  0.00     0.210 HD
ENDBRANCH   5  26
BRANCH   4  28
HETATM   28  O9  UNL     1      -1.079  18.287   6.675  1.00  0.00    -0.368 OA
ATOM     29  H9  UNL     1      -0.458  18.673   6.069  1.00  0.00     0.212 HD
ENDBRANCH   4  28
TORSDOF 9
ENDMDL
