MODEL 3
REMARK VINA RESULT: -6.092516898      1.723      5.837
REMARK  9 active torsions:
REMARK  status: ('A' for Active; 'I' for Inactive)
REMARK    1  A    between atoms: C1_2  and  C2_4 
REMARK    2  A    between atoms: C4_6  and  O3_7 
REMARK    3  A    between atoms: C5_9  and  O4_10 
REMARK    4  A    between atoms: C6_12  and  O5_13 
REMARK    5  A    between atoms: O5_13  and  C7_14 
REMARK    6  A    between atoms: C8_15  and  C9_16 
REMARK    7  A    between atoms: C10_20  and  O9_21 
REMARK    8  A    between atoms: C11_23  and  O10_24 
REMARK    9  A    between atoms: C12_26  and  O11_27 
ROOT
HETATM    1  C7  UNL     1      -0.300  12.930   5.248  1.00  0.00     0.195 C 
HETATM    2  C8  UNL     1      -1.210  12.284   4.261  1.00  0.00     0.257 C 
HETATM    3  O8  UNL     1      -0.751  11.075   3.773  1.00  0.00    -0.340 OA
HETATM    4  C10 UNL     1       0.559  10.802   4.051  1.00  0.00     0.289 C 
HETATM    5  C11 UNL     1       1.437  12.004   3.792  1.00  0.00     0.204 C 
HETATM    6  C12 UNL     1       1.033  13.210   4.588  1.00  0.00     0.183 C 
ENDROOT
BRANCH   1   7
HETATM    7  O5  UNL     1      -0.912  14.081   5.727  1.00  0.00    -0.347 OA
BRANCH   7   8
HETATM    8  C6  UNL     1      -0.942  14.156   7.098  1.00  0.00     0.298 C 
HETATM    9  C5  UNL     1      -2.089  15.031   7.609  1.00  0.00     0.206 C 
HETATM   10  C4  UNL     1      -1.945  16.341   6.868  1.00  0.00     0.177 C 
HETATM   11  C3  UNL     1      -0.631  16.915   7.254  1.00  0.00     0.051 C 
HETATM   12  C2  UNL     1       0.432  16.166   7.577  1.00  0.00     0.147 C 
HETATM   13  O12 UNL     1       0.247  14.785   7.536  1.00  0.00    -0.311 OA
BRANCH   9  14
HETATM   14  O4  UNL     1      -3.313  14.445   7.456  1.00  0.00    -0.388 OA
ATOM     15  H4  UNL     1      -3.511  13.794   8.119  1.00  0.00     0.210 HD
ENDBRANCH   9  14
BRANCH  10  16
HETATM   16  O3  UNL     1      -2.969  17.220   7.245  1.00  0.00    -0.389 OA
ATOM     17  H3  UNL     1      -3.109  17.161   8.183  1.00  0.00     0.210 HD
ENDBRANCH  10  16
BRANCH  12  18
HETATM   18  C1  UNL     1       1.701  16.765   7.950  1.00  0.00     0.233 C 
HETATM   19  O1  UNL     1       2.375  16.251   8.861  1.00  0.00    -0.642 OA
HETATM   20  O2  UNL     1       2.166  17.888   7.312  1.00  0.00    -0.642 OA
ENDBRANCH  12  18
ENDBRANCH   7   8
ENDBRANCH   1   7
BRANCH   2  21
HETATM   21  C9  UNL     1      -1.447  13.169   3.086  1.00  0.00     0.206 C 
HETATM   22  O6  UNL     1      -2.097  14.240   3.193  1.00  0.00    -0.646 OA
HETATM   23  O7  UNL     1      -0.967  12.866   1.811  1.00  0.00    -0.646 OA
ENDBRANCH   2  21
BRANCH   6  24
HETATM   24  O11 UNL     1       0.987  14.370   3.814  1.00  0.00    -0.390 OA
ATOM     25  H11 UNL     1       1.184  14.189   2.903  1.00  0.00     0.210 HD
ENDBRANCH   6  24
BRANCH   5  26
HETATM   26  O10 UNL     1       2.781  11.681   3.972  1.00  0.00    -0.388 OA
ATOM     27  H10 UNL     1       3.321  12.463   3.947  1.00  0.00     0.210 HD
ENDBRANCH   5  26
BRANCH   4  28
HETATM   28  O9  UNL     1       0.736  10.254   5.302  1.00  0.00    -0.368 OA
ATOM     29  H9  UNL     1       0.974  10.900   5.956  1.00  0.00     0.212 HD
ENDBRANCH   4  28
TORSDOF 9
ENDMDL
