MODEL 2
REMARK VINA RESULT: -6.104128680      1.638      5.969
REMARK  9 active torsions:
REMARK  status: ('A' for Active; 'I' for Inactive)
REMARK    1  A    between atoms: C1_2  and  C2_4 
REMARK    2  A    between atoms: C4_6  and  O3_7 
REMARK    3  A    between atoms: C5_9  and  O4_10 
REMARK    4  A    between atoms: C6_12  and  O5_13 
REMARK    5  A    between atoms: O5_13  and  C7_14 
REMARK    6  A    between atoms: C8_15  and  C9_16 
REMARK    7  A    between atoms: C10_20  and  O9_21 
REMARK    8  A    between atoms: C11_23  and  O10_24 
REMARK    9  A    between atoms: C12_26  and  O11_27 
ROOT
HETATM    1  C7  UNL     1      -0.071  13.548   5.730  1.00  0.00     0.195 C 
HETATM    2  C8  UNL     1      -1.144  12.674   5.180  1.00  0.00     0.257 C 
HETATM    3  O8  UNL     1      -0.759  11.362   4.978  1.00  0.00    -0.340 OA
HETATM    4  C10 UNL     1       0.588  11.140   5.049  1.00  0.00     0.289 C 
HETATM    5  C11 UNL     1       1.358  12.188   4.281  1.00  0.00     0.204 C 
HETATM    6  C12 UNL     1       1.090  13.584   4.760  1.00  0.00     0.183 C 
ENDROOT
BRANCH   1   7
HETATM    7  O5  UNL     1      -0.607  14.807   5.972  1.00  0.00    -0.347 OA
BRANCH   7   8
HETATM    8  C6  UNL     1      -1.504  14.831   7.012  1.00  0.00     0.298 C 
HETATM    9  C5  UNL     1      -2.281  16.147   7.080  1.00  0.00     0.206 C 
HETATM   10  C4  UNL     1      -1.224  17.228   7.081  1.00  0.00     0.177 C 
HETATM   11  C3  UNL     1      -0.406  17.034   8.304  1.00  0.00     0.051 C 
HETATM   12  C2  UNL     1      -0.190  15.834   8.861  1.00  0.00     0.147 C 
HETATM   13  O12 UNL     1      -0.783  14.744   8.225  1.00  0.00    -0.311 OA
BRANCH   9  14
HETATM   14  O4  UNL     1      -3.198  16.277   6.077  1.00  0.00    -0.388 OA
ATOM     15  H4  UNL     1      -4.098  16.173   6.365  1.00  0.00     0.210 HD
ENDBRANCH   9  14
BRANCH  10  16
HETATM   16  O3  UNL     1      -1.830  18.492   7.119  1.00  0.00    -0.389 OA
ATOM     17  H3  UNL     1      -2.088  18.747   6.241  1.00  0.00     0.210 HD
ENDBRANCH  10  16
BRANCH  12  18
HETATM   18  C1  UNL     1       0.617  15.684  10.059  1.00  0.00     0.233 C 
HETATM   19  O1  UNL     1       0.068  15.727  11.174  1.00  0.00    -0.642 OA
HETATM   20  O2  UNL     1       1.975  15.496   9.977  1.00  0.00    -0.642 OA
ENDBRANCH  12  18
ENDBRANCH   7   8
ENDBRANCH   1   7
BRANCH   2  21
HETATM   21  C9  UNL     1      -1.642  13.189   3.873  1.00  0.00     0.206 C 
HETATM   22  O6  UNL     1      -2.317  14.248   3.802  1.00  0.00    -0.646 OA
HETATM   23  O7  UNL     1      -1.394  12.536   2.666  1.00  0.00    -0.646 OA
ENDBRANCH   2  21
BRANCH   6  24
HETATM   24  O11 UNL     1       0.852  14.473   3.711  1.00  0.00    -0.390 OA
ATOM     25  H11 UNL     1       0.528  14.024   2.940  1.00  0.00     0.210 HD
ENDBRANCH   6  24
BRANCH   5  26
HETATM   26  O10 UNL     1       2.720  11.890   4.268  1.00  0.00    -0.388 OA
ATOM     27  H10 UNL     1       2.986  11.570   3.414  1.00  0.00     0.210 HD
ENDBRANCH   5  26
BRANCH   4  28
HETATM   28  O9  UNL     1       1.033  10.971   6.341  1.00  0.00    -0.368 OA
ATOM     29  H9  UNL     1       1.970  11.095   6.427  1.00  0.00     0.212 HD
ENDBRANCH   4  28
TORSDOF 9
ENDMDL
