MODEL 2
REMARK VINA RESULT: -6.245715232      2.406      6.073
REMARK  8 active torsions:
REMARK  status: ('A' for Active; 'I' for Inactive)
REMARK    1  A    between atoms: N1_2  and  N2_3 
REMARK       I    between atoms: N1_2  and  C2_7 
REMARK    2  A    between atoms: N2_3  and  O1_5 
REMARK       I    between atoms: C2_7  and  N3_9 
REMARK    3  A    between atoms: N3_9  and  C3_11 
REMARK    4  A    between atoms: C4_12  and  O3_13 
REMARK    5  A    between atoms: C5_16  and  C6_17 
REMARK    6  A    between atoms: C6_17  and  O5_18 
REMARK    7  A    between atoms: C7_20  and  O6_21 
REMARK    8  A    between atoms: C8_23  and  O7_24 
ROOT
HETATM    1  C3  UNL     1      -8.728 -13.168   9.668  1.00  0.00     0.172 C 
HETATM    2  C4  UNL     1      -8.989 -14.293  10.652  1.00  0.00     0.282 C 
HETATM    3  O4  UNL     1     -10.335 -14.631  10.747  1.00  0.00    -0.349 OA
HETATM    4  C5  UNL     1     -10.909 -15.045   9.574  1.00  0.00     0.179 C 
HETATM    5  C7  UNL     1     -10.115 -14.666   8.337  1.00  0.00     0.180 C 
HETATM    6  C8  UNL     1      -9.585 -13.250   8.446  1.00  0.00     0.177 C 
ENDROOT
BRANCH   1   7
HETATM    7  N3  UNL     1      -8.804 -11.870  10.316  1.00  0.00    -0.330 N 
HETATM    8  C2  UNL     1      -7.992 -10.769   9.988  1.00  0.00     0.338 C 
HETATM    9  N1  UNL     1      -8.157  -9.529  10.699  1.00  0.00    -0.228 N 
HETATM   10  O2  UNL     1      -7.143 -10.904   9.081  1.00  0.00    -0.245 OA
HETATM   11  C1  UNL     1      -7.355  -8.359  10.412  1.00  0.00     0.185 C 
ATOM     12  H3  UNL     1      -9.493 -11.749  11.058  1.00  0.00     0.165 HD
BRANCH   9  13
HETATM   13  N2  UNL     1      -9.117  -9.418  11.708  1.00  0.00    -0.204 N 
ATOM     14  H2  UNL     1      -9.743  -8.612  11.683  1.00  0.00     0.216 HD
BRANCH  13  15
HETATM   15  O1  UNL     1      -9.258 -10.224  12.622  1.00  0.00    -0.274 OA
ATOM     16  H1  UNL     1      -9.925 -10.160  13.296  1.00  0.00     0.246 HD
ENDBRANCH  13  15
ENDBRANCH   9  13
ENDBRANCH   1   7
BRANCH   2  17
HETATM   17  O3  UNL     1      -8.288 -15.453  10.325  1.00  0.00    -0.369 OA
ATOM     18  H3  UNL     1      -7.696 -15.722  11.019  1.00  0.00     0.212 HD
ENDBRANCH   2  17
BRANCH   6  19
HETATM   19  O7  UNL     1      -8.798 -13.015   7.322  1.00  0.00    -0.391 OA
ATOM     20  H7  UNL     1      -9.354 -13.001   6.552  1.00  0.00     0.210 HD
ENDBRANCH   6  19
BRANCH   5  21
HETATM   21  O6  UNL     1     -10.889 -14.738   7.191  1.00  0.00    -0.390 OA
ATOM     22  H6  UNL     1     -10.365 -14.951   6.427  1.00  0.00     0.210 HD
ENDBRANCH   5  21
BRANCH   4  23
HETATM   23  C6  UNL     1     -11.253 -16.515   9.567  1.00  0.00     0.198 C 
BRANCH  23  24
HETATM   24  O5  UNL     1     -10.338 -17.202   8.796  1.00  0.00    -0.398 OA
ATOM     25  H5  UNL     1     -10.333 -18.118   9.047  1.00  0.00     0.209 HD
ENDBRANCH  23  24
ENDBRANCH   4  23
TORSDOF 8
ENDMDL
