MODEL 3
REMARK VINA RESULT: -6.180884116      3.749      4.948
REMARK  8 active torsions:
REMARK  status: ('A' for Active; 'I' for Inactive)
REMARK    1  A    between atoms: N1_2  and  N2_3 
REMARK       I    between atoms: N1_2  and  C2_7 
REMARK    2  A    between atoms: N2_3  and  O1_5 
REMARK       I    between atoms: C2_7  and  N3_9 
REMARK    3  A    between atoms: N3_9  and  C3_11 
REMARK    4  A    between atoms: C4_12  and  O3_13 
REMARK    5  A    between atoms: C5_16  and  C6_17 
REMARK    6  A    between atoms: C6_17  and  O5_18 
REMARK    7  A    between atoms: C7_20  and  O6_21 
REMARK    8  A    between atoms: C8_23  and  O7_24 
ROOT
HETATM    1  C3  UNL     1      -8.390 -14.928   9.695  1.00  0.00     0.172 C 
HETATM    2  C4  UNL     1      -7.707 -14.247   8.524  1.00  0.00     0.282 C 
HETATM    3  O4  UNL     1      -8.592 -13.555   7.705  1.00  0.00    -0.349 OA
HETATM    4  C5  UNL     1      -9.299 -12.561   8.330  1.00  0.00     0.179 C 
HETATM    5  C7  UNL     1      -9.303 -12.673   9.844  1.00  0.00     0.180 C 
HETATM    6  C8  UNL     1      -9.497 -14.111  10.281  1.00  0.00     0.177 C 
ENDROOT
BRANCH   1   7
HETATM    7  N3  UNL     1      -8.813 -16.274   9.350  1.00  0.00    -0.330 N 
HETATM    8  C2  UNL     1      -8.948 -17.326  10.275  1.00  0.00     0.338 C 
HETATM    9  N1  UNL     1      -9.376 -18.621   9.818  1.00  0.00    -0.228 N 
HETATM   10  O2  UNL     1      -8.688 -17.100  11.477  1.00  0.00    -0.245 OA
HETATM   11  C1  UNL     1      -9.535 -19.746  10.716  1.00  0.00     0.185 C 
ATOM     12  H3  UNL     1      -9.027 -16.469   8.373  1.00  0.00     0.165 HD
BRANCH   9  13
HETATM   13  N2  UNL     1      -9.657 -18.834   8.467  1.00  0.00    -0.204 N 
ATOM     14  H2  UNL     1      -9.559 -18.043   7.830  1.00  0.00     0.216 HD
BRANCH  13  15
HETATM   15  O1  UNL     1     -10.014 -19.909   7.993  1.00  0.00    -0.274 OA
ATOM     16  H1  UNL     1      -9.481 -20.445   7.418  1.00  0.00     0.246 HD
ENDBRANCH  13  15
ENDBRANCH   9  13
ENDBRANCH   1   7
BRANCH   2  17
HETATM   17  O3  UNL     1      -6.726 -13.346   8.937  1.00  0.00    -0.369 OA
ATOM     18  H3  UNL     1      -5.858 -13.604   8.651  1.00  0.00     0.212 HD
ENDBRANCH   2  17
BRANCH   6  19
HETATM   19  O7  UNL     1      -9.396 -14.139  11.669  1.00  0.00    -0.391 OA
ATOM     20  H7  UNL     1      -9.950 -13.458  12.034  1.00  0.00     0.210 HD
ENDBRANCH   6  19
BRANCH   5  21
HETATM   21  O6  UNL     1     -10.319 -11.921  10.410  1.00  0.00    -0.390 OA
ATOM     22  H6  UNL     1     -10.713 -12.366  11.151  1.00  0.00     0.210 HD
ENDBRANCH   5  21
BRANCH   4  23
HETATM   23  C6  UNL     1      -8.893 -11.175   7.890  1.00  0.00     0.198 C 
BRANCH  23  24
HETATM   24  O5  UNL     1      -9.965 -10.316   8.018  1.00  0.00    -0.398 OA
ATOM     25  H5  UNL     1     -10.323 -10.123   7.160  1.00  0.00     0.209 HD
ENDBRANCH  23  24
ENDBRANCH   4  23
TORSDOF 8
ENDMDL
