MODEL 1
REMARK VINA RESULT: -6.258652303      0.000      0.000
REMARK  8 active torsions:
REMARK  status: ('A' for Active; 'I' for Inactive)
REMARK    1  A    between atoms: N1_2  and  N2_3 
REMARK       I    between atoms: N1_2  and  C2_7 
REMARK    2  A    between atoms: N2_3  and  O1_5 
REMARK       I    between atoms: C2_7  and  N3_9 
REMARK    3  A    between atoms: N3_9  and  C3_11 
REMARK    4  A    between atoms: C4_12  and  O3_13 
REMARK    5  A    between atoms: C5_16  and  C6_17 
REMARK    6  A    between atoms: C6_17  and  O5_18 
REMARK    7  A    between atoms: C7_20  and  O6_21 
REMARK    8  A    between atoms: C8_23  and  O7_24 
ROOT
HETATM    1  C3  UNL     1      -8.190 -11.532   9.419  1.00  0.00     0.172 C 
HETATM    2  C4  UNL     1      -7.267 -10.361   9.133  1.00  0.00     0.282 C 
HETATM    3  O4  UNL     1      -7.850  -9.129   9.407  1.00  0.00    -0.349 OA
HETATM    4  C5  UNL     1      -8.250  -8.957  10.706  1.00  0.00     0.179 C 
HETATM    5  C7  UNL     1      -8.371 -10.253  11.486  1.00  0.00     0.180 C 
HETATM    6  C8  UNL     1      -9.022 -11.333  10.645  1.00  0.00     0.177 C 
ENDROOT
BRANCH   1   7
HETATM    7  N3  UNL     1      -8.988 -11.873   8.254  1.00  0.00    -0.330 N 
HETATM    8  C2  UNL     1      -9.556 -13.139   8.023  1.00  0.00     0.338 C 
HETATM    9  N1  UNL     1     -10.330 -13.363   6.831  1.00  0.00    -0.228 N 
HETATM   10  O2  UNL     1      -9.368 -14.040   8.869  1.00  0.00    -0.245 OA
HETATM   11  C1  UNL     1     -10.941 -14.641   6.533  1.00  0.00     0.185 C 
ATOM     12  H3  UNL     1      -9.147 -11.146   7.557  1.00  0.00     0.165 HD
BRANCH   9  13
HETATM   13  N2  UNL     1     -10.517 -12.331   5.909  1.00  0.00    -0.204 N 
ATOM     14  H2  UNL     1     -10.378 -12.544   4.921  1.00  0.00     0.216 HD
BRANCH  13  15
HETATM   15  O1  UNL     1     -10.837 -11.184   6.207  1.00  0.00    -0.274 OA
ATOM     16  H1  UNL     1     -10.306 -10.416   6.031  1.00  0.00     0.246 HD
ENDBRANCH  13  15
ENDBRANCH   9  13
ENDBRANCH   1   7
BRANCH   2  17
HETATM   17  O3  UNL     1      -6.081 -10.435   9.862  1.00  0.00    -0.369 OA
ATOM     18  H3  UNL     1      -5.317 -10.479   9.299  1.00  0.00     0.212 HD
ENDBRANCH   2  17
BRANCH   6  19
HETATM   19  O7  UNL     1      -9.010 -12.506  11.396  1.00  0.00    -0.391 OA
ATOM     20  H7  UNL     1      -8.830 -12.290  12.304  1.00  0.00     0.210 HD
ENDBRANCH   6  19
BRANCH   5  21
HETATM   21  O6  UNL     1      -9.135 -10.093  12.630  1.00  0.00    -0.390 OA
ATOM     22  H6  UNL     1      -9.882 -10.680  12.637  1.00  0.00     0.210 HD
ENDBRANCH   5  21
BRANCH   4  23
HETATM   23  C6  UNL     1      -7.414  -7.949  11.457  1.00  0.00     0.198 C 
BRANCH  23  24
HETATM   24  O5  UNL     1      -6.449  -8.604  12.195  1.00  0.00    -0.398 OA
ATOM     25  H5  UNL     1      -5.598  -8.474  11.794  1.00  0.00     0.209 HD
ENDBRANCH  23  24
ENDBRANCH   4  23
TORSDOF 8
ENDMDL
