MODEL 12
REMARK VINA RESULT: -5.847529145      1.689      2.083
REMARK  8 active torsions:
REMARK  status: ('A' for Active; 'I' for Inactive)
REMARK    1  A    between atoms: N1_2  and  N2_3 
REMARK       I    between atoms: N1_2  and  C2_7 
REMARK    2  A    between atoms: N2_3  and  O1_5 
REMARK       I    between atoms: C2_7  and  N3_9 
REMARK    3  A    between atoms: N3_9  and  C3_11 
REMARK    4  A    between atoms: C4_12  and  O3_13 
REMARK    5  A    between atoms: C5_16  and  C6_17 
REMARK    6  A    between atoms: C6_17  and  O5_18 
REMARK    7  A    between atoms: C7_20  and  O6_21 
REMARK    8  A    between atoms: C8_23  and  O7_24 
ROOT
HETATM    1  C3  UNL     1      -7.385 -11.603  10.469  1.00  0.00     0.172 C 
HETATM    2  C4  UNL     1      -6.064 -10.995  10.035  1.00  0.00     0.282 C 
HETATM    3  O4  UNL     1      -6.186  -9.680   9.600  1.00  0.00    -0.349 OA
HETATM    4  C5  UNL     1      -6.687  -8.810  10.533  1.00  0.00     0.179 C 
HETATM    5  C7  UNL     1      -7.394  -9.493  11.689  1.00  0.00     0.180 C 
HETATM    6  C8  UNL     1      -8.262 -10.634  11.196  1.00  0.00     0.177 C 
ENDROOT
BRANCH   1   7
HETATM    7  N3  UNL     1      -8.065 -12.241   9.356  1.00  0.00    -0.330 N 
HETATM    8  C2  UNL     1      -8.941 -11.581   8.475  1.00  0.00     0.338 C 
HETATM    9  N1  UNL     1      -9.560 -12.317   7.405  1.00  0.00    -0.228 N 
HETATM   10  O2  UNL     1      -9.159 -10.363   8.652  1.00  0.00    -0.245 OA
HETATM   11  C1  UNL     1     -10.471 -11.699   6.465  1.00  0.00     0.185 C 
ATOM     12  H3  UNL     1      -7.895 -13.235   9.202  1.00  0.00     0.165 HD
BRANCH   9  13
HETATM   13  N2  UNL     1      -9.292 -13.678   7.240  1.00  0.00    -0.204 N 
ATOM     14  H2  UNL     1     -10.085 -14.321   7.225  1.00  0.00     0.216 HD
BRANCH  13  15
HETATM   15  O1  UNL     1      -8.168 -14.153   7.112  1.00  0.00    -0.274 OA
ATOM     16  H1  UNL     1      -7.835 -14.888   7.615  1.00  0.00     0.246 HD
ENDBRANCH  13  15
ENDBRANCH   9  13
ENDBRANCH   1   7
BRANCH   2  17
HETATM   17  O3  UNL     1      -5.115 -11.014  11.055  1.00  0.00    -0.369 OA
ATOM     18  H3  UNL     1      -5.483 -10.756  11.892  1.00  0.00     0.212 HD
ENDBRANCH   2  17
BRANCH   6  19
HETATM   19  O7  UNL     1      -8.798 -11.261  12.318  1.00  0.00    -0.391 OA
ATOM     20  H7  UNL     1      -9.355 -11.977  12.035  1.00  0.00     0.210 HD
ENDBRANCH   6  19
BRANCH   5  21
HETATM   21  O6  UNL     1      -8.210  -8.613  12.381  1.00  0.00    -0.390 OA
ATOM     22  H6  UNL     1      -7.742  -8.183  13.088  1.00  0.00     0.210 HD
ENDBRANCH   5  21
BRANCH   4  23
HETATM   23  C6  UNL     1      -5.662  -7.820  11.033  1.00  0.00     0.198 C 
BRANCH  23  24
HETATM   24  O5  UNL     1      -5.035  -8.328  12.152  1.00  0.00    -0.398 OA
ATOM     25  H5  UNL     1      -4.827  -9.244  12.013  1.00  0.00     0.209 HD
ENDBRANCH  23  24
ENDBRANCH   4  23
TORSDOF 8
ENDMDL
