MODEL 10
REMARK VINA RESULT: -5.905546442      1.219      1.457
REMARK  8 active torsions:
REMARK  status: ('A' for Active; 'I' for Inactive)
REMARK    1  A    between atoms: N1_2  and  N2_3 
REMARK       I    between atoms: N1_2  and  C2_7 
REMARK    2  A    between atoms: N2_3  and  O1_5 
REMARK       I    between atoms: C2_7  and  N3_9 
REMARK    3  A    between atoms: N3_9  and  C3_11 
REMARK    4  A    between atoms: C4_12  and  O3_13 
REMARK    5  A    between atoms: C5_16  and  C6_17 
REMARK    6  A    between atoms: C6_17  and  O5_18 
REMARK    7  A    between atoms: C7_20  and  O6_21 
REMARK    8  A    between atoms: C8_23  and  O7_24 
ROOT
HETATM    1  C3  UNL     1      -8.066 -11.089  10.139  1.00  0.00     0.172 C 
HETATM    2  C4  UNL     1      -6.581 -10.960   9.853  1.00  0.00     0.282 C 
HETATM    3  O4  UNL     1      -6.181  -9.647   9.635  1.00  0.00    -0.349 OA
HETATM    4  C5  UNL     1      -6.416  -8.792  10.680  1.00  0.00     0.179 C 
HETATM    5  C7  UNL     1      -7.424  -9.318  11.686  1.00  0.00     0.180 C 
HETATM    6  C8  UNL     1      -8.596  -9.976  10.985  1.00  0.00     0.177 C 
ENDROOT
BRANCH   1   7
HETATM    7  N3  UNL     1      -8.827 -11.269   8.915  1.00  0.00    -0.330 N 
HETATM    8  C2  UNL     1      -9.218 -12.518   8.399  1.00  0.00     0.338 C 
HETATM    9  N1  UNL     1      -9.972 -12.574   7.174  1.00  0.00    -0.228 N 
HETATM   10  O2  UNL     1      -8.894 -13.550   9.025  1.00  0.00    -0.245 OA
HETATM   11  C1  UNL     1     -10.405 -13.825   6.588  1.00  0.00     0.185 C 
ATOM     12  H3  UNL     1      -9.096 -10.433   8.396  1.00  0.00     0.165 HD
BRANCH   9  13
HETATM   13  N2  UNL     1     -10.314 -11.398   6.503  1.00  0.00    -0.204 N 
ATOM     14  H2  UNL     1     -10.466 -11.452   5.496  1.00  0.00     0.216 HD
BRANCH  13  15
HETATM   15  O1  UNL     1     -10.444 -10.304   7.044  1.00  0.00    -0.274 OA
ATOM     16  H1  UNL     1     -10.853  -9.549   6.636  1.00  0.00     0.246 HD
ENDBRANCH  13  15
ENDBRANCH   9  13
ENDBRANCH   1   7
BRANCH   2  17
HETATM   17  O3  UNL     1      -5.799 -11.471  10.888  1.00  0.00    -0.369 OA
ATOM     18  H3  UNL     1      -4.943 -11.752  10.585  1.00  0.00     0.212 HD
ENDBRANCH   2  17
BRANCH   6  19
HETATM   19  O7  UNL     1      -9.421 -10.509  11.972  1.00  0.00    -0.391 OA
ATOM     20  H7  UNL     1      -9.868 -11.272  11.623  1.00  0.00     0.210 HD
ENDBRANCH   6  19
BRANCH   5  21
HETATM   21  O6  UNL     1      -7.926  -8.304  12.484  1.00  0.00    -0.390 OA
ATOM     22  H6  UNL     1      -8.178  -8.626  13.342  1.00  0.00     0.210 HD
ENDBRANCH   5  21
BRANCH   4  23
HETATM   23  C6  UNL     1      -5.154  -8.332  11.368  1.00  0.00     0.198 C 
BRANCH  23  24
HETATM   24  O5  UNL     1      -5.014  -8.993  12.571  1.00  0.00    -0.398 OA
ATOM     25  H5  UNL     1      -5.632  -9.713  12.613  1.00  0.00     0.209 HD
ENDBRANCH  23  24
ENDBRANCH   4  23
TORSDOF 8
ENDMDL
