MODEL 4
REMARK VINA RESULT: -6.095995068      2.628      6.047
REMARK  8 active torsions:
REMARK  status: ('A' for Active; 'I' for Inactive)
REMARK    1  A    between atoms: N1_2  and  N2_3 
REMARK       I    between atoms: N1_2  and  C2_7 
REMARK    2  A    between atoms: N2_3  and  O1_5 
REMARK       I    between atoms: C2_7  and  N3_9 
REMARK    3  A    between atoms: N3_9  and  C3_11 
REMARK    4  A    between atoms: C4_12  and  O3_13 
REMARK    5  A    between atoms: C5_16  and  C6_17 
REMARK    6  A    between atoms: C6_17  and  O5_18 
REMARK    7  A    between atoms: C7_20  and  O6_21 
REMARK    8  A    between atoms: C8_23  and  O7_24 
ROOT
HETATM    1  C3  UNL     1      -8.066 -12.899  10.242  1.00  0.00     0.172 C 
HETATM    2  C4  UNL     1      -9.161 -13.806  10.771  1.00  0.00     0.282 C 
HETATM    3  O4  UNL     1     -10.323 -13.759  10.010  1.00  0.00    -0.349 OA
HETATM    4  C5  UNL     1     -10.167 -14.120   8.697  1.00  0.00     0.179 C 
HETATM    5  C7  UNL     1      -8.725 -14.095   8.224  1.00  0.00     0.180 C 
HETATM    6  C8  UNL     1      -8.002 -12.870   8.748  1.00  0.00     0.177 C 
ENDROOT
BRANCH   1   7
HETATM    7  N3  UNL     1      -8.155 -11.569  10.820  1.00  0.00    -0.330 N 
HETATM    8  C2  UNL     1      -7.071 -10.680  10.939  1.00  0.00     0.338 C 
HETATM    9  N1  UNL     1      -7.278  -9.385  11.531  1.00  0.00    -0.228 N 
HETATM   10  O2  UNL     1      -5.951 -11.047  10.525  1.00  0.00    -0.245 OA
HETATM   11  C1  UNL     1      -6.206  -8.424  11.684  1.00  0.00     0.185 C 
ATOM     12  H3  UNL     1      -9.065 -11.260  11.163  1.00  0.00     0.165 HD
BRANCH   9  13
HETATM   13  N2  UNL     1      -8.545  -9.012  11.984  1.00  0.00    -0.204 N 
ATOM     14  H2  UNL     1      -8.865  -8.065  11.777  1.00  0.00     0.216 HD
BRANCH  13  15
HETATM   15  O1  UNL     1      -9.300  -9.746  12.614  1.00  0.00    -0.274 OA
ATOM     16  H1  UNL     1      -9.791 -10.465  12.234  1.00  0.00     0.246 HD
ENDBRANCH  13  15
ENDBRANCH   9  13
ENDBRANCH   1   7
BRANCH   2  17
HETATM   17  O3  UNL     1      -8.756 -15.139  10.836  1.00  0.00    -0.369 OA
ATOM     18  H3  UNL     1      -9.469 -15.719  11.074  1.00  0.00     0.212 HD
ENDBRANCH   2  17
BRANCH   6  19
HETATM   19  O7  UNL     1      -6.672 -12.971   8.349  1.00  0.00    -0.391 OA
ATOM     20  H7  UNL     1      -6.407 -12.153   7.945  1.00  0.00     0.210 HD
ENDBRANCH   6  19
BRANCH   5  21
HETATM   21  O6  UNL     1      -8.641 -14.073   6.841  1.00  0.00    -0.390 OA
ATOM     22  H6  UNL     1      -8.895 -13.228   6.488  1.00  0.00     0.210 HD
ENDBRANCH   5  21
BRANCH   4  23
HETATM   23  C6  UNL     1     -10.825 -15.436   8.360  1.00  0.00     0.198 C 
BRANCH  23  24
HETATM   24  O5  UNL     1      -9.943 -16.470   8.597  1.00  0.00    -0.398 OA
ATOM     25  H5  UNL     1     -10.200 -16.934   9.386  1.00  0.00     0.209 HD
ENDBRANCH  23  24
ENDBRANCH   4  23
TORSDOF 8
ENDMDL
