MODEL 4
REMARK VINA RESULT: -6.053782011      1.982      5.407
REMARK  6 active torsions:
REMARK  status: ('A' for Active; 'I' for Inactive)
REMARK       I    between atoms: C2_2  and  N1_4 
REMARK    1  A    between atoms: N1_4  and  C3_6 
REMARK    2  A    between atoms: C4_7  and  O2_8 
REMARK    3  A    between atoms: C6_13  and  C7_14 
REMARK    4  A    between atoms: C7_14  and  O3_15 
REMARK    5  A    between atoms: C8_17  and  O4_18 
REMARK    6  A    between atoms: C9_20  and  O5_21 
ROOT
HETATM    1  C3  UNL     1       6.228 -13.640   1.124  1.00  0.00     0.146 C 
HETATM    2  C4  UNL     1       4.965 -13.951   1.872  1.00  0.00     0.160 C 
HETATM    3  C5  UNL     1       4.138 -12.704   2.012  1.00  0.00     0.148 C 
HETATM    4  N2  UNL     1       4.717 -11.710   2.865  1.00  0.00    -0.410 N 
ATOM      5  H2  UNL     1       4.471 -10.723   2.791  1.00  0.00     0.153 HD
HETATM    6  C6  UNL     1       5.651 -12.182   3.818  1.00  0.00     0.131 C 
HETATM    7  C8  UNL     1       6.952 -12.654   3.319  1.00  0.00     0.173 C 
HETATM    8  C9  UNL     1       7.126 -12.667   1.833  1.00  0.00     0.174 C 
ENDROOT
BRANCH   1   9
HETATM    9  N1  UNL     1       6.903 -14.890   0.846  1.00  0.00    -0.352 N 
HETATM   10  C2  UNL     1       6.922 -15.512  -0.422  1.00  0.00     0.214 C 
HETATM   11  C1  UNL     1       7.618 -16.797  -0.693  1.00  0.00     0.117 C 
HETATM   12  O1  UNL     1       6.325 -14.958  -1.367  1.00  0.00    -0.274 OA
ATOM     13  H1  UNL     1       7.394 -15.350   1.612  1.00  0.00     0.163 HD
ENDBRANCH   1   9
BRANCH   2  14
HETATM   14  O2  UNL     1       4.230 -14.846   1.089  1.00  0.00    -0.392 OA
ATOM     15  H2  UNL     1       3.318 -14.755   1.340  1.00  0.00     0.210 HD
ENDBRANCH   2  14
BRANCH   8  16
HETATM   16  O5  UNL     1       7.112 -11.396   1.263  1.00  0.00    -0.391 OA
ATOM     17  H5  UNL     1       7.468 -11.378   0.382  1.00  0.00     0.210 HD
ENDBRANCH   8  16
BRANCH   7  18
HETATM   18  O4  UNL     1       7.241 -13.969   3.761  1.00  0.00    -0.391 OA
ATOM     19  H4  UNL     1       8.162 -14.077   3.968  1.00  0.00     0.210 HD
ENDBRANCH   7  18
BRANCH   6  20
HETATM   20  C7  UNL     1       5.896 -11.027   4.798  1.00  0.00     0.191 C 
BRANCH  20  21
HETATM   21  O3  UNL     1       5.959  -9.872   3.983  1.00  0.00    -0.399 OA
ATOM     22  H3  UNL     1       5.125  -9.436   4.118  1.00  0.00     0.209 HD
ENDBRANCH  20  21
ENDBRANCH   6  20
TORSDOF 6
ENDMDL
