MODEL 14
REMARK VINA RESULT: -5.062596183      1.545      2.462
REMARK  6 active torsions:
REMARK  status: ('A' for Active; 'I' for Inactive)
REMARK       I    between atoms: C2_2  and  N1_4 
REMARK    1  A    between atoms: N1_4  and  C3_6 
REMARK    2  A    between atoms: C4_7  and  O2_8 
REMARK    3  A    between atoms: C6_13  and  C7_14 
REMARK    4  A    between atoms: C7_14  and  O3_15 
REMARK    5  A    between atoms: C8_17  and  O4_18 
REMARK    6  A    between atoms: C9_20  and  O5_21 
ROOT
HETATM    1  C3  UNL     1       7.563 -11.489   3.372  1.00  0.00     0.146 C 
HETATM    2  C4  UNL     1       7.073 -12.829   3.839  1.00  0.00     0.160 C 
HETATM    3  C5  UNL     1       7.134 -13.814   2.707  1.00  0.00     0.148 C 
HETATM    4  N2  UNL     1       6.209 -13.545   1.646  1.00  0.00    -0.410 N 
ATOM      5  H2  UNL     1       6.358 -13.891   0.697  1.00  0.00     0.153 HD
HETATM    6  C6  UNL     1       5.078 -12.770   1.994  1.00  0.00     0.131 C 
HETATM    7  C8  UNL     1       5.296 -11.347   2.299  1.00  0.00     0.173 C 
HETATM    8  C9  UNL     1       6.717 -10.879   2.293  1.00  0.00     0.174 C 
ENDROOT
BRANCH   1   9
HETATM    9  N1  UNL     1       7.668 -10.624   4.528  1.00  0.00    -0.352 N 
HETATM   10  C2  UNL     1       6.841 -10.726   5.668  1.00  0.00     0.214 C 
HETATM   11  C1  UNL     1       6.958  -9.830   6.848  1.00  0.00     0.117 C 
HETATM   12  O1  UNL     1       5.965 -11.614   5.691  1.00  0.00    -0.274 OA
ATOM     13  H1  UNL     1       8.381  -9.895   4.518  1.00  0.00     0.163 HD
ENDBRANCH   1   9
BRANCH   2  14
HETATM   14  O2  UNL     1       7.962 -13.276   4.821  1.00  0.00    -0.392 OA
ATOM     15  H2  UNL     1       7.797 -14.203   4.948  1.00  0.00     0.210 HD
ENDBRANCH   2  14
BRANCH   8  16
HETATM   16  O5  UNL     1       7.312 -10.935   1.034  1.00  0.00    -0.391 OA
ATOM     17  H5  UNL     1       6.848 -10.427   0.380  1.00  0.00     0.210 HD
ENDBRANCH   8  16
BRANCH   7  18
HETATM   18  O4  UNL     1       4.770 -10.993   3.566  1.00  0.00    -0.391 OA
ATOM     19  H4  UNL     1       5.028 -11.610   4.241  1.00  0.00     0.210 HD
ENDBRANCH   7  18
BRANCH   6  20
HETATM   20  C7  UNL     1       4.101 -12.870   0.816  1.00  0.00     0.191 C 
BRANCH  20  21
HETATM   21  O3  UNL     1       3.462 -11.609   0.770  1.00  0.00    -0.399 OA
ATOM     22  H3  UNL     1       2.718 -11.694   1.354  1.00  0.00     0.209 HD
ENDBRANCH  20  21
ENDBRANCH   6  20
TORSDOF 6
ENDMDL
