MODEL 3
REMARK VINA RESULT: -6.283011918      2.010      5.483
REMARK  6 active torsions:
REMARK  status: ('A' for Active; 'I' for Inactive)
REMARK       I    between atoms: C2_2  and  N1_4 
REMARK    1  A    between atoms: N1_4  and  C3_6 
REMARK    2  A    between atoms: C4_7  and  O2_8 
REMARK    3  A    between atoms: C6_13  and  C7_14 
REMARK    4  A    between atoms: C7_14  and  O3_15 
REMARK    5  A    between atoms: C8_17  and  O4_18 
REMARK    6  A    between atoms: C9_20  and  O5_21 
ROOT
HETATM    1  C3  UNL     1       5.905 -13.909   1.308  1.00  0.00     0.146 C 
HETATM    2  C4  UNL     1       7.098 -14.171   2.180  1.00  0.00     0.160 C 
HETATM    3  C5  UNL     1       6.665 -14.272   3.615  1.00  0.00     0.148 C 
HETATM    4  N2  UNL     1       6.192 -13.040   4.172  1.00  0.00    -0.410 N 
ATOM      5  H2  UNL     1       5.565 -13.014   4.977  1.00  0.00     0.153 HD
HETATM    6  C6  UNL     1       6.647 -11.860   3.537  1.00  0.00     0.131 C 
HETATM    7  C8  UNL     1       6.127 -11.567   2.192  1.00  0.00     0.173 C 
HETATM    8  C9  UNL     1       5.226 -12.600   1.592  1.00  0.00     0.174 C 
ENDROOT
BRANCH   1   9
HETATM    9  N1  UNL     1       6.330 -14.006  -0.072  1.00  0.00    -0.352 N 
HETATM   10  C2  UNL     1       6.166 -15.160  -0.869  1.00  0.00     0.214 C 
HETATM   11  C1  UNL     1       6.608 -15.247  -2.286  1.00  0.00     0.117 C 
HETATM   12  O1  UNL     1       5.621 -16.162  -0.363  1.00  0.00    -0.274 OA
ATOM     13  H1  UNL     1       6.775 -13.192  -0.495  1.00  0.00     0.163 HD
ENDBRANCH   1   9
BRANCH   2  14
HETATM   14  O2  UNL     1       7.609 -15.421   1.817  1.00  0.00    -0.392 OA
ATOM     15  H2  UNL     1       7.776 -15.900   2.620  1.00  0.00     0.210 HD
ENDBRANCH   2  14
BRANCH   8  16
HETATM   16  O5  UNL     1       4.020 -12.747   2.275  1.00  0.00    -0.391 OA
ATOM     17  H5  UNL     1       3.738 -11.950   2.708  1.00  0.00     0.210 HD
ENDBRANCH   8  16
BRANCH   7  18
HETATM   18  O4  UNL     1       7.171 -11.362   1.256  1.00  0.00    -0.391 OA
ATOM     19  H4  UNL     1       6.854 -10.955   0.459  1.00  0.00     0.210 HD
ENDBRANCH   7  18
BRANCH   6  20
HETATM   20  C7  UNL     1       6.279 -10.695   4.465  1.00  0.00     0.191 C 
BRANCH  20  21
HETATM   21  O3  UNL     1       5.884  -9.653   3.594  1.00  0.00    -0.399 OA
ATOM     22  H3  UNL     1       5.345  -9.082   4.129  1.00  0.00     0.209 HD
ENDBRANCH  20  21
ENDBRANCH   6  20
TORSDOF 6
ENDMDL
