MODEL 2
REMARK VINA RESULT: -6.888844361      1.340      4.907
REMARK  6 active torsions:
REMARK  status: ('A' for Active; 'I' for Inactive)
REMARK       I    between atoms: C2_2  and  N1_4 
REMARK    1  A    between atoms: N1_4  and  C3_6 
REMARK    2  A    between atoms: C4_7  and  O2_8 
REMARK    3  A    between atoms: C6_13  and  C7_14 
REMARK    4  A    between atoms: C7_14  and  O3_15 
REMARK    5  A    between atoms: C8_17  and  O4_18 
REMARK    6  A    between atoms: C9_20  and  O5_21 
ROOT
HETATM    1  C3  UNL     1       7.038 -12.460   2.343  1.00  0.00     0.146 C 
HETATM    2  C4  UNL     1       7.074 -10.967   2.183  1.00  0.00     0.160 C 
HETATM    3  C5  UNL     1       8.125 -10.386   3.086  1.00  0.00     0.148 C 
HETATM    4  N2  UNL     1       7.824 -10.498   4.482  1.00  0.00    -0.410 N 
ATOM      5  H2  UNL     1       8.552 -10.474   5.197  1.00  0.00     0.153 HD
HETATM    6  C6  UNL     1       6.455 -10.645   4.810  1.00  0.00     0.131 C 
HETATM    7  C8  UNL     1       5.806 -11.920   4.465  1.00  0.00     0.173 C 
HETATM    8  C9  UNL     1       6.645 -12.909   3.720  1.00  0.00     0.174 C 
ENDROOT
BRANCH   1   9
HETATM    9  N1  UNL     1       6.155 -12.997   1.329  1.00  0.00    -0.352 N 
HETATM   10  C2  UNL     1       6.246 -14.310   0.819  1.00  0.00     0.214 C 
HETATM   11  C1  UNL     1       5.333 -14.849  -0.223  1.00  0.00     0.117 C 
HETATM   12  O1  UNL     1       7.137 -15.062   1.264  1.00  0.00    -0.274 OA
ATOM     13  H1  UNL     1       5.424 -12.389   0.961  1.00  0.00     0.163 HD
ENDBRANCH   1   9
BRANCH   2  14
HETATM   14  O2  UNL     1       7.470 -10.701   0.869  1.00  0.00    -0.392 OA
ATOM     15  H2  UNL     1       7.770  -9.801   0.843  1.00  0.00     0.210 HD
ENDBRANCH   2  14
BRANCH   8  16
HETATM   16  O5  UNL     1       7.719 -13.395   4.463  1.00  0.00    -0.391 OA
ATOM     17  H5  UNL     1       7.450 -13.859   5.247  1.00  0.00     0.210 HD
ENDBRANCH   8  16
BRANCH   7  18
HETATM   18  O4  UNL     1       4.641 -11.724   3.684  1.00  0.00    -0.391 OA
ATOM     19  H4  UNL     1       4.699 -12.166   2.845  1.00  0.00     0.210 HD
ENDBRANCH   7  18
BRANCH   6  20
HETATM   20  C7  UNL     1       6.344 -10.437   6.326  1.00  0.00     0.191 C 
BRANCH  20  21
HETATM   21  O3  UNL     1       7.678 -10.489   6.794  1.00  0.00    -0.399 OA
ATOM     22  H3  UNL     1       8.067 -11.224   6.335  1.00  0.00     0.209 HD
ENDBRANCH  20  21
ENDBRANCH   6  20
TORSDOF 6
ENDMDL
