MODEL 5
REMARK VINA RESULT: -6.999542775      2.687      4.978
REMARK  4 active torsions:
REMARK  status: ('A' for Active; 'I' for Inactive)
REMARK       I    between atoms: C2_2  and  N1_4 
REMARK    1  A    between atoms: N1_4  and  C3_6 
REMARK    2  A    between atoms: C6_12  and  O2_13 
REMARK    3  A    between atoms: C7_15  and  O3_16 
REMARK    4  A    between atoms: C8_18  and  O4_19 
ROOT
HETATM    1  C3  UNL     1     -15.305   4.975   0.101  1.00  0.00     0.141 C 
HETATM    2  C4  UNL     1     -15.622   3.582   0.547  1.00  0.00     0.260 C 
HETATM    3  N2  UNL     1     -14.458   2.743   0.503  1.00  0.00    -0.071 N 
ATOM      4  H21 UNL     1     -14.305   2.229   1.370  1.00  0.00     0.277 HD
ATOM      5  H22 UNL     1     -13.586   3.272   0.505  1.00  0.00     0.277 HD
HETATM    6  C5  UNL     1     -14.593   1.874  -0.657  1.00  0.00     0.266 C 
HETATM    7  C6  UNL     1     -14.792   2.632  -1.926  1.00  0.00     0.175 C 
HETATM    8  C7  UNL     1     -14.284   4.041  -1.889  1.00  0.00     0.179 C 
HETATM    9  C8  UNL     1     -15.325   5.028  -1.386  1.00  0.00     0.173 C 
ENDROOT
BRANCH   1  10
HETATM   10  N1  UNL     1     -16.223   5.877   0.741  1.00  0.00    -0.353 N 
HETATM   11  C2  UNL     1     -15.904   7.199   1.123  1.00  0.00     0.214 C 
HETATM   12  C1  UNL     1     -16.935   8.028   1.774  1.00  0.00     0.117 C 
HETATM   13  O1  UNL     1     -14.753   7.619   0.892  1.00  0.00    -0.274 OA
ATOM     14  H1  UNL     1     -17.166   5.541   0.932  1.00  0.00     0.163 HD
ENDBRANCH   1  10
BRANCH   9  15
HETATM   15  O4  UNL     1     -14.918   6.286  -1.879  1.00  0.00    -0.391 OA
ATOM     16  H4  UNL     1     -15.651   6.805  -2.187  1.00  0.00     0.210 HD
ENDBRANCH   9  15
BRANCH   8  17
HETATM   17  O3  UNL     1     -14.001   4.409  -3.220  1.00  0.00    -0.390 OA
ATOM     18  H3  UNL     1     -13.343   5.093  -3.183  1.00  0.00     0.210 HD
ENDBRANCH   8  17
BRANCH   7  19
HETATM   19  O2  UNL     1     -16.120   2.622  -2.347  1.00  0.00    -0.391 OA
ATOM     20  H2  UNL     1     -16.435   1.745  -2.532  1.00  0.00     0.210 HD
ENDBRANCH   7  19
TORSDOF 4
ENDMDL
