MODEL 1
REMARK VINA RESULT: -8.553587732      0.000      0.000
REMARK  4 active torsions:
REMARK  status: ('A' for Active; 'I' for Inactive)
REMARK       I    between atoms: C2_2  and  N1_4 
REMARK    1  A    between atoms: N1_4  and  C3_6 
REMARK    2  A    between atoms: C6_12  and  O2_13 
REMARK    3  A    between atoms: C7_15  and  O3_16 
REMARK    4  A    between atoms: C8_18  and  O4_19 
ROOT
HETATM    1  C3  UNL     1     -14.584   3.748  -2.149  1.00  0.00     0.141 C 
HETATM    2  C4  UNL     1     -15.780   4.645  -2.201  1.00  0.00     0.260 C 
HETATM    3  N2  UNL     1     -15.751   5.613  -1.141  1.00  0.00    -0.071 N 
ATOM      4  H21 UNL     1     -15.903   6.567  -1.469  1.00  0.00     0.277 HD
ATOM      5  H22 UNL     1     -14.818   5.753  -0.755  1.00  0.00     0.277 HD
HETATM    6  C5  UNL     1     -16.724   5.194  -0.142  1.00  0.00     0.266 C 
HETATM    7  C6  UNL     1     -16.481   3.808   0.353  1.00  0.00     0.175 C 
HETATM    8  C7  UNL     1     -15.069   3.333   0.188  1.00  0.00     0.179 C 
HETATM    9  C8  UNL     1     -14.826   2.667  -1.156  1.00  0.00     0.173 C 
ENDROOT
BRANCH   1  10
HETATM   10  N1  UNL     1     -14.308   3.282  -3.481  1.00  0.00    -0.353 N 
HETATM   11  C2  UNL     1     -15.146   2.410  -4.210  1.00  0.00     0.214 C 
HETATM   12  C1  UNL     1     -14.752   2.004  -5.571  1.00  0.00     0.117 C 
HETATM   13  O1  UNL     1     -16.198   2.015  -3.670  1.00  0.00    -0.274 OA
ATOM     14  H1  UNL     1     -13.449   3.602  -3.929  1.00  0.00     0.163 HD
ENDBRANCH   1  10
BRANCH   9  15
HETATM   15  O4  UNL     1     -13.690   1.851  -0.970  1.00  0.00    -0.391 OA
ATOM     16  H4  UNL     1     -13.642   1.498  -0.089  1.00  0.00     0.210 HD
ENDBRANCH   9  15
BRANCH   8  17
HETATM   17  O3  UNL     1     -14.857   2.339   1.166  1.00  0.00    -0.390 OA
ATOM     18  H3  UNL     1     -14.760   2.788   1.998  1.00  0.00     0.210 HD
ENDBRANCH   8  17
BRANCH   7  19
HETATM   19  O2  UNL     1     -17.357   2.882  -0.211  1.00  0.00    -0.391 OA
ATOM     20  H2  UNL     1     -17.749   2.312   0.439  1.00  0.00     0.210 HD
ENDBRANCH   7  19
TORSDOF 4
ENDMDL
