MODEL 12
REMARK VINA RESULT: -6.336781013      3.154      5.381
REMARK  4 active torsions:
REMARK  status: ('A' for Active; 'I' for Inactive)
REMARK       I    between atoms: C2_2  and  N1_4 
REMARK    1  A    between atoms: N1_4  and  C3_6 
REMARK    2  A    between atoms: C6_12  and  O2_13 
REMARK    3  A    between atoms: C7_15  and  O3_16 
REMARK    4  A    between atoms: C8_18  and  O4_19 
ROOT
HETATM    1  C3  UNL     1     -15.790   6.247   0.169  1.00  0.00     0.141 C 
HETATM    2  C4  UNL     1     -16.506   5.078   0.768  1.00  0.00     0.260 C 
HETATM    3  N2  UNL     1     -15.616   3.970   0.971  1.00  0.00    -0.071 N 
ATOM      4  H21 UNL     1     -15.669   3.583   1.913  1.00  0.00     0.277 HD
ATOM      5  H22 UNL     1     -14.634   4.247   0.996  1.00  0.00     0.277 HD
HETATM    6  C5  UNL     1     -15.902   2.987  -0.064  1.00  0.00     0.266 C 
HETATM    7  C6  UNL     1     -15.798   3.551  -1.441  1.00  0.00     0.175 C 
HETATM    8  C7  UNL     1     -14.927   4.767  -1.544  1.00  0.00     0.179 C 
HETATM    9  C8  UNL     1     -15.691   6.058  -1.304  1.00  0.00     0.173 C 
ENDROOT
BRANCH   1  10
HETATM   10  N1  UNL     1     -16.468   7.450   0.571  1.00  0.00    -0.353 N 
HETATM   11  C2  UNL     1     -15.872   8.487   1.322  1.00  0.00     0.214 C 
HETATM   12  C1  UNL     1     -16.674   9.673   1.672  1.00  0.00     0.117 C 
HETATM   13  O1  UNL     1     -14.679   8.359   1.661  1.00  0.00    -0.274 OA
ATOM     14  H1  UNL     1     -17.444   7.561   0.296  1.00  0.00     0.163 HD
ENDBRANCH   1  10
BRANCH   9  15
HETATM   15  O4  UNL     1     -14.922   7.069  -1.919  1.00  0.00    -0.391 OA
ATOM     16  H4  UNL     1     -14.832   6.931  -2.855  1.00  0.00     0.210 HD
ENDBRANCH   9  15
BRANCH   8  17
HETATM   17  O3  UNL     1     -14.463   4.824  -2.875  1.00  0.00    -0.390 OA
ATOM     18  H3  UNL     1     -13.596   5.211  -2.847  1.00  0.00     0.210 HD
ENDBRANCH   8  17
BRANCH   7  19
HETATM   19  O2  UNL     1     -17.045   3.817  -2.001  1.00  0.00    -0.391 OA
ATOM     20  H2  UNL     1     -17.206   4.748  -2.099  1.00  0.00     0.210 HD
ENDBRANCH   7  19
TORSDOF 4
ENDMDL
