MODEL 7
REMARK VINA RESULT: -6.790223775      2.182      4.791
REMARK  4 active torsions:
REMARK  status: ('A' for Active; 'I' for Inactive)
REMARK       I    between atoms: C2_2  and  N1_4 
REMARK    1  A    between atoms: N1_4  and  C3_6 
REMARK    2  A    between atoms: C6_12  and  O2_13 
REMARK    3  A    between atoms: C7_15  and  O3_16 
REMARK    4  A    between atoms: C8_18  and  O4_19 
ROOT
HETATM    1  C3  UNL     1     -15.837   5.054   0.040  1.00  0.00     0.141 C 
HETATM    2  C4  UNL     1     -14.761   5.568  -0.863  1.00  0.00     0.260 C 
HETATM    3  N2  UNL     1     -15.129   5.432  -2.244  1.00  0.00    -0.071 N 
ATOM      4  H21 UNL     1     -15.007   6.295  -2.775  1.00  0.00     0.277 HD
ATOM      5  H22 UNL     1     -16.135   5.334  -2.379  1.00  0.00     0.277 HD
HETATM    6  C5  UNL     1     -14.370   4.317  -2.789  1.00  0.00     0.266 C 
HETATM    7  C6  UNL     1     -14.572   3.052  -2.023  1.00  0.00     0.175 C 
HETATM    8  C7  UNL     1     -15.853   3.000  -1.246  1.00  0.00     0.179 C 
HETATM    9  C8  UNL     1     -15.715   3.575   0.154  1.00  0.00     0.173 C 
ENDROOT
BRANCH   1  10
HETATM   10  N1  UNL     1     -15.756   5.756   1.292  1.00  0.00    -0.353 N 
HETATM   11  C2  UNL     1     -16.254   7.060   1.507  1.00  0.00     0.214 C 
HETATM   12  C1  UNL     1     -16.109   7.673   2.840  1.00  0.00     0.117 C 
HETATM   13  O1  UNL     1     -16.804   7.647   0.554  1.00  0.00    -0.274 OA
ATOM     14  H1  UNL     1     -15.308   5.281   2.076  1.00  0.00     0.163 HD
ENDBRANCH   1  10
BRANCH   9  15
HETATM   15  O4  UNL     1     -16.773   3.009   0.897  1.00  0.00    -0.391 OA
ATOM     16  H4  UNL     1     -17.397   2.555   0.343  1.00  0.00     0.210 HD
ENDBRANCH   9  15
BRANCH   8  17
HETATM   17  O3  UNL     1     -16.176   1.637  -1.084  1.00  0.00    -0.390 OA
ATOM     18  H3  UNL     1     -16.763   1.581  -0.339  1.00  0.00     0.210 HD
ENDBRANCH   8  17
BRANCH   7  19
HETATM   19  O2  UNL     1     -13.500   2.765  -1.180  1.00  0.00    -0.391 OA
ATOM     20  H2  UNL     1     -13.729   2.137  -0.505  1.00  0.00     0.210 HD
ENDBRANCH   7  19
TORSDOF 4
ENDMDL
