MODEL 3
REMARK VINA RESULT: -9.135044783      0.037      1.054
REMARK  9 active torsions:
REMARK  status: ('A' for Active; 'I' for Inactive)
REMARK    1  A    between atoms: C4_6  and  C5_7 
REMARK    2  A    between atoms: C5_7  and  O1_8 
REMARK    3  A    between atoms: O1_8  and  P1_9 
REMARK    4  A    between atoms: C6_13  and  C7_14 
REMARK    5  A    between atoms: N2_15  and  C8_17 
REMARK    6  A    between atoms: C8_17  and  C9_18 
REMARK    7  A    between atoms: C8_17  and  C10_21 
REMARK    8  A    between atoms: C9_18  and  O5_19 
REMARK    9  A    between atoms: C11_24  and  O8_25 
ROOT
HETATM    1  C1  UNL     1      10.605  13.082  32.421  1.00  0.00     0.071 C 
HETATM    2  C2  UNL     1       9.650  13.939  31.695  1.00  0.00     0.039 A 
HETATM    3  N1  UNL     1       9.669  14.135  30.388  1.00  0.00    -0.366 N 
ATOM      4  H1  UNL     1      10.289  13.567  29.811  1.00  0.00     0.165 HD
HETATM    5  C3  UNL     1       8.868  15.094  29.777  1.00  0.00     0.102 A 
HETATM    6  C4  UNL     1       8.056  15.870  30.529  1.00  0.00     0.016 A 
HETATM    7  C6  UNL     1       8.041  15.664  31.875  1.00  0.00     0.028 A 
HETATM    8  C11 UNL     1       8.802  14.734  32.447  1.00  0.00     0.100 A 
ENDROOT
BRANCH   7   9
HETATM    9  C7  UNL     1       7.081  16.480  32.656  1.00  0.00     0.099 C 
HETATM   10  N2  UNL     1       6.273  15.891  33.456  1.00  0.00    -0.382 N 
ATOM     11  H2  UNL     1       6.279  14.876  33.558  1.00  0.00     0.160 HD
BRANCH  10  12
HETATM   12  C8  UNL     1       5.330  16.728  34.227  1.00  0.00     0.206 C 
BRANCH  12  13
HETATM   13  C9  UNL     1       4.183  16.999  33.273  1.00  0.00     0.200 C 
BRANCH  13  14
HETATM   14  O5  UNL     1       3.627  18.223  33.505  1.00  0.00    -0.398 OA
ATOM     15  H5  UNL     1       3.703  18.785  32.743  1.00  0.00     0.209 HD
ENDBRANCH  13  14
ENDBRANCH  12  13
BRANCH  12  16
HETATM   16  C10 UNL     1       4.888  15.890  35.334  1.00  0.00     0.198 C 
HETATM   17  O6  UNL     1       4.045  16.307  36.122  1.00  0.00    -0.646 OA
HETATM   18  O7  UNL     1       5.405  14.642  35.489  1.00  0.00    -0.646 OA
ENDBRANCH  12  16
ENDBRANCH  10  12
ENDBRANCH   7   9
BRANCH   6  19
HETATM   19  C5  UNL     1       7.427  17.119  30.049  1.00  0.00     0.163 C 
BRANCH  19  20
HETATM   20  O1  UNL     1       6.482  17.204  29.190  1.00  0.00    -0.252 OA
BRANCH  20  21
HETATM   21  P1  UNL     1       5.123  17.629  28.966  1.00  0.00     0.426 P 
HETATM   22  O2  UNL     1       4.620  16.082  28.551  1.00  0.00    -0.617 OA
HETATM   23  O3  UNL     1       5.558  18.651  27.760  1.00  0.00    -0.617 OA
HETATM   24  O4  UNL     1       4.936  18.171  30.509  1.00  0.00    -0.617 OA
ENDBRANCH  20  21
ENDBRANCH  19  20
ENDBRANCH   6  19
BRANCH   8  25
HETATM   25  O8  UNL     1       8.746  14.558  33.845  1.00  0.00    -0.358 OA
ATOM     26  H8  UNL     1       9.316  13.920  34.259  1.00  0.00     0.217 HD
ENDBRANCH   8  25
TORSDOF 9
ENDMDL
