MODEL 1
REMARK VINA RESULT: -9.194535243      0.000      0.000
REMARK  9 active torsions:
REMARK  status: ('A' for Active; 'I' for Inactive)
REMARK    1  A    between atoms: C4_6  and  C5_7 
REMARK    2  A    between atoms: C5_7  and  O1_8 
REMARK    3  A    between atoms: O1_8  and  P1_9 
REMARK    4  A    between atoms: C6_13  and  C7_14 
REMARK    5  A    between atoms: N2_15  and  C8_17 
REMARK    6  A    between atoms: C8_17  and  C9_18 
REMARK    7  A    between atoms: C8_17  and  C10_21 
REMARK    8  A    between atoms: C9_18  and  O5_19 
REMARK    9  A    between atoms: C11_24  and  O8_25 
ROOT
HETATM    1  C1  UNL     1      10.625  13.066  32.385  1.00  0.00     0.071 C 
HETATM    2  C2  UNL     1       9.659  13.921  31.671  1.00  0.00     0.039 A 
HETATM    3  N1  UNL     1       9.659  14.111  30.362  1.00  0.00    -0.366 N 
ATOM      4  H1  UNL     1      10.270  13.541  29.778  1.00  0.00     0.165 HD
HETATM    5  C3  UNL     1       8.848  15.068  29.760  1.00  0.00     0.102 A 
HETATM    6  C4  UNL     1       8.048  15.846  30.521  1.00  0.00     0.016 A 
HETATM    7  C6  UNL     1       8.052  15.645  31.868  1.00  0.00     0.028 A 
HETATM    8  C11 UNL     1       8.822  14.717  32.431  1.00  0.00     0.100 A 
ENDROOT
BRANCH   7   9
HETATM    9  C7  UNL     1       7.104  16.464  32.660  1.00  0.00     0.099 C 
HETATM   10  N2  UNL     1       6.246  15.873  33.405  1.00  0.00    -0.382 N 
ATOM     11  H2  UNL     1       6.206  14.855  33.456  1.00  0.00     0.160 HD
BRANCH  10  12
HETATM   12  C8  UNL     1       5.316  16.713  34.189  1.00  0.00     0.206 C 
BRANCH  12  13
HETATM   13  C9  UNL     1       4.154  16.982  33.252  1.00  0.00     0.200 C 
BRANCH  13  14
HETATM   14  O5  UNL     1       3.577  18.189  33.518  1.00  0.00    -0.398 OA
ATOM     15  H5  UNL     1       3.201  18.205  34.390  1.00  0.00     0.209 HD
ENDBRANCH  13  14
ENDBRANCH  12  13
BRANCH  12  16
HETATM   16  C10 UNL     1       4.891  15.877  35.305  1.00  0.00     0.198 C 
HETATM   17  O6  UNL     1       4.061  16.297  36.105  1.00  0.00    -0.646 OA
HETATM   18  O7  UNL     1       5.408  14.628  35.454  1.00  0.00    -0.646 OA
ENDBRANCH  12  16
ENDBRANCH  10  12
ENDBRANCH   7   9
BRANCH   6  19
HETATM   19  C5  UNL     1       7.411  17.094  30.045  1.00  0.00     0.163 C 
BRANCH  19  20
HETATM   20  O1  UNL     1       6.475  17.177  29.176  1.00  0.00    -0.252 OA
BRANCH  20  21
HETATM   21  P1  UNL     1       5.121  17.604  28.935  1.00  0.00     0.426 P 
HETATM   22  O2  UNL     1       4.918  18.132  30.516  1.00  0.00    -0.617 OA
HETATM   23  O3  UNL     1       4.625  16.087  28.557  1.00  0.00    -0.617 OA
HETATM   24  O4  UNL     1       5.562  18.668  27.759  1.00  0.00    -0.617 OA
ENDBRANCH  20  21
ENDBRANCH  19  20
ENDBRANCH   6  19
BRANCH   8  25
HETATM   25  O8  UNL     1       8.787  14.547  33.831  1.00  0.00    -0.358 OA
ATOM     26  H8  UNL     1       9.527  14.834  34.355  1.00  0.00     0.217 HD
ENDBRANCH   8  25
TORSDOF 9
ENDMDL
