MODEL 6
REMARK VINA RESULT: -8.191079724      1.924      5.127
REMARK  9 active torsions:
REMARK  status: ('A' for Active; 'I' for Inactive)
REMARK    1  A    between atoms: C4_6  and  C5_7 
REMARK    2  A    between atoms: C5_7  and  O1_8 
REMARK    3  A    between atoms: O1_8  and  P1_9 
REMARK    4  A    between atoms: C6_13  and  C7_14 
REMARK    5  A    between atoms: N2_15  and  C8_17 
REMARK    6  A    between atoms: C8_17  and  C9_18 
REMARK    7  A    between atoms: C8_17  and  C10_21 
REMARK    8  A    between atoms: C9_18  and  O5_19 
REMARK    9  A    between atoms: C11_24  and  O8_25 
ROOT
HETATM    1  C1  UNL     1       5.287  16.872  37.277  1.00  0.00     0.071 C 
HETATM    2  C2  UNL     1       5.141  16.938  35.812  1.00  0.00     0.039 A 
HETATM    3  N1  UNL     1       3.982  17.036  35.183  1.00  0.00    -0.366 N 
ATOM      4  H1  UNL     1       3.137  17.210  35.726  1.00  0.00     0.165 HD
HETATM    5  C3  UNL     1       3.884  16.908  33.801  1.00  0.00     0.102 A 
HETATM    6  C4  UNL     1       4.990  16.657  33.069  1.00  0.00     0.016 A 
HETATM    7  C6  UNL     1       6.181  16.557  33.722  1.00  0.00     0.028 A 
HETATM    8  C11 UNL     1       6.265  16.695  35.043  1.00  0.00     0.100 A 
ENDROOT
BRANCH   7   9
HETATM    9  C7  UNL     1       7.382  16.359  32.877  1.00  0.00     0.099 C 
HETATM   10  N2  UNL     1       7.975  15.224  32.897  1.00  0.00    -0.382 N 
ATOM     11  H2  UNL     1       7.636  14.464  33.487  1.00  0.00     0.160 HD
BRANCH  10  12
HETATM   12  C8  UNL     1       9.167  15.051  32.040  1.00  0.00     0.206 C 
BRANCH  12  13
HETATM   13  C9  UNL     1       9.937  13.907  32.673  1.00  0.00     0.200 C 
BRANCH  13  14
HETATM   14  O5  UNL     1      10.390  13.035  31.727  1.00  0.00    -0.398 OA
ATOM     15  H5  UNL     1       9.812  12.286  31.646  1.00  0.00     0.209 HD
ENDBRANCH  13  14
ENDBRANCH  12  13
BRANCH  12  16
HETATM   16  C10 UNL     1       8.649  14.659  30.736  1.00  0.00     0.198 C 
HETATM   17  O6  UNL     1       7.727  13.852  30.658  1.00  0.00    -0.646 OA
HETATM   18  O7  UNL     1       9.182  15.192  29.604  1.00  0.00    -0.646 OA
ENDBRANCH  12  16
ENDBRANCH  10  12
ENDBRANCH   7   9
BRANCH   6  19
HETATM   19  C5  UNL     1       4.966  16.175  31.670  1.00  0.00     0.163 C 
BRANCH  19  20
HETATM   20  O1  UNL     1       4.966  16.909  30.622  1.00  0.00    -0.252 OA
BRANCH  20  21
HETATM   21  P1  UNL     1       5.486  17.062  29.287  1.00  0.00     0.426 P 
HETATM   22  O2  UNL     1       4.223  18.066  28.821  1.00  0.00    -0.617 OA
HETATM   23  O3  UNL     1       5.358  15.459  28.967  1.00  0.00    -0.617 OA
HETATM   24  O4  UNL     1       6.906  17.710  29.809  1.00  0.00    -0.617 OA
ENDBRANCH  20  21
ENDBRANCH  19  20
ENDBRANCH   6  19
BRANCH   8  25
HETATM   25  O8  UNL     1       7.524  16.585  35.671  1.00  0.00    -0.358 OA
ATOM     26  H8  UNL     1       8.287  16.362  35.151  1.00  0.00     0.217 HD
ENDBRANCH   8  25
TORSDOF 9
ENDMDL
