MODEL 11
REMARK VINA RESULT: -7.522085776      1.577      2.050
REMARK  9 active torsions:
REMARK  status: ('A' for Active; 'I' for Inactive)
REMARK    1  A    between atoms: C4_6  and  C5_7 
REMARK    2  A    between atoms: C5_7  and  O1_8 
REMARK    3  A    between atoms: O1_8  and  P1_9 
REMARK    4  A    between atoms: C6_13  and  C7_14 
REMARK    5  A    between atoms: N2_15  and  C8_17 
REMARK    6  A    between atoms: C8_17  and  C9_18 
REMARK    7  A    between atoms: C8_17  and  C10_21 
REMARK    8  A    between atoms: C9_18  and  O5_19 
REMARK    9  A    between atoms: C11_24  and  O8_25 
ROOT
HETATM    1  C1  UNL     1       9.963  14.460  31.733  1.00  0.00     0.071 C 
HETATM    2  C2  UNL     1       8.608  14.482  31.153  1.00  0.00     0.039 A 
HETATM    3  N1  UNL     1       8.329  14.170  29.899  1.00  0.00    -0.366 N 
ATOM      4  H1  UNL     1       9.059  13.761  29.317  1.00  0.00     0.165 HD
HETATM    5  C3  UNL     1       7.068  14.385  29.352  1.00  0.00     0.102 A 
HETATM    6  C4  UNL     1       6.096  14.946  30.104  1.00  0.00     0.016 A 
HETATM    7  C6  UNL     1       6.389  15.266  31.395  1.00  0.00     0.028 A 
HETATM    8  C11 UNL     1       7.595  15.043  31.912  1.00  0.00     0.100 A 
ENDROOT
BRANCH   7   9
HETATM    9  C7  UNL     1       5.275  15.806  32.210  1.00  0.00     0.099 C 
HETATM   10  N2  UNL     1       5.469  16.867  32.900  1.00  0.00    -0.382 N 
ATOM     11  H2  UNL     1       6.374  17.337  32.899  1.00  0.00     0.160 HD
BRANCH  10  12
HETATM   12  C8  UNL     1       4.339  17.389  33.698  1.00  0.00     0.206 C 
BRANCH  12  13
HETATM   13  C9  UNL     1       3.417  16.199  33.888  1.00  0.00     0.200 C 
BRANCH  13  14
HETATM   14  O5  UNL     1       3.388  15.801  35.192  1.00  0.00    -0.398 OA
ATOM     15  H5  UNL     1       2.927  14.976  35.289  1.00  0.00     0.209 HD
ENDBRANCH  13  14
ENDBRANCH  12  13
BRANCH  12  16
HETATM   16  C10 UNL     1       4.922  17.791  34.972  1.00  0.00     0.198 C 
HETATM   17  O6  UNL     1       4.353  18.623  35.672  1.00  0.00    -0.646 OA
HETATM   18  O7  UNL     1       6.094  17.240  35.387  1.00  0.00    -0.646 OA
ENDBRANCH  12  16
ENDBRANCH  10  12
ENDBRANCH   7   9
BRANCH   6  19
HETATM   19  C5  UNL     1       4.851  15.523  29.551  1.00  0.00     0.163 C 
BRANCH  19  20
HETATM   20  O1  UNL     1       4.771  16.531  28.768  1.00  0.00    -0.252 OA
BRANCH  20  21
HETATM   21  P1  UNL     1       5.128  17.915  28.583  1.00  0.00     0.426 P 
HETATM   22  O2  UNL     1       3.909  18.165  27.455  1.00  0.00    -0.617 OA
HETATM   23  O3  UNL     1       6.625  17.538  28.032  1.00  0.00    -0.617 OA
HETATM   24  O4  UNL     1       4.879  18.292  30.165  1.00  0.00    -0.617 OA
ENDBRANCH  20  21
ENDBRANCH  19  20
ENDBRANCH   6  19
BRANCH   8  25
HETATM   25  O8  UNL     1       7.846  15.389  33.256  1.00  0.00    -0.358 OA
ATOM     26  H8  UNL     1       8.721  15.656  33.514  1.00  0.00     0.217 HD
ENDBRANCH   8  25
TORSDOF 9
ENDMDL
