MODEL 7
REMARK VINA RESULT: -8.180203198      1.911      5.151
REMARK  9 active torsions:
REMARK  status: ('A' for Active; 'I' for Inactive)
REMARK    1  A    between atoms: C4_6  and  C5_7 
REMARK    2  A    between atoms: C5_7  and  O1_8 
REMARK    3  A    between atoms: O1_8  and  P1_9 
REMARK    4  A    between atoms: C6_13  and  C7_14 
REMARK    5  A    between atoms: N2_15  and  C8_17 
REMARK    6  A    between atoms: C8_17  and  C9_18 
REMARK    7  A    between atoms: C8_17  and  C10_21 
REMARK    8  A    between atoms: C9_18  and  O5_19 
REMARK    9  A    between atoms: C11_24  and  O8_25 
ROOT
HETATM    1  C1  UNL     1       5.257  16.876  37.252  1.00  0.00     0.071 C 
HETATM    2  C2  UNL     1       5.116  16.950  35.786  1.00  0.00     0.039 A 
HETATM    3  N1  UNL     1       3.960  17.058  35.154  1.00  0.00    -0.366 N 
ATOM      4  H1  UNL     1       3.114  17.234  35.695  1.00  0.00     0.165 HD
HETATM    5  C3  UNL     1       3.866  16.937  33.771  1.00  0.00     0.102 A 
HETATM    6  C4  UNL     1       4.974  16.682  33.041  1.00  0.00     0.016 A 
HETATM    7  C6  UNL     1       6.162  16.573  33.698  1.00  0.00     0.028 A 
HETATM    8  C11 UNL     1       6.242  16.704  35.020  1.00  0.00     0.100 A 
ENDROOT
BRANCH   7   9
HETATM    9  C7  UNL     1       7.364  16.372  32.856  1.00  0.00     0.099 C 
HETATM   10  N2  UNL     1       7.995  15.260  32.930  1.00  0.00    -0.382 N 
ATOM     11  H2  UNL     1       7.685  14.520  33.559  1.00  0.00     0.160 HD
BRANCH  10  12
HETATM   12  C8  UNL     1       9.188  15.083  32.074  1.00  0.00     0.206 C 
BRANCH  12  13
HETATM   13  C9  UNL     1       9.904  13.877  32.653  1.00  0.00     0.200 C 
BRANCH  13  14
HETATM   14  O5  UNL     1      10.312  13.027  31.667  1.00  0.00    -0.398 OA
ATOM     15  H5  UNL     1      10.873  12.344  32.014  1.00  0.00     0.209 HD
ENDBRANCH  13  14
ENDBRANCH  12  13
BRANCH  12  16
HETATM   16  C10 UNL     1       8.668  14.781  30.747  1.00  0.00     0.198 C 
HETATM   17  O6  UNL     1       9.060  15.417  29.774  1.00  0.00    -0.646 OA
HETATM   18  O7  UNL     1       7.751  13.789  30.586  1.00  0.00    -0.646 OA
ENDBRANCH  12  16
ENDBRANCH  10  12
ENDBRANCH   7   9
BRANCH   6  19
HETATM   19  C5  UNL     1       4.952  16.208  31.640  1.00  0.00     0.163 C 
BRANCH  19  20
HETATM   20  O1  UNL     1       4.951  16.947  30.596  1.00  0.00    -0.252 OA
BRANCH  20  21
HETATM   21  P1  UNL     1       5.460  17.100  29.256  1.00  0.00     0.426 P 
HETATM   22  O2  UNL     1       6.874  17.832  29.787  1.00  0.00    -0.617 OA
HETATM   23  O3  UNL     1       4.211  18.063  28.807  1.00  0.00    -0.617 OA
HETATM   24  O4  UNL     1       5.430  15.482  28.956  1.00  0.00    -0.617 OA
ENDBRANCH  20  21
ENDBRANCH  19  20
ENDBRANCH   6  19
BRANCH   8  25
HETATM   25  O8  UNL     1       7.498  16.584  35.652  1.00  0.00    -0.358 OA
ATOM     26  H8  UNL     1       8.037  15.821  35.477  1.00  0.00     0.217 HD
ENDBRANCH   8  25
TORSDOF 9
ENDMDL
