MODEL 5
REMARK VINA RESULT: -8.227702183      1.907      5.179
REMARK  9 active torsions:
REMARK  status: ('A' for Active; 'I' for Inactive)
REMARK    1  A    between atoms: C4_6  and  C5_7 
REMARK    2  A    between atoms: C5_7  and  O1_8 
REMARK    3  A    between atoms: O1_8  and  P1_9 
REMARK    4  A    between atoms: C6_13  and  C7_14 
REMARK    5  A    between atoms: N2_15  and  C8_17 
REMARK    6  A    between atoms: C8_17  and  C9_18 
REMARK    7  A    between atoms: C8_17  and  C10_21 
REMARK    8  A    between atoms: C9_18  and  O5_19 
REMARK    9  A    between atoms: C11_24  and  O8_25 
ROOT
HETATM    1  C1  UNL     1       5.183  16.993  37.261  1.00  0.00     0.071 C 
HETATM    2  C2  UNL     1       5.056  17.047  35.794  1.00  0.00     0.039 A 
HETATM    3  N1  UNL     1       3.906  17.154  35.149  1.00  0.00    -0.366 N 
ATOM      4  H1  UNL     1       3.057  17.345  35.680  1.00  0.00     0.165 HD
HETATM    5  C3  UNL     1       3.823  17.013  33.768  1.00  0.00     0.102 A 
HETATM    6  C4  UNL     1       4.935  16.739  33.052  1.00  0.00     0.016 A 
HETATM    7  C6  UNL     1       6.117  16.630  33.720  1.00  0.00     0.028 A 
HETATM    8  C11 UNL     1       6.186  16.780  35.041  1.00  0.00     0.100 A 
ENDROOT
BRANCH   7   9
HETATM    9  C7  UNL     1       7.325  16.407  32.892  1.00  0.00     0.099 C 
HETATM   10  N2  UNL     1       7.928  15.280  32.965  1.00  0.00    -0.382 N 
ATOM     11  H2  UNL     1       7.592  14.543  33.584  1.00  0.00     0.160 HD
BRANCH  10  12
HETATM   12  C8  UNL     1       9.127  15.082  32.123  1.00  0.00     0.206 C 
BRANCH  12  13
HETATM   13  C9  UNL     1       9.844  13.897  32.744  1.00  0.00     0.200 C 
BRANCH  13  14
HETATM   14  O5  UNL     1      10.387  13.093  31.785  1.00  0.00    -0.398 OA
ATOM     15  H5  UNL     1      10.750  12.302  32.166  1.00  0.00     0.209 HD
ENDBRANCH  13  14
ENDBRANCH  12  13
BRANCH  12  16
HETATM   16  C10 UNL     1       8.617  14.737  30.803  1.00  0.00     0.198 C 
HETATM   17  O6  UNL     1       7.708  13.920  30.689  1.00  0.00    -0.646 OA
HETATM   18  O7  UNL     1       9.144  15.325  29.696  1.00  0.00    -0.646 OA
ENDBRANCH  12  16
ENDBRANCH  10  12
ENDBRANCH   7   9
BRANCH   6  19
HETATM   19  C5  UNL     1       4.922  16.244  31.658  1.00  0.00     0.163 C 
BRANCH  19  20
HETATM   20  O1  UNL     1       4.930  16.968  30.602  1.00  0.00    -0.252 OA
BRANCH  20  21
HETATM   21  P1  UNL     1       5.422  17.084  29.253  1.00  0.00     0.426 P 
HETATM   22  O2  UNL     1       5.315  15.430  28.983  1.00  0.00    -0.617 OA
HETATM   23  O3  UNL     1       6.861  17.695  29.746  1.00  0.00    -0.617 OA
HETATM   24  O4  UNL     1       4.195  18.077  28.787  1.00  0.00    -0.617 OA
ENDBRANCH  20  21
ENDBRANCH  19  20
ENDBRANCH   6  19
BRANCH   8  25
HETATM   25  O8  UNL     1       7.435  16.660  35.686  1.00  0.00    -0.358 OA
ATOM     26  H8  UNL     1       7.464  16.482  36.619  1.00  0.00     0.217 HD
ENDBRANCH   8  25
TORSDOF 9
ENDMDL
