MODEL 3
REMARK VINA RESULT: -7.909098969      1.873      5.011
REMARK  9 active torsions:
REMARK  status: ('A' for Active; 'I' for Inactive)
REMARK    1  A    between atoms: C4_6  and  C5_7 
REMARK    2  A    between atoms: C5_7  and  O1_8 
REMARK    3  A    between atoms: O1_8  and  P1_9 
REMARK    4  A    between atoms: C6_13  and  C7_14 
REMARK    5  A    between atoms: N2_15  and  C8_17 
REMARK    6  A    between atoms: C8_17  and  C9_18 
REMARK    7  A    between atoms: C8_17  and  C10_21 
REMARK    8  A    between atoms: C9_18  and  O5_19 
REMARK    9  A    between atoms: C11_24  and  O8_25 
ROOT
HETATM    1  C1  UNL     1      31.314  15.670   8.721  1.00  0.00     0.071 C 
HETATM    2  C2  UNL     1      31.381  15.821  10.186  1.00  0.00     0.039 A 
HETATM    3  N1  UNL     1      32.504  15.960  10.870  1.00  0.00    -0.366 N 
ATOM      4  H1  UNL     1      33.377  16.108  10.364  1.00  0.00     0.165 HD
HETATM    5  C3  UNL     1      32.528  15.912  12.260  1.00  0.00     0.102 A 
HETATM    6  C4  UNL     1      31.384  15.696  12.945  1.00  0.00     0.016 A 
HETATM    7  C6  UNL     1      30.230  15.553  12.236  1.00  0.00     0.028 A 
HETATM    8  C11 UNL     1      30.217  15.615  10.906  1.00  0.00     0.100 A 
ENDROOT
BRANCH   7   9
HETATM    9  C7  UNL     1      28.985  15.397  13.025  1.00  0.00     0.099 C 
HETATM   10  N2  UNL     1      28.209  14.411  12.771  1.00  0.00    -0.382 N 
ATOM     11  H2  UNL     1      28.432  13.742  12.035  1.00  0.00     0.160 HD
BRANCH  10  12
HETATM   12  C8  UNL     1      26.977  14.275  13.577  1.00  0.00     0.206 C 
BRANCH  12  13
HETATM   13  C9  UNL     1      26.250  13.087  12.977  1.00  0.00     0.200 C 
BRANCH  13  14
HETATM   14  O5  UNL     1      24.904  13.301  12.938  1.00  0.00    -0.398 OA
ATOM     15  H5  UNL     1      24.424  12.507  13.141  1.00  0.00     0.209 HD
ENDBRANCH  13  14
ENDBRANCH  12  13
BRANCH  12  16
HETATM   16  C10 UNL     1      27.433  13.968  14.926  1.00  0.00     0.198 C 
HETATM   17  O6  UNL     1      27.210  14.751  15.844  1.00  0.00    -0.646 OA
HETATM   18  O7  UNL     1      28.101  12.808  15.170  1.00  0.00    -0.646 OA
ENDBRANCH  12  16
ENDBRANCH  10  12
ENDBRANCH   7   9
BRANCH   6  19
HETATM   19  C5  UNL     1      31.333  15.296  14.368  1.00  0.00     0.163 C 
BRANCH  19  20
HETATM   20  O1  UNL     1      31.706  16.008  15.364  1.00  0.00    -0.252 OA
BRANCH  20  21
HETATM   21  P1  UNL     1      31.398  17.158  16.175  1.00  0.00     0.426 P 
HETATM   22  O2  UNL     1      29.766  16.772  16.251  1.00  0.00    -0.617 OA
HETATM   23  O3  UNL     1      31.892  18.207  15.015  1.00  0.00    -0.617 OA
HETATM   24  O4  UNL     1      32.413  16.698  17.386  1.00  0.00    -0.617 OA
ENDBRANCH  20  21
ENDBRANCH  19  20
ENDBRANCH   6  19
BRANCH   8  25
HETATM   25  O8  UNL     1      28.994  15.463  10.219  1.00  0.00    -0.358 OA
ATOM     26  H8  UNL     1      28.348  16.159  10.256  1.00  0.00     0.217 HD
ENDBRANCH   8  25
TORSDOF 9
ENDMDL
