MODEL 1
REMARK VINA RESULT: -7.918276918      0.000      0.000
REMARK  9 active torsions:
REMARK  status: ('A' for Active; 'I' for Inactive)
REMARK    1  A    between atoms: C4_6  and  C5_7 
REMARK    2  A    between atoms: C5_7  and  O1_8 
REMARK    3  A    between atoms: O1_8  and  P1_9 
REMARK    4  A    between atoms: C6_13  and  C7_14 
REMARK    5  A    between atoms: N2_15  and  C8_17 
REMARK    6  A    between atoms: C8_17  and  C9_18 
REMARK    7  A    between atoms: C8_17  and  C10_21 
REMARK    8  A    between atoms: C9_18  and  O5_19 
REMARK    9  A    between atoms: C11_24  and  O8_25 
ROOT
HETATM    1  C1  UNL     1      26.080  12.957  12.964  1.00  0.00     0.071 C 
HETATM    2  C2  UNL     1      27.054  13.773  13.712  1.00  0.00     0.039 A 
HETATM    3  N1  UNL     1      26.992  14.001  15.012  1.00  0.00    -0.366 N 
ATOM      4  H1  UNL     1      26.316  13.484  15.574  1.00  0.00     0.165 HD
HETATM    5  C3  UNL     1      27.824  14.925  15.636  1.00  0.00     0.102 A 
HETATM    6  C4  UNL     1      28.711  15.633  14.904  1.00  0.00     0.016 A 
HETATM    7  C6  UNL     1      28.770  15.395  13.564  1.00  0.00     0.028 A 
HETATM    8  C11 UNL     1      27.979  14.498  12.980  1.00  0.00     0.100 A 
ENDROOT
BRANCH   7   9
HETATM    9  C7  UNL     1      29.809  16.134  12.808  1.00  0.00     0.099 C 
HETATM   10  N2  UNL     1      30.573  15.487  12.009  1.00  0.00    -0.382 N 
ATOM     11  H2  UNL     1      30.478  14.478  11.892  1.00  0.00     0.160 HD
BRANCH  10  12
HETATM   12  C8  UNL     1      31.596  16.249  11.262  1.00  0.00     0.206 C 
BRANCH  12  13
HETATM   13  C9  UNL     1      32.852  15.404  11.354  1.00  0.00     0.200 C 
BRANCH  13  14
HETATM   14  O5  UNL     1      32.679  14.197  10.743  1.00  0.00    -0.398 OA
ATOM     15  H5  UNL     1      33.093  14.182   9.889  1.00  0.00     0.209 HD
ENDBRANCH  13  14
ENDBRANCH  12  13
BRANCH  12  16
HETATM   16  C10 UNL     1      31.112  16.299   9.889  1.00  0.00     0.198 C 
HETATM   17  O6  UNL     1      31.896  16.508   8.969  1.00  0.00    -0.646 OA
HETATM   18  O7  UNL     1      29.791  16.106   9.627  1.00  0.00    -0.646 OA
ENDBRANCH  12  16
ENDBRANCH  10  12
ENDBRANCH   7   9
BRANCH   6  19
HETATM   19  C5  UNL     1      29.394  16.854  15.384  1.00  0.00     0.163 C 
BRANCH  19  20
HETATM   20  O1  UNL     1      30.398  16.893  16.177  1.00  0.00    -0.252 OA
BRANCH  20  21
HETATM   21  P1  UNL     1      31.764  17.321  16.333  1.00  0.00     0.426 P 
HETATM   22  O2  UNL     1      31.861  17.870  14.749  1.00  0.00    -0.617 OA
HETATM   23  O3  UNL     1      32.287  15.801  16.658  1.00  0.00    -0.617 OA
HETATM   24  O4  UNL     1      31.400  18.369  17.549  1.00  0.00    -0.617 OA
ENDBRANCH  20  21
ENDBRANCH  19  20
ENDBRANCH   6  19
BRANCH   8  25
HETATM   25  O8  UNL     1      28.082  14.287  11.589  1.00  0.00    -0.358 OA
ATOM     26  H8  UNL     1      27.312  14.021  11.099  1.00  0.00     0.217 HD
ENDBRANCH   8  25
TORSDOF 9
ENDMDL
