MODEL 5
REMARK VINA RESULT: -7.164006856      5.467      9.123
REMARK  9 active torsions:
REMARK  status: ('A' for Active; 'I' for Inactive)
REMARK    1  A    between atoms: C4_6  and  C5_7 
REMARK    2  A    between atoms: C5_7  and  O1_8 
REMARK    3  A    between atoms: O1_8  and  P1_9 
REMARK    4  A    between atoms: C6_13  and  C7_14 
REMARK    5  A    between atoms: N2_15  and  C8_17 
REMARK    6  A    between atoms: C8_17  and  C9_18 
REMARK    7  A    between atoms: C8_17  and  C10_21 
REMARK    8  A    between atoms: C9_18  and  O5_19 
REMARK    9  A    between atoms: C11_24  and  O8_25 
ROOT
HETATM    1  C1  UNL     1      36.966  13.650   5.943  1.00  0.00     0.071 C 
HETATM    2  C2  UNL     1      35.638  13.116   6.292  1.00  0.00     0.039 A 
HETATM    3  N1  UNL     1      34.983  12.219   5.575  1.00  0.00    -0.366 N 
ATOM      4  H1  UNL     1      35.461  11.758   4.802  1.00  0.00     0.165 HD
HETATM    5  C3  UNL     1      33.659  11.887   5.845  1.00  0.00     0.102 A 
HETATM    6  C4  UNL     1      33.004  12.504   6.853  1.00  0.00     0.016 A 
HETATM    7  C6  UNL     1      33.683  13.427   7.588  1.00  0.00     0.028 A 
HETATM    8  C11 UNL     1      34.953  13.727   7.329  1.00  0.00     0.100 A 
ENDROOT
BRANCH   7   9
HETATM    9  C7  UNL     1      32.955  14.024   8.733  1.00  0.00     0.099 C 
HETATM   10  N2  UNL     1      32.917  15.298   8.848  1.00  0.00    -0.382 N 
ATOM     11  H2  UNL     1      33.382  15.902   8.169  1.00  0.00     0.160 HD
BRANCH  10  12
HETATM   12  C8  UNL     1      32.178  15.868   9.995  1.00  0.00     0.206 C 
BRANCH  12  13
HETATM   13  C9  UNL     1      32.775  15.191  11.214  1.00  0.00     0.200 C 
BRANCH  13  14
HETATM   14  O5  UNL     1      31.907  15.214  12.265  1.00  0.00    -0.398 OA
ATOM     15  H5  UNL     1      32.153  14.580  12.928  1.00  0.00     0.209 HD
ENDBRANCH  13  14
ENDBRANCH  12  13
BRANCH  12  16
HETATM   16  C10 UNL     1      32.498  17.289   9.991  1.00  0.00     0.198 C 
HETATM   17  O6  UNL     1      32.519  17.917  11.045  1.00  0.00    -0.646 OA
HETATM   18  O7  UNL     1      32.782  17.919   8.819  1.00  0.00    -0.646 OA
ENDBRANCH  12  16
ENDBRANCH  10  12
ENDBRANCH   7   9
BRANCH   6  19
HETATM   19  C5  UNL     1      31.534  12.485   7.018  1.00  0.00     0.163 C 
BRANCH  19  20
HETATM   20  O1  UNL     1      30.743  11.564   6.613  1.00  0.00    -0.252 OA
BRANCH  20  21
HETATM   21  P1  UNL     1      29.718  11.221   5.660  1.00  0.00     0.426 P 
HETATM   22  O2  UNL     1      29.331  12.829   5.372  1.00  0.00    -0.617 OA
HETATM   23  O3  UNL     1      28.840  10.404   6.779  1.00  0.00    -0.617 OA
HETATM   24  O4  UNL     1      30.767  10.434   4.667  1.00  0.00    -0.617 OA
ENDBRANCH  20  21
ENDBRANCH  19  20
ENDBRANCH   6  19
BRANCH   8  25
HETATM   25  O8  UNL     1      35.613  14.688   8.123  1.00  0.00    -0.358 OA
ATOM     26  H8  UNL     1      35.106  15.230   8.718  1.00  0.00     0.217 HD
ENDBRANCH   8  25
TORSDOF 9
ENDMDL
