MODEL 2
REMARK VINA RESULT: -7.911508280      0.942      1.482
REMARK  9 active torsions:
REMARK  status: ('A' for Active; 'I' for Inactive)
REMARK    1  A    between atoms: C4_6  and  C5_7 
REMARK    2  A    between atoms: C5_7  and  O1_8 
REMARK    3  A    between atoms: O1_8  and  P1_9 
REMARK    4  A    between atoms: C6_13  and  C7_14 
REMARK    5  A    between atoms: N2_15  and  C8_17 
REMARK    6  A    between atoms: C8_17  and  C9_18 
REMARK    7  A    between atoms: C8_17  and  C10_21 
REMARK    8  A    between atoms: C9_18  and  O5_19 
REMARK    9  A    between atoms: C11_24  and  O8_25 
ROOT
HETATM    1  C1  UNL     1      26.130  12.927  12.963  1.00  0.00     0.071 C 
HETATM    2  C2  UNL     1      27.102  13.776  13.675  1.00  0.00     0.039 A 
HETATM    3  N1  UNL     1      27.053  14.039  14.970  1.00  0.00    -0.366 N 
ATOM      4  H1  UNL     1      26.390  13.530  15.554  1.00  0.00     0.165 HD
HETATM    5  C3  UNL     1      27.880  14.991  15.557  1.00  0.00     0.102 A 
HETATM    6  C4  UNL     1      28.749  15.689  14.795  1.00  0.00     0.016 A 
HETATM    7  C6  UNL     1      28.796  15.414  13.462  1.00  0.00     0.028 A 
HETATM    8  C11 UNL     1      28.009  14.491  12.913  1.00  0.00     0.100 A 
ENDROOT
BRANCH   7   9
HETATM    9  C7  UNL     1      29.816  16.144  12.673  1.00  0.00     0.099 C 
HETATM   10  N2  UNL     1      30.582  15.484  11.886  1.00  0.00    -0.382 N 
ATOM     11  H2  UNL     1      30.501  14.471  11.801  1.00  0.00     0.160 HD
BRANCH  10  12
HETATM   12  C8  UNL     1      31.586  16.237  11.106  1.00  0.00     0.206 C 
BRANCH  12  13
HETATM   13  C9  UNL     1      32.768  16.393  12.045  1.00  0.00     0.200 C 
BRANCH  13  14
HETATM   14  O5  UNL     1      33.355  17.615  11.899  1.00  0.00    -0.398 OA
ATOM     15  H5  UNL     1      33.638  17.962  12.737  1.00  0.00     0.209 HD
ENDBRANCH  13  14
ENDBRANCH  12  13
BRANCH  12  16
HETATM   16  C10 UNL     1      31.933  15.371   9.987  1.00  0.00     0.198 C 
HETATM   17  O6  UNL     1      32.969  15.564   9.359  1.00  0.00    -0.646 OA
HETATM   18  O7  UNL     1      31.110  14.343   9.643  1.00  0.00    -0.646 OA
ENDBRANCH  12  16
ENDBRANCH  10  12
ENDBRANCH   7   9
BRANCH   6  19
HETATM   19  C5  UNL     1      29.422  16.932  15.232  1.00  0.00     0.163 C 
BRANCH  19  20
HETATM   20  O1  UNL     1      30.371  17.012  16.087  1.00  0.00    -0.252 OA
BRANCH  20  21
HETATM   21  P1  UNL     1      31.764  17.327  16.280  1.00  0.00     0.426 P 
HETATM   22  O2  UNL     1      31.435  18.404  17.525  1.00  0.00    -0.617 OA
HETATM   23  O3  UNL     1      31.921  17.925  14.761  1.00  0.00    -0.617 OA
HETATM   24  O4  UNL     1      32.169  15.768  16.622  1.00  0.00    -0.617 OA
ENDBRANCH  20  21
ENDBRANCH  19  20
ENDBRANCH   6  19
BRANCH   8  25
HETATM   25  O8  UNL     1      28.098  14.242  11.527  1.00  0.00    -0.358 OA
ATOM     26  H8  UNL     1      28.275  14.963  10.933  1.00  0.00     0.217 HD
ENDBRANCH   8  25
TORSDOF 9
ENDMDL
