MODEL 5
REMARK VINA RESULT: -2.528581434      2.450      5.381
REMARK  4 active torsions:
REMARK  status: ('A' for Active; 'I' for Inactive)
REMARK    1  A    between atoms: C3_3  and  C4_4 
REMARK    2  A    between atoms: C4_4  and  O1_5 
REMARK    3  A    between atoms: C18_21  and  C19_22 
REMARK    4  A    between atoms: C22_25  and  N1_26 
ROOT
HETATM    1  C1  UNL     1      12.979   2.617  13.090  1.00  0.00     0.112 C 
HETATM    2  C2  UNL     1      12.067   3.699  12.684  1.00  0.00    -0.108 C 
HETATM    3  C3  UNL     1      11.339   4.582  12.341  1.00  0.00    -0.068 C 
ENDROOT
BRANCH   3   4
HETATM    4  C4  UNL     1      10.475   5.667  11.915  1.00  0.00     0.128 C 
HETATM    5  C5  UNL     1       9.143   5.669  12.674  1.00  0.00     0.052 C 
HETATM    6  C6  UNL     1       8.085   5.233  11.653  1.00  0.00     0.010 C 
HETATM    7  C7  UNL     1       8.906   4.564  10.619  1.00  0.00     0.006 C 
HETATM    8  C8  UNL     1       8.282   4.364   9.287  1.00  0.00     0.021 C 
HETATM    9  C28 UNL     1      10.063   5.540  10.452  1.00  0.00     0.004 C 
HETATM   10  C9  UNL     1       7.175   3.312   9.504  1.00  0.00     0.014 C 
HETATM   11  C17 UNL     1       9.229   3.924   8.257  1.00  0.00    -0.060 C 
HETATM   12  C10 UNL     1       6.349   3.377   8.249  1.00  0.00     0.040 C 
HETATM   13  C11 UNL     1       7.304   3.025   7.129  1.00  0.00    -0.048 C 
HETATM   14  C12 UNL     1       6.741   2.477   6.047  1.00  0.00     0.057 C 
HETATM   15  C16 UNL     1       8.739   3.271   7.217  1.00  0.00    -0.048 C 
HETATM   16  C13 UNL     1       7.625   2.125   4.951  1.00  0.00     0.150 C 
HETATM   17  O2  UNL     1       7.192   2.166   3.776  1.00  0.00    -0.293 OA
HETATM   18  C14 UNL     1       9.017   1.730   5.320  1.00  0.00     0.087 C 
HETATM   19  C15 UNL     1       9.680   2.808   6.150  1.00  0.00     0.047 C 
HETATM   20  C18 UNL     1      10.652   4.199   8.375  1.00  0.00     0.049 C 
HETATM   21  C27 UNL     1      11.097   4.875   9.626  1.00  0.00     0.027 C 
HETATM   22  C29 UNL     1       9.622   6.891  10.011  1.00  0.00     0.020 C 
BRANCH   4  23
HETATM   23  O1  UNL     1      11.157   6.865  12.095  1.00  0.00    -0.377 OA
ATOM     24  H1  UNL     1      10.518   7.564  12.179  1.00  0.00     0.211 HD
ENDBRANCH   4  23
BRANCH  20  25
HETATM   25  C19 UNL     1      11.226   4.966   7.254  1.00  0.00    -0.050 A 
HETATM   26  C20 UNL     1      12.412   4.569   6.711  1.00  0.00     0.010 A 
HETATM   27  C21 UNL     1      13.005   5.244   5.648  1.00  0.00     0.030 A 
HETATM   28  C22 UNL     1      12.369   6.367   5.119  1.00  0.00     0.029 A 
HETATM   29  C25 UNL     1      11.172   6.743   5.692  1.00  0.00     0.030 A 
HETATM   30  C26 UNL     1      10.607   6.054   6.743  1.00  0.00     0.010 A 
BRANCH  28  31
HETATM   31  N1  UNL     1      12.935   7.090   4.036  1.00  0.00    -0.390 N 
HETATM   32  C23 UNL     1      14.112   6.581   3.375  1.00  0.00     0.149 C 
HETATM   33  C24 UNL     1      12.361   8.328   3.574  1.00  0.00     0.149 C 
ENDBRANCH  28  31
ENDBRANCH  20  25
ENDBRANCH   3   4
TORSDOF 4
ENDMDL
