MODEL 3
REMARK VINA RESULT: -4.887371140      1.786      5.786
REMARK  4 active torsions:
REMARK  status: ('A' for Active; 'I' for Inactive)
REMARK    1  A    between atoms: C3_3  and  C4_4 
REMARK    2  A    between atoms: C4_4  and  O1_5 
REMARK    3  A    between atoms: C18_21  and  C19_22 
REMARK    4  A    between atoms: C22_25  and  N1_26 
ROOT
HETATM    1  C1  UNL     1      15.563   1.863   7.319  1.00  0.00     0.112 C 
HETATM    2  C2  UNL     1      14.850   3.096   6.945  1.00  0.00    -0.108 C 
HETATM    3  C3  UNL     1      14.286   4.107   6.649  1.00  0.00    -0.068 C 
ENDROOT
BRANCH   3   4
HETATM    4  C4  UNL     1      13.612   5.346   6.308  1.00  0.00     0.128 C 
HETATM    5  C5  UNL     1      14.343   6.568   6.876  1.00  0.00     0.052 C 
HETATM    6  C6  UNL     1      13.448   7.098   8.004  1.00  0.00     0.010 C 
HETATM    7  C7  UNL     1      12.605   5.921   8.311  1.00  0.00     0.006 C 
HETATM    8  C8  UNL     1      11.353   6.167   9.072  1.00  0.00     0.021 C 
HETATM    9  C28 UNL     1      12.218   5.435   6.921  1.00  0.00     0.004 C 
HETATM   10  C9  UNL     1      11.807   6.579  10.488  1.00  0.00     0.014 C 
HETATM   11  C17 UNL     1      10.461   5.004   9.124  1.00  0.00    -0.060 C 
HETATM   12  C10 UNL     1      10.567   7.144  11.126  1.00  0.00     0.040 C 
HETATM   13  C11 UNL     1       9.567   6.008  11.119  1.00  0.00    -0.048 C 
HETATM   14  C12 UNL     1       8.642   6.054  12.083  1.00  0.00     0.057 C 
HETATM   15  C16 UNL     1       9.602   4.940  10.127  1.00  0.00    -0.048 C 
HETATM   16  C13 UNL     1       7.664   4.981  12.110  1.00  0.00     0.150 C 
HETATM   17  O2  UNL     1       6.510   5.214  12.540  1.00  0.00    -0.293 OA
HETATM   18  C14 UNL     1       8.123   3.651  11.611  1.00  0.00     0.087 C 
HETATM   19  C15 UNL     1       8.679   3.765  10.208  1.00  0.00     0.047 C 
HETATM   20  C18 UNL     1      10.518   3.965   8.109  1.00  0.00     0.049 C 
HETATM   21  C27 UNL     1      11.577   4.108   7.070  1.00  0.00     0.027 C 
HETATM   22  C29 UNL     1      11.468   6.455   6.138  1.00  0.00     0.020 C 
BRANCH   4  23
HETATM   23  O1  UNL     1      13.508   5.422   4.924  1.00  0.00    -0.377 OA
ATOM     24  H1  UNL     1      12.607   5.630   4.703  1.00  0.00     0.211 HD
ENDBRANCH   4  23
BRANCH  20  25
HETATM   25  C19 UNL     1       9.251   3.736   7.390  1.00  0.00    -0.050 A 
HETATM   26  C20 UNL     1       8.978   2.494   6.899  1.00  0.00     0.010 A 
HETATM   27  C21 UNL     1       7.799   2.208   6.216  1.00  0.00     0.030 A 
HETATM   28  C22 UNL     1       6.862   3.225   6.027  1.00  0.00     0.029 A 
HETATM   29  C25 UNL     1       7.170   4.469   6.536  1.00  0.00     0.030 A 
HETATM   30  C26 UNL     1       8.346   4.722   7.208  1.00  0.00     0.010 A 
BRANCH  28  31
HETATM   31  N1  UNL     1       5.646   2.982   5.337  1.00  0.00    -0.390 N 
HETATM   32  C23 UNL     1       5.601   1.987   4.293  1.00  0.00     0.149 C 
HETATM   33  C24 UNL     1       4.442   3.709   5.653  1.00  0.00     0.149 C 
ENDBRANCH  28  31
ENDBRANCH  20  25
ENDBRANCH   3   4
TORSDOF 4
ENDMDL
