MODEL 2
REMARK VINA RESULT: -6.610557479      1.804      2.421
REMARK  4 active torsions:
REMARK  status: ('A' for Active; 'I' for Inactive)
REMARK    1  A    between atoms: C3_3  and  C4_4 
REMARK    2  A    between atoms: C4_4  and  O1_5 
REMARK    3  A    between atoms: C18_21  and  C19_22 
REMARK    4  A    between atoms: C22_25  and  N1_26 
ROOT
HETATM    1  C1  UNL     1      10.610   8.070  13.170  1.00  0.00     0.112 C 
HETATM    2  C2  UNL     1      10.935   6.695  12.759  1.00  0.00    -0.108 C 
HETATM    3  C3  UNL     1      11.218   5.582  12.427  1.00  0.00    -0.068 C 
ENDROOT
BRANCH   3   4
HETATM    4  C4  UNL     1      11.583   4.240  12.014  1.00  0.00     0.128 C 
HETATM    5  C5  UNL     1      13.020   3.889  12.416  1.00  0.00     0.052 C 
HETATM    6  C6  UNL     1      13.819   3.857  11.107  1.00  0.00     0.010 C 
HETATM    7  C7  UNL     1      12.958   4.644  10.197  1.00  0.00     0.006 C 
HETATM    8  C8  UNL     1      13.203   4.497   8.739  1.00  0.00     0.021 C 
HETATM    9  C28 UNL     1      11.576   4.079  10.497  1.00  0.00     0.004 C 
HETATM   10  C9  UNL     1      14.575   5.156   8.484  1.00  0.00     0.014 C 
HETATM   11  C17 UNL     1      12.164   5.111   7.906  1.00  0.00    -0.060 C 
HETATM   12  C10 UNL     1      14.954   4.702   7.101  1.00  0.00     0.040 C 
HETATM   13  C11 UNL     1      13.856   5.226   6.200  1.00  0.00    -0.048 C 
HETATM   14  C12 UNL     1      14.215   5.452   4.932  1.00  0.00     0.057 C 
HETATM   15  C16 UNL     1      12.498   5.463   6.676  1.00  0.00    -0.048 C 
HETATM   16  C13 UNL     1      13.190   5.955   4.036  1.00  0.00     0.150 C 
HETATM   17  O2  UNL     1      13.239   5.658   2.820  1.00  0.00    -0.293 OA
HETATM   18  C14 UNL     1      12.132   6.810   4.651  1.00  0.00     0.087 C 
HETATM   19  C15 UNL     1      11.461   6.092   5.801  1.00  0.00     0.047 C 
HETATM   20  C18 UNL     1      10.817   5.319   8.412  1.00  0.00     0.049 C 
HETATM   21  C27 UNL     1      10.579   4.952   9.837  1.00  0.00     0.027 C 
HETATM   22  C29 UNL     1      11.475   2.620  10.220  1.00  0.00     0.020 C 
BRANCH   4  23
HETATM   23  O1  UNL     1      10.673   3.348  12.571  1.00  0.00    -0.377 OA
ATOM     24  H1  UNL     1      11.108   2.511  12.688  1.00  0.00     0.211 HD
ENDBRANCH   4  23
BRANCH  20  25
HETATM   25  C19 UNL     1       9.755   4.666   7.626  1.00  0.00    -0.050 A 
HETATM   26  C20 UNL     1      10.052   3.554   6.895  1.00  0.00     0.010 A 
HETATM   27  C21 UNL     1       9.096   2.886   6.136  1.00  0.00     0.030 A 
HETATM   28  C22 UNL     1       7.786   3.368   6.119  1.00  0.00     0.029 A 
HETATM   29  C25 UNL     1       7.519   4.495   6.868  1.00  0.00     0.030 A 
HETATM   30  C26 UNL     1       8.488   5.135   7.611  1.00  0.00     0.010 A 
BRANCH  28  31
HETATM   31  N1  UNL     1       6.776   2.722   5.359  1.00  0.00    -0.390 N 
HETATM   32  C23 UNL     1       5.442   3.270   5.331  1.00  0.00     0.149 C 
HETATM   33  C24 UNL     1       7.049   1.523   4.609  1.00  0.00     0.149 C 
ENDBRANCH  28  31
ENDBRANCH  20  25
ENDBRANCH   3   4
TORSDOF 4
ENDMDL
