MODEL 1
REMARK VINA RESULT: -6.729815733      0.000      0.000
REMARK  4 active torsions:
REMARK  status: ('A' for Active; 'I' for Inactive)
REMARK    1  A    between atoms: C3_3  and  C4_4 
REMARK    2  A    between atoms: C4_4  and  O1_5 
REMARK    3  A    between atoms: C18_21  and  C19_22 
REMARK    4  A    between atoms: C22_25  and  N1_26 
ROOT
HETATM    1  C1  UNL     1       6.200   7.091  12.553  1.00  0.00     0.112 C 
HETATM    2  C2  UNL     1       7.189   6.025  12.322  1.00  0.00    -0.108 C 
HETATM    3  C3  UNL     1       7.979   5.150  12.125  1.00  0.00    -0.068 C 
ENDROOT
BRANCH   3   4
HETATM    4  C4  UNL     1       8.918   4.070  11.887  1.00  0.00     0.128 C 
HETATM    5  C5  UNL     1      10.211   4.249  12.690  1.00  0.00     0.052 C 
HETATM    6  C6  UNL     1      11.291   4.605  11.661  1.00  0.00     0.010 C 
HETATM    7  C7  UNL     1      10.485   5.079  10.514  1.00  0.00     0.006 C 
HETATM    8  C8  UNL     1      11.158   5.134   9.191  1.00  0.00     0.021 C 
HETATM    9  C28 UNL     1       9.390   4.023  10.437  1.00  0.00     0.004 C 
HETATM   10  C9  UNL     1      12.197   6.269   9.305  1.00  0.00     0.014 C 
HETATM   11  C17 UNL     1      10.238   5.375   8.075  1.00  0.00    -0.060 C 
HETATM   12  C10 UNL     1      13.083   6.085   8.104  1.00  0.00     0.040 C 
HETATM   13  C11 UNL     1      12.163   6.226   6.911  1.00  0.00    -0.048 C 
HETATM   14  C12 UNL     1      12.746   6.655   5.787  1.00  0.00     0.057 C 
HETATM   15  C16 UNL     1      10.742   5.910   6.975  1.00  0.00    -0.048 C 
HETATM   16  C13 UNL     1      11.897   6.804   4.619  1.00  0.00     0.150 C 
HETATM   17  O2  UNL     1      12.386   6.631   3.478  1.00  0.00    -0.293 OA
HETATM   18  C14 UNL     1      10.470   7.162   4.876  1.00  0.00     0.087 C 
HETATM   19  C15 UNL     1       9.828   6.169   5.820  1.00  0.00     0.047 C 
HETATM   20  C18 UNL     1       8.828   5.035   8.174  1.00  0.00     0.049 C 
HETATM   21  C27 UNL     1       8.362   4.508   9.488  1.00  0.00     0.027 C 
HETATM   22  C29 UNL     1       9.923   2.653  10.202  1.00  0.00     0.020 C 
BRANCH   4  23
HETATM   23  O1  UNL     1       8.293   2.868  12.202  1.00  0.00    -0.377 OA
ATOM     24  H1  UNL     1       7.375   2.937  11.965  1.00  0.00     0.211 HD
ENDBRANCH   4  23
BRANCH  20  25
HETATM   25  C19 UNL     1       8.349   4.091   7.148  1.00  0.00    -0.050 A 
HETATM   26  C20 UNL     1       7.016   4.033   6.865  1.00  0.00     0.010 A 
HETATM   27  C21 UNL     1       6.498   3.169   5.904  1.00  0.00     0.030 A 
HETATM   28  C22 UNL     1       7.369   2.333   5.204  1.00  0.00     0.029 A 
HETATM   29  C25 UNL     1       8.710   2.416   5.515  1.00  0.00     0.030 A 
HETATM   30  C26 UNL     1       9.194   3.282   6.472  1.00  0.00     0.010 A 
BRANCH  28  31
HETATM   31  N1  UNL     1       6.888   1.435   4.215  1.00  0.00    -0.390 N 
HETATM   32  C23 UNL     1       5.565   1.615   3.668  1.00  0.00     0.149 C 
HETATM   33  C24 UNL     1       7.692   0.339   3.738  1.00  0.00     0.149 C 
ENDBRANCH  28  31
ENDBRANCH  20  25
ENDBRANCH   3   4
TORSDOF 4
ENDMDL
