MODEL 4
REMARK VINA RESULT: -4.653499841      1.837      5.732
REMARK  4 active torsions:
REMARK  status: ('A' for Active; 'I' for Inactive)
REMARK    1  A    between atoms: C3_3  and  C4_4 
REMARK    2  A    between atoms: C4_4  and  O1_5 
REMARK    3  A    between atoms: C18_21  and  C19_22 
REMARK    4  A    between atoms: C22_25  and  N1_26 
ROOT
HETATM    1  C1  UNL     1      15.686   1.864   7.644  1.00  0.00     0.112 C 
HETATM    2  C2  UNL     1      14.984   3.075   7.189  1.00  0.00    -0.108 C 
HETATM    3  C3  UNL     1      14.420   4.068   6.836  1.00  0.00    -0.068 C 
ENDROOT
BRANCH   3   4
HETATM    4  C4  UNL     1      13.731   5.279   6.432  1.00  0.00     0.128 C 
HETATM    5  C5  UNL     1      14.434   6.538   6.952  1.00  0.00     0.052 C 
HETATM    6  C6  UNL     1      13.516   7.102   8.045  1.00  0.00     0.010 C 
HETATM    7  C7  UNL     1      12.688   5.926   8.395  1.00  0.00     0.006 C 
HETATM    8  C8  UNL     1      11.424   6.185   9.129  1.00  0.00     0.021 C 
HETATM    9  C28 UNL     1      12.328   5.371   7.024  1.00  0.00     0.004 C 
HETATM   10  C9  UNL     1      11.852   6.667  10.530  1.00  0.00     0.014 C 
HETATM   11  C17 UNL     1      10.550   5.010   9.223  1.00  0.00    -0.060 C 
HETATM   12  C10 UNL     1      10.596   7.240  11.127  1.00  0.00     0.040 C 
HETATM   13  C11 UNL     1       9.615   6.088  11.159  1.00  0.00    -0.048 C 
HETATM   14  C12 UNL     1       8.677   6.161  12.109  1.00  0.00     0.057 C 
HETATM   15  C16 UNL     1       9.679   4.977  10.218  1.00  0.00    -0.048 C 
HETATM   16  C13 UNL     1       7.716   5.074  12.173  1.00  0.00     0.150 C 
HETATM   17  O2  UNL     1       6.553   5.307  12.579  1.00  0.00    -0.293 OA
HETATM   18  C14 UNL     1       8.203   3.731  11.740  1.00  0.00     0.087 C 
HETATM   19  C15 UNL     1       8.775   3.792  10.341  1.00  0.00     0.047 C 
HETATM   20  C18 UNL     1      10.637   3.928   8.256  1.00  0.00     0.049 C 
HETATM   21  C27 UNL     1      11.707   4.042   7.225  1.00  0.00     0.027 C 
HETATM   22  C29 UNL     1      11.571   6.343   6.186  1.00  0.00     0.020 C 
BRANCH   4  23
HETATM   23  O1  UNL     1      13.642   5.291   5.045  1.00  0.00    -0.377 OA
ATOM     24  H1  UNL     1      13.534   6.190   4.759  1.00  0.00     0.211 HD
ENDBRANCH   4  23
BRANCH  20  25
HETATM   25  C19 UNL     1       9.384   3.645   7.534  1.00  0.00    -0.050 A 
HETATM   26  C20 UNL     1       8.760   4.652   6.858  1.00  0.00     0.010 A 
HETATM   27  C21 UNL     1       7.578   4.452   6.151  1.00  0.00     0.030 A 
HETATM   28  C22 UNL     1       7.008   3.178   6.130  1.00  0.00     0.029 A 
HETATM   29  C25 UNL     1       7.664   2.182   6.824  1.00  0.00     0.030 A 
HETATM   30  C26 UNL     1       8.834   2.411   7.515  1.00  0.00     0.010 A 
BRANCH  28  31
HETATM   31  N1  UNL     1       5.804   2.924   5.424  1.00  0.00    -0.390 N 
HETATM   32  C23 UNL     1       4.613   3.672   5.748  1.00  0.00     0.149 C 
HETATM   33  C24 UNL     1       5.736   1.931   4.382  1.00  0.00     0.149 C 
ENDBRANCH  28  31
ENDBRANCH  20  25
ENDBRANCH   3   4
TORSDOF 4
ENDMDL
