MODEL 3
REMARK VINA RESULT: -7.362154711      4.093      6.647
REMARK  5 active torsions:
REMARK  status: ('A' for Active; 'I' for Inactive)
REMARK    1  A    between atoms: O1_2  and  C2_3 
REMARK    2  A    between atoms: C4_5  and  C5_6 
REMARK    3  A    between atoms: C5_6  and  C6_7 
REMARK    4  A    between atoms: C11_18  and  O2_19 
REMARK    5  A    between atoms: C13_21  and  O3_22 
ROOT
HETATM    1  C2  UNL     1       7.926  -4.879  15.604  1.00  0.00     0.104 A 
HETATM    2  C3  UNL     1       8.979  -5.318  16.371  1.00  0.00     0.047 A 
HETATM    3  C4  UNL     1       9.734  -4.451  17.176  1.00  0.00    -0.048 A 
HETATM    4  C10 UNL     1       9.371  -3.126  17.163  1.00  0.00     0.047 A 
HETATM    5  C11 UNL     1       8.304  -2.653  16.390  1.00  0.00     0.104 A 
HETATM    6  C13 UNL     1       7.586  -3.538  15.612  1.00  0.00     0.135 A 
ENDROOT
BRANCH   3   7
HETATM    7  C5  UNL     1      10.854  -5.006  17.978  1.00  0.00     0.082 C 
BRANCH   7   8
HETATM    8  C6  UNL     1      11.027  -4.382  19.287  1.00  0.00     0.003 A 
HETATM    9  C7  UNL     1      11.632  -3.135  19.399  1.00  0.00     0.101 A 
HETATM   10  N1  UNL     1      11.803  -2.582  20.617  1.00  0.00    -0.340 N 
HETATM   11  C8  UNL     1      11.403  -3.202  21.742  1.00  0.00     0.193 A 
ATOM     12  H1  UNL     1      12.248  -1.666  20.686  1.00  0.00     0.167 HD
HETATM   13  N2  UNL     1      11.609  -2.576  23.002  1.00  0.00    -0.063 NA
HETATM   14  N3  UNL     1      10.818  -4.412  21.631  1.00  0.00    -0.318 N 
HETATM   15  C9  UNL     1      10.621  -5.010  20.442  1.00  0.00     0.126 A 
ATOM     16  H3  UNL     1      10.512  -4.891  22.478  1.00  0.00     0.169 HD
HETATM   17  N4  UNL     1       9.974  -6.284  20.460  1.00  0.00    -0.082 NA
ENDBRANCH   7   8
ENDBRANCH   3   7
BRANCH   1  18
HETATM   18  O1  UNL     1       7.192  -5.749  14.813  1.00  0.00    -0.353 OA
HETATM   19  C1  UNL     1       7.847  -6.518  13.796  1.00  0.00     0.210 C 
ENDBRANCH   1  18
BRANCH   5  20
HETATM   20  O2  UNL     1       7.975  -1.310  16.410  1.00  0.00    -0.353 OA
HETATM   21  C12 UNL     1       8.744  -0.413  17.180  1.00  0.00     0.210 C 
ENDBRANCH   5  20
BRANCH   6  22
HETATM   22  O3  UNL     1       6.531  -3.066  14.851  1.00  0.00    -0.351 OA
HETATM   23  C14 UNL     1       6.654  -2.758  13.479  1.00  0.00     0.210 C 
ENDBRANCH   6  22
TORSDOF 5
ENDMDL
