MODEL 4
REMARK VINA RESULT: -7.327755028      4.755      7.197
REMARK  5 active torsions:
REMARK  status: ('A' for Active; 'I' for Inactive)
REMARK    1  A    between atoms: O1_2  and  C2_3 
REMARK    2  A    between atoms: C4_5  and  C5_6 
REMARK    3  A    between atoms: C5_6  and  C6_7 
REMARK    4  A    between atoms: C11_18  and  O2_19 
REMARK    5  A    between atoms: C13_21  and  O3_22 
ROOT
HETATM    1  C2  UNL     1      10.661  -4.614  17.499  1.00  0.00     0.104 A 
HETATM    2  C3  UNL     1      10.972  -4.337  18.810  1.00  0.00     0.047 A 
HETATM    3  C4  UNL     1      10.874  -3.045  19.348  1.00  0.00    -0.048 A 
HETATM    4  C10 UNL     1      10.448  -2.054  18.497  1.00  0.00     0.047 A 
HETATM    5  C11 UNL     1      10.125  -2.308  17.159  1.00  0.00     0.104 A 
HETATM    6  C13 UNL     1      10.234  -3.593  16.668  1.00  0.00     0.135 A 
ENDROOT
BRANCH   3   7
HETATM    7  C5  UNL     1      11.228  -2.831  20.775  1.00  0.00     0.082 C 
BRANCH   7   8
HETATM    8  C6  UNL     1      12.297  -1.859  20.991  1.00  0.00     0.003 A 
HETATM    9  C7  UNL     1      12.001  -0.514  21.175  1.00  0.00     0.101 A 
HETATM   10  N1  UNL     1      13.001   0.374  21.353  1.00  0.00    -0.340 N 
HETATM   11  C8  UNL     1      14.293  -0.003  21.359  1.00  0.00     0.193 A 
ATOM     12  H1  UNL     1      12.771   1.358  21.487  1.00  0.00     0.167 HD
HETATM   13  N2  UNL     1      15.309   0.972  21.548  1.00  0.00    -0.063 NA
HETATM   14  N3  UNL     1      14.578  -1.309  21.180  1.00  0.00    -0.318 N 
HETATM   15  C9  UNL     1      13.621  -2.237  20.999  1.00  0.00     0.126 A 
ATOM     16  H3  UNL     1      15.554  -1.604  21.181  1.00  0.00     0.169 HD
HETATM   17  N4  UNL     1      14.055  -3.589  20.836  1.00  0.00    -0.082 NA
ENDBRANCH   7   8
ENDBRANCH   3   7
BRANCH   1  18
HETATM   18  O1  UNL     1      10.764  -5.896  16.984  1.00  0.00    -0.353 OA
HETATM   19  C1  UNL     1       9.743  -6.864  17.261  1.00  0.00     0.210 C 
ENDBRANCH   1  18
BRANCH   5  20
HETATM   20  O2  UNL     1       9.699  -1.278  16.340  1.00  0.00    -0.353 OA
HETATM   21  C12 UNL     1       8.464  -0.647  16.596  1.00  0.00     0.210 C 
ENDBRANCH   5  20
BRANCH   6  22
HETATM   22  O3  UNL     1       9.912  -3.840  15.345  1.00  0.00    -0.351 OA
HETATM   23  C14 UNL     1       8.597  -4.128  14.918  1.00  0.00     0.210 C 
ENDBRANCH   6  22
TORSDOF 5
ENDMDL
