MODEL 5
REMARK VINA RESULT: -7.315949637      4.749      6.698
REMARK  5 active torsions:
REMARK  status: ('A' for Active; 'I' for Inactive)
REMARK    1  A    between atoms: O1_2  and  C2_3 
REMARK    2  A    between atoms: C4_5  and  C5_6 
REMARK    3  A    between atoms: C5_6  and  C6_7 
REMARK    4  A    between atoms: C11_18  and  O2_19 
REMARK    5  A    between atoms: C13_21  and  O3_22 
ROOT
HETATM    1  C2  UNL     1      10.212  -2.227  17.231  1.00  0.00     0.104 A 
HETATM    2  C3  UNL     1      10.522  -2.060  18.560  1.00  0.00     0.047 A 
HETATM    3  C4  UNL     1      10.912  -3.130  19.380  1.00  0.00    -0.048 A 
HETATM    4  C10 UNL     1      10.970  -4.369  18.790  1.00  0.00     0.047 A 
HETATM    5  C11 UNL     1      10.658  -4.567  17.439  1.00  0.00     0.104 A 
HETATM    6  C13 UNL     1      10.279  -3.489  16.666  1.00  0.00     0.135 A 
ENDROOT
BRANCH   3   7
HETATM    7  C5  UNL     1      11.233  -2.864  20.806  1.00  0.00     0.082 C 
BRANCH   7   8
HETATM    8  C6  UNL     1      12.293  -1.881  21.012  1.00  0.00     0.003 A 
HETATM    9  C7  UNL     1      11.983  -0.538  21.197  1.00  0.00     0.101 A 
HETATM   10  N1  UNL     1      12.975   0.360  21.365  1.00  0.00    -0.340 N 
HETATM   11  C8  UNL     1      14.272  -0.003  21.359  1.00  0.00     0.193 A 
ATOM     12  H1  UNL     1      12.736   1.342  21.501  1.00  0.00     0.167 HD
HETATM   13  N2  UNL     1      15.279   0.984  21.538  1.00  0.00    -0.063 NA
HETATM   14  N3  UNL     1      14.569  -1.306  21.178  1.00  0.00    -0.318 N 
HETATM   15  C9  UNL     1      13.621  -2.244  21.007  1.00  0.00     0.126 A 
ATOM     16  H3  UNL     1      15.549  -1.590  21.171  1.00  0.00     0.169 HD
HETATM   17  N4  UNL     1      14.068  -3.591  20.842  1.00  0.00    -0.082 NA
ENDBRANCH   7   8
ENDBRANCH   3   7
BRANCH   1  18
HETATM   18  O1  UNL     1       9.827  -1.159  16.436  1.00  0.00    -0.353 OA
HETATM   19  C1  UNL     1       8.516  -0.596  16.578  1.00  0.00     0.210 C 
ENDBRANCH   1  18
BRANCH   5  20
HETATM   20  O2  UNL     1      10.732  -5.833  16.889  1.00  0.00    -0.353 OA
HETATM   21  C12 UNL     1       9.718  -6.774  17.162  1.00  0.00     0.210 C 
ENDBRANCH   5  20
BRANCH   6  22
HETATM   22  O3  UNL     1       9.974  -3.688  15.332  1.00  0.00    -0.351 OA
HETATM   23  C14 UNL     1       8.661  -3.934  14.874  1.00  0.00     0.210 C 
ENDBRANCH   6  22
TORSDOF 5
ENDMDL
