MODEL 7
REMARK VINA RESULT: -6.900690134      3.395      5.629
REMARK  9 active torsions:
REMARK  status: ('A' for Active; 'I' for Inactive)
REMARK    1  A    between atoms: C2_2  and  C3_3 
REMARK       I    between atoms: C3_3  and  N1_5 
REMARK    2  A    between atoms: N1_5  and  C4_7 
REMARK    3  A    between atoms: C6_11  and  C7_12 
REMARK    4  A    between atoms: C7_12  and  C8_13 
REMARK    5  A    between atoms: C8_13  and  C9_14 
REMARK    6  A    between atoms: C16_22  and  C17_23 
REMARK    7  A    between atoms: C17_23  and  O2_24 
REMARK    8  A    between atoms: C18_26  and  O3_27 
REMARK    9  A    between atoms: C19_29  and  O4_30 
ROOT
HETATM    1  C4  UNL     1      31.517  41.338  19.142  1.00  0.00     0.183 C 
HETATM    2  C5  UNL     1      30.118  41.675  19.451  1.00  0.00     0.110 A 
HETATM    3  N2  UNL     1      29.060  41.746  18.632  1.00  0.00    -0.346 N 
ATOM      4  H2  UNL     1      29.082  41.564  17.629  1.00  0.00     0.167 HD
HETATM    5  C6  UNL     1      27.974  42.090  19.328  1.00  0.00     0.026 A 
HETATM    6  C15 UNL     1      28.371  42.238  20.623  1.00  0.00     0.118 A 
HETATM    7  N3  UNL     1      29.694  41.981  20.689  1.00  0.00    -0.334 N 
HETATM    8  C16 UNL     1      30.567  42.005  21.831  1.00  0.00     0.145 C 
HETATM    9  C18 UNL     1      31.695  41.043  21.632  1.00  0.00     0.174 C 
HETATM   10  C19 UNL     1      32.389  41.165  20.325  1.00  0.00     0.179 C 
ENDROOT
BRANCH   5  11
HETATM   11  C7  UNL     1      26.605  42.281  18.837  1.00  0.00     0.063 C 
BRANCH  11  12
HETATM   12  C8  UNL     1      26.256  41.380  17.682  1.00  0.00     0.044 C 
BRANCH  12  13
HETATM   13  C9  UNL     1      24.780  41.206  17.646  1.00  0.00    -0.058 A 
HETATM   14  C10 UNL     1      24.190  40.049  17.140  1.00  0.00     0.007 A 
HETATM   15  C11 UNL     1      22.826  39.887  17.107  1.00  0.00     0.001 A 
HETATM   16  C12 UNL     1      21.975  40.860  17.570  1.00  0.00     0.000 A 
HETATM   17  C13 UNL     1      22.543  42.017  18.076  1.00  0.00     0.001 A 
HETATM   18  C14 UNL     1      23.916  42.176  18.109  1.00  0.00     0.007 A 
ENDBRANCH  12  13
ENDBRANCH  11  12
ENDBRANCH   5  11
BRANCH   1  19
HETATM   19  N1  UNL     1      31.545  40.114  18.357  1.00  0.00    -0.347 N 
HETATM   20  C3  UNL     1      31.424  40.082  16.941  1.00  0.00     0.217 C 
HETATM   21  O1  UNL     1      31.284  41.172  16.332  1.00  0.00    -0.274 OA
ATOM     22  H1  UNL     1      31.659  39.228  18.850  1.00  0.00     0.163 HD
BRANCH  20  23
HETATM   23  C2  UNL     1      31.465  38.774  16.235  1.00  0.00     0.098 C 
HETATM   24  C1  UNL     1      30.127  38.381  15.693  1.00  0.00     0.014 C 
ENDBRANCH  20  23
ENDBRANCH   1  19
BRANCH   8  25
HETATM   25  C17 UNL     1      31.040  43.416  22.096  1.00  0.00     0.192 C 
BRANCH  25  26
HETATM   26  O2  UNL     1      30.873  43.697  23.452  1.00  0.00    -0.399 OA
ATOM     27  H2  UNL     1      29.991  44.024  23.589  1.00  0.00     0.209 HD
ENDBRANCH  25  26
ENDBRANCH   8  25
BRANCH  10  28
HETATM   28  O4  UNL     1      33.315  42.228  20.441  1.00  0.00    -0.390 OA
ATOM     29  H4  UNL     1      34.202  41.934  20.265  1.00  0.00     0.210 HD
ENDBRANCH  10  28
BRANCH   9  30
HETATM   30  O3  UNL     1      31.198  39.741  21.776  1.00  0.00    -0.391 OA
ATOM     31  H3  UNL     1      31.070  39.568  22.701  1.00  0.00     0.210 HD
ENDBRANCH   9  30
TORSDOF 9
ENDMDL
