MODEL 6
REMARK VINA RESULT: -7.375896709      1.380      4.419
REMARK  9 active torsions:
REMARK  status: ('A' for Active; 'I' for Inactive)
REMARK    1  A    between atoms: C2_2  and  C3_3 
REMARK       I    between atoms: C3_3  and  N1_5 
REMARK    2  A    between atoms: N1_5  and  C4_7 
REMARK    3  A    between atoms: C6_11  and  C7_12 
REMARK    4  A    between atoms: C7_12  and  C8_13 
REMARK    5  A    between atoms: C8_13  and  C9_14 
REMARK    6  A    between atoms: C16_22  and  C17_23 
REMARK    7  A    between atoms: C17_23  and  O2_24 
REMARK    8  A    between atoms: C18_26  and  O3_27 
REMARK    9  A    between atoms: C19_29  and  O4_30 
ROOT
HETATM    1  C4  UNL     1      29.939  41.707  21.257  1.00  0.00     0.183 C 
HETATM    2  C5  UNL     1      30.599  41.249  20.023  1.00  0.00     0.110 A 
HETATM    3  N2  UNL     1      30.058  40.726  18.915  1.00  0.00    -0.346 N 
ATOM      4  H2  UNL     1      29.062  40.566  18.767  1.00  0.00     0.167 HD
HETATM    5  C6  UNL     1      31.021  40.446  18.033  1.00  0.00     0.026 A 
HETATM    6  C15 UNL     1      32.199  40.807  18.615  1.00  0.00     0.118 A 
HETATM    7  N3  UNL     1      31.929  41.300  19.841  1.00  0.00    -0.334 N 
HETATM    8  C16 UNL     1      32.835  41.809  20.834  1.00  0.00     0.145 C 
HETATM    9  C18 UNL     1      32.146  42.835  21.677  1.00  0.00     0.174 C 
HETATM   10  C19 UNL     1      30.826  42.412  22.209  1.00  0.00     0.179 C 
ENDROOT
BRANCH   5  11
HETATM   11  C7  UNL     1      30.883  39.864  16.694  1.00  0.00     0.063 C 
BRANCH  11  12
HETATM   12  C8  UNL     1      31.268  38.409  16.634  1.00  0.00     0.044 C 
BRANCH  12  13
HETATM   13  C9  UNL     1      30.502  37.761  15.539  1.00  0.00    -0.058 A 
HETATM   14  C10 UNL     1      29.407  38.383  14.940  1.00  0.00     0.007 A 
HETATM   15  C11 UNL     1      28.698  37.784  13.927  1.00  0.00     0.001 A 
HETATM   16  C12 UNL     1      29.034  36.540  13.453  1.00  0.00     0.000 A 
HETATM   17  C13 UNL     1      30.118  35.906  14.036  1.00  0.00     0.001 A 
HETATM   18  C14 UNL     1      30.829  36.511  15.055  1.00  0.00     0.007 A 
ENDBRANCH  12  13
ENDBRANCH  11  12
ENDBRANCH   5  11
BRANCH   1  19
HETATM   19  N1  UNL     1      28.836  42.587  20.905  1.00  0.00    -0.347 N 
HETATM   20  C3  UNL     1      27.631  42.137  20.301  1.00  0.00     0.217 C 
HETATM   21  O1  UNL     1      27.509  40.910  20.058  1.00  0.00    -0.274 OA
ATOM     22  H1  UNL     1      28.933  43.583  21.102  1.00  0.00     0.163 HD
BRANCH  20  23
HETATM   23  C2  UNL     1      26.564  43.123  19.981  1.00  0.00     0.098 C 
HETATM   24  C1  UNL     1      26.721  43.701  18.610  1.00  0.00     0.014 C 
ENDBRANCH  20  23
ENDBRANCH   1  19
BRANCH   8  25
HETATM   25  C17 UNL     1      33.411  40.673  21.647  1.00  0.00     0.192 C 
BRANCH  25  26
HETATM   26  O2  UNL     1      33.933  41.190  22.832  1.00  0.00    -0.399 OA
ATOM     27  H2  UNL     1      34.770  40.774  23.003  1.00  0.00     0.209 HD
ENDBRANCH  25  26
ENDBRANCH   8  25
BRANCH  10  28
HETATM   28  O4  UNL     1      31.071  41.629  23.361  1.00  0.00    -0.390 OA
ATOM     29  H4  UNL     1      30.742  42.055  24.145  1.00  0.00     0.210 HD
ENDBRANCH  10  28
BRANCH   9  30
HETATM   30  O3  UNL     1      31.990  44.002  20.917  1.00  0.00    -0.391 OA
ATOM     31  H3  UNL     1      31.593  44.667  21.467  1.00  0.00     0.210 HD
ENDBRANCH   9  30
TORSDOF 9
ENDMDL
