MODEL 5
REMARK VINA RESULT: -7.604348721      3.027      6.556
REMARK  9 active torsions:
REMARK  status: ('A' for Active; 'I' for Inactive)
REMARK    1  A    between atoms: C2_2  and  C3_3 
REMARK       I    between atoms: C3_3  and  N1_5 
REMARK    2  A    between atoms: N1_5  and  C4_7 
REMARK    3  A    between atoms: C6_11  and  C7_12 
REMARK    4  A    between atoms: C7_12  and  C8_13 
REMARK    5  A    between atoms: C8_13  and  C9_14 
REMARK    6  A    between atoms: C16_22  and  C17_23 
REMARK    7  A    between atoms: C17_23  and  O2_24 
REMARK    8  A    between atoms: C18_26  and  O3_27 
REMARK    9  A    between atoms: C19_29  and  O4_30 
ROOT
HETATM    1  C4  UNL     1      31.546  41.289  19.288  1.00  0.00     0.183 C 
HETATM    2  C5  UNL     1      30.152  41.721  19.478  1.00  0.00     0.110 A 
HETATM    3  N2  UNL     1      29.181  41.880  18.570  1.00  0.00    -0.346 N 
ATOM      4  H2  UNL     1      29.281  41.715  17.568  1.00  0.00     0.167 HD
HETATM    5  C6  UNL     1      28.062  42.289  19.173  1.00  0.00     0.026 A 
HETATM    6  C15 UNL     1      28.349  42.386  20.502  1.00  0.00     0.118 A 
HETATM    7  N3  UNL     1      29.639  42.034  20.680  1.00  0.00    -0.334 N 
HETATM    8  C16 UNL     1      30.404  41.977  21.896  1.00  0.00     0.145 C 
HETATM    9  C18 UNL     1      31.477  40.941  21.777  1.00  0.00     0.174 C 
HETATM   10  C19 UNL     1      32.293  41.035  20.540  1.00  0.00     0.179 C 
ENDROOT
BRANCH   5  11
HETATM   11  C7  UNL     1      26.761  42.585  18.566  1.00  0.00     0.063 C 
BRANCH  11  12
HETATM   12  C8  UNL     1      25.851  43.378  19.467  1.00  0.00     0.044 C 
BRANCH  12  13
HETATM   13  C9  UNL     1      25.770  44.770  18.953  1.00  0.00    -0.058 A 
HETATM   14  C10 UNL     1      26.631  45.238  17.961  1.00  0.00     0.007 A 
HETATM   15  C11 UNL     1      26.556  46.525  17.485  1.00  0.00     0.001 A 
HETATM   16  C12 UNL     1      25.629  47.416  17.965  1.00  0.00     0.000 A 
HETATM   17  C13 UNL     1      24.765  46.970  18.951  1.00  0.00     0.001 A 
HETATM   18  C14 UNL     1      24.842  45.675  19.427  1.00  0.00     0.007 A 
ENDBRANCH  12  13
ENDBRANCH  11  12
ENDBRANCH   5  11
BRANCH   1  19
HETATM   19  N1  UNL     1      31.561  40.080  18.480  1.00  0.00    -0.347 N 
HETATM   20  C3  UNL     1      31.447  40.077  17.064  1.00  0.00     0.217 C 
HETATM   21  O1  UNL     1      31.327  41.180  16.474  1.00  0.00    -0.274 OA
ATOM     22  H1  UNL     1      31.659  39.184  18.957  1.00  0.00     0.163 HD
BRANCH  20  23
HETATM   23  C2  UNL     1      31.473  38.781  16.334  1.00  0.00     0.098 C 
HETATM   24  C1  UNL     1      30.148  38.448  15.725  1.00  0.00     0.014 C 
ENDBRANCH  20  23
ENDBRANCH   1  19
BRANCH   8  25
HETATM   25  C17 UNL     1      30.948  43.346  22.235  1.00  0.00     0.192 C 
BRANCH  25  26
HETATM   26  O2  UNL     1      30.904  43.515  23.619  1.00  0.00    -0.399 OA
ATOM     27  H2  UNL     1      31.589  44.122  23.874  1.00  0.00     0.209 HD
ENDBRANCH  25  26
ENDBRANCH   8  25
BRANCH  10  28
HETATM   28  O4  UNL     1      33.276  42.027  20.764  1.00  0.00    -0.390 OA
ATOM     29  H4  UNL     1      33.028  42.605  21.476  1.00  0.00     0.210 HD
ENDBRANCH  10  28
BRANCH   9  30
HETATM   30  O3  UNL     1      30.879  39.674  21.844  1.00  0.00    -0.391 OA
ATOM     31  H3  UNL     1      30.071  39.749  22.338  1.00  0.00     0.210 HD
ENDBRANCH   9  30
TORSDOF 9
ENDMDL
