MODEL 2
REMARK VINA RESULT: -7.829753508      1.688      2.541
REMARK  11 active torsions:
REMARK  status: ('A' for Active; 'I' for Inactive)
REMARK    1  A    between atoms: C2_2  and  C3_3 
REMARK    2  A    between atoms: C3_3  and  C4_4 
REMARK    3  A    between atoms: C4_4  and  C5_5 
REMARK    4  A    between atoms: C5_5  and  C6_6 
REMARK    5  A    between atoms: C6_6  and  C7_7 
REMARK    6  A    between atoms: C7_7  and  C8_8 
REMARK    7  A    between atoms: C8_8  and  N1_9 
REMARK    8  A    between atoms: C12_15  and  O2_16 
REMARK    9  A    between atoms: C13_18  and  O3_19 
REMARK   10  A    between atoms: C14_21  and  O4_22 
REMARK   11  A    between atoms: C15_24  and  O5_25 
ROOT
HETATM    1  N1  UNL     1       4.170   4.500   6.425  1.00  0.00    -0.356 N 
ATOM      2  H1  UNL     1       3.719   3.635   6.727  1.00  0.00     0.163 HD
HETATM    3  C9  UNL     1       5.272   4.472   5.740  1.00  0.00     0.220 C 
HETATM    4  O1  UNL     1       5.929   5.613   5.306  1.00  0.00    -0.320 OA
HETATM    5  C10 UNL     1       7.233   5.262   4.953  1.00  0.00     0.207 C 
HETATM    6  C11 UNL     1       7.171   3.802   4.617  1.00  0.00     0.146 C 
HETATM    7  C12 UNL     1       6.912   3.532   3.144  1.00  0.00     0.174 C 
HETATM    8  C13 UNL     1       6.176   2.236   3.016  1.00  0.00     0.182 C 
HETATM    9  C14 UNL     1       6.369   1.290   4.167  1.00  0.00     0.198 C 
HETATM   10  C15 UNL     1       5.809   1.915   5.433  1.00  0.00     0.255 C 
HETATM   11  N2  UNL     1       6.003   3.331   5.314  1.00  0.00    -0.309 N 
ENDROOT
BRANCH   1  12
HETATM   12  C8  UNL     1       3.598   5.785   6.749  1.00  0.00     0.123 C 
BRANCH  12  13
HETATM   13  C7  UNL     1       3.684   5.933   8.264  1.00  0.00     0.020 C 
BRANCH  13  14
HETATM   14  C6  UNL     1       2.359   5.697   8.917  1.00  0.00     0.002 C 
BRANCH  14  15
HETATM   15  C5  UNL     1       2.209   6.321  10.266  1.00  0.00     0.000 C 
BRANCH  15  16
HETATM   16  C4  UNL     1       0.958   7.171  10.270  1.00  0.00     0.000 C 
BRANCH  16  17
HETATM   17  C3  UNL     1       0.291   7.157  11.630  1.00  0.00    -0.000 C 
BRANCH  17  18
HETATM   18  C2  UNL     1       1.074   6.164  12.490  1.00  0.00    -0.005 C 
HETATM   19  C1  UNL     1       1.476   6.764  13.807  1.00  0.00     0.005 C 
ENDBRANCH  17  18
ENDBRANCH  16  17
ENDBRANCH  15  16
ENDBRANCH  14  15
ENDBRANCH  13  14
ENDBRANCH  12  13
ENDBRANCH   1  12
BRANCH  10  20
HETATM   20  O5  UNL     1       4.441   1.614   5.457  1.00  0.00    -0.374 OA
ATOM     21  H5  UNL     1       4.274   1.178   6.285  1.00  0.00     0.212 HD
ENDBRANCH  10  20
BRANCH   7  22
HETATM   22  O2  UNL     1       8.068   3.596   2.388  1.00  0.00    -0.391 OA
ATOM     23  H2  UNL     1       8.735   2.994   2.697  1.00  0.00     0.210 HD
ENDBRANCH   7  22
BRANCH   9  24
HETATM   24  O4  UNL     1       7.696   0.899   4.318  1.00  0.00    -0.389 OA
ATOM     25  H4  UNL     1       7.885   0.077   3.880  1.00  0.00     0.210 HD
ENDBRANCH   9  24
BRANCH   8  26
HETATM   26  O3  UNL     1       4.792   2.412   2.852  1.00  0.00    -0.390 OA
ATOM     27  H3  UNL     1       4.345   2.589   3.671  1.00  0.00     0.210 HD
ENDBRANCH   8  26
TORSDOF 11
ENDMDL
