MODEL 1
REMARK VINA RESULT: -7.845833622      0.000      0.000
REMARK  11 active torsions:
REMARK  status: ('A' for Active; 'I' for Inactive)
REMARK    1  A    between atoms: C2_2  and  C3_3 
REMARK    2  A    between atoms: C3_3  and  C4_4 
REMARK    3  A    between atoms: C4_4  and  C5_5 
REMARK    4  A    between atoms: C5_5  and  C6_6 
REMARK    5  A    between atoms: C6_6  and  C7_7 
REMARK    6  A    between atoms: C7_7  and  C8_8 
REMARK    7  A    between atoms: C8_8  and  N1_9 
REMARK    8  A    between atoms: C12_15  and  O2_16 
REMARK    9  A    between atoms: C13_18  and  O3_19 
REMARK   10  A    between atoms: C14_21  and  O4_22 
REMARK   11  A    between atoms: C15_24  and  O5_25 
ROOT
HETATM    1  N1  UNL     1       4.892   4.167   8.182  1.00  0.00    -0.356 N 
ATOM      2  H1  UNL     1       5.888   3.970   8.278  1.00  0.00     0.163 HD
HETATM    3  C9  UNL     1       4.347   4.288   7.010  1.00  0.00     0.220 C 
HETATM    4  O1  UNL     1       3.001   4.558   6.819  1.00  0.00    -0.320 OA
HETATM    5  C10 UNL     1       2.823   4.998   5.506  1.00  0.00     0.207 C 
HETATM    6  C11 UNL     1       3.977   4.424   4.739  1.00  0.00     0.146 C 
HETATM    7  C12 UNL     1       3.674   3.071   4.116  1.00  0.00     0.174 C 
HETATM    8  C13 UNL     1       4.944   2.287   4.031  1.00  0.00     0.182 C 
HETATM    9  C14 UNL     1       6.195   3.121   4.005  1.00  0.00     0.198 C 
HETATM   10  C15 UNL     1       6.315   3.889   5.310  1.00  0.00     0.255 C 
HETATM   11  N2  UNL     1       4.979   4.178   5.742  1.00  0.00    -0.309 N 
ENDROOT
BRANCH   1  12
HETATM   12  C8  UNL     1       4.051   4.320   9.346  1.00  0.00     0.123 C 
BRANCH  12  13
HETATM   13  C7  UNL     1       4.379   5.682   9.948  1.00  0.00     0.020 C 
BRANCH  13  14
HETATM   14  C6  UNL     1       3.239   6.640   9.794  1.00  0.00     0.002 C 
BRANCH  14  15
HETATM   15  C5  UNL     1       1.916   6.111  10.240  1.00  0.00     0.000 C 
BRANCH  15  16
HETATM   16  C4  UNL     1       0.953   7.269  10.378  1.00  0.00     0.000 C 
BRANCH  16  17
HETATM   17  C3  UNL     1       0.214   7.212  11.700  1.00  0.00    -0.000 C 
BRANCH  17  18
HETATM   18  C2  UNL     1       0.935   6.171  12.558  1.00  0.00    -0.005 C 
HETATM   19  C1  UNL     1       1.512   6.780  13.805  1.00  0.00     0.005 C 
ENDBRANCH  17  18
ENDBRANCH  16  17
ENDBRANCH  15  16
ENDBRANCH  14  15
ENDBRANCH  13  14
ENDBRANCH  12  13
ENDBRANCH   1  12
BRANCH  10  20
HETATM   20  O5  UNL     1       6.944   3.033   6.223  1.00  0.00    -0.374 OA
ATOM     21  H5  UNL     1       7.076   3.534   7.019  1.00  0.00     0.212 HD
ENDBRANCH  10  20
BRANCH   7  22
HETATM   22  O2  UNL     1       3.005   3.186   2.910  1.00  0.00    -0.391 OA
ATOM     23  H2  UNL     1       3.402   2.658   2.227  1.00  0.00     0.210 HD
ENDBRANCH   7  22
BRANCH   9  24
HETATM   24  O4  UNL     1       6.253   3.958   2.896  1.00  0.00    -0.389 OA
ATOM     25  H4  UNL     1       6.766   3.588   2.188  1.00  0.00     0.210 HD
ENDBRANCH   9  24
BRANCH   8  26
HETATM   26  O3  UNL     1       5.084   1.364   5.082  1.00  0.00    -0.390 OA
ATOM     27  H3  UNL     1       5.308   0.492   4.777  1.00  0.00     0.210 HD
ENDBRANCH   8  26
TORSDOF 11
ENDMDL
