MODEL 3
REMARK VINA RESULT: -7.828892437      1.552      2.659
REMARK  11 active torsions:
REMARK  status: ('A' for Active; 'I' for Inactive)
REMARK    1  A    between atoms: C2_2  and  C3_3 
REMARK    2  A    between atoms: C3_3  and  C4_4 
REMARK    3  A    between atoms: C4_4  and  C5_5 
REMARK    4  A    between atoms: C5_5  and  C6_6 
REMARK    5  A    between atoms: C6_6  and  C7_7 
REMARK    6  A    between atoms: C7_7  and  C8_8 
REMARK    7  A    between atoms: C8_8  and  N1_9 
REMARK    8  A    between atoms: C12_15  and  O2_16 
REMARK    9  A    between atoms: C13_18  and  O3_19 
REMARK   10  A    between atoms: C14_21  and  O4_22 
REMARK   11  A    between atoms: C15_24  and  O5_25 
ROOT
HETATM    1  N1  UNL     1       2.926   5.384   8.258  1.00  0.00    -0.356 N 
ATOM      2  H1  UNL     1       2.740   6.252   7.754  1.00  0.00     0.163 HD
HETATM    3  C9  UNL     1       3.140   4.275   7.619  1.00  0.00     0.220 C 
HETATM    4  O1  UNL     1       3.395   3.068   8.250  1.00  0.00    -0.320 OA
HETATM    5  C10 UNL     1       3.197   2.039   7.328  1.00  0.00     0.207 C 
HETATM    6  C11 UNL     1       3.398   2.671   5.983  1.00  0.00     0.146 C 
HETATM    7  C12 UNL     1       4.830   2.577   5.481  1.00  0.00     0.174 C 
HETATM    8  C13 UNL     1       5.108   3.756   4.604  1.00  0.00     0.182 C 
HETATM    9  C14 UNL     1       3.888   4.376   3.981  1.00  0.00     0.198 C 
HETATM   10  C15 UNL     1       2.989   4.927   5.074  1.00  0.00     0.255 C 
HETATM   11  N2  UNL     1       3.154   4.071   6.213  1.00  0.00    -0.309 N 
ENDROOT
BRANCH   1  12
HETATM   12  C8  UNL     1       2.959   5.360   9.701  1.00  0.00     0.123 C 
BRANCH  12  13
HETATM   13  C7  UNL     1       2.510   6.738  10.173  1.00  0.00     0.020 C 
BRANCH  13  14
HETATM   14  C6  UNL     1       1.018   6.847  10.216  1.00  0.00     0.002 C 
BRANCH  14  15
HETATM   15  C5  UNL     1       0.459   7.232  11.545  1.00  0.00     0.000 C 
BRANCH  15  16
HETATM   16  C4  UNL     1       0.740   6.118  12.530  1.00  0.00     0.000 C 
BRANCH  16  17
HETATM   17  C3  UNL     1       1.506   6.631  13.733  1.00  0.00    -0.000 C 
BRANCH  17  18
HETATM   18  C2  UNL     1       1.939   5.400  14.531  1.00  0.00    -0.005 C 
HETATM   19  C1  UNL     1       2.940   4.572  13.777  1.00  0.00     0.005 C 
ENDBRANCH  17  18
ENDBRANCH  16  17
ENDBRANCH  15  16
ENDBRANCH  14  15
ENDBRANCH  13  14
ENDBRANCH  12  13
ENDBRANCH   1  12
BRANCH  10  20
HETATM   20  O5  UNL     1       3.455   6.215   5.366  1.00  0.00    -0.374 OA
ATOM     21  H5  UNL     1       3.409   6.710   4.556  1.00  0.00     0.212 HD
ENDBRANCH  10  20
BRANCH   7  22
HETATM   22  O2  UNL     1       5.097   1.359   4.882  1.00  0.00    -0.391 OA
ATOM     23  H2  UNL     1       5.994   1.078   5.021  1.00  0.00     0.210 HD
ENDBRANCH   7  22
BRANCH   9  24
HETATM   24  O4  UNL     1       3.214   3.496   3.141  1.00  0.00    -0.389 OA
ATOM     25  H4  UNL     1       3.238   2.600   3.457  1.00  0.00     0.210 HD
ENDBRANCH   9  24
BRANCH   8  26
HETATM   26  O3  UNL     1       5.797   4.781   5.274  1.00  0.00    -0.390 OA
ATOM     27  H3  UNL     1       6.715   4.824   5.034  1.00  0.00     0.210 HD
ENDBRANCH   8  26
TORSDOF 11
ENDMDL
