MODEL 3
REMARK VINA RESULT: -7.892063474      4.526      7.816
REMARK  11 active torsions:
REMARK  status: ('A' for Active; 'I' for Inactive)
REMARK    1  A    between atoms: C2_2  and  C3_3 
REMARK    2  A    between atoms: C3_3  and  C4_4 
REMARK    3  A    between atoms: C4_4  and  C5_5 
REMARK    4  A    between atoms: C5_5  and  C6_6 
REMARK    5  A    between atoms: C6_6  and  C7_7 
REMARK    6  A    between atoms: C7_7  and  C8_8 
REMARK    7  A    between atoms: C8_8  and  N1_9 
REMARK    8  A    between atoms: C12_15  and  O2_16 
REMARK    9  A    between atoms: C13_18  and  O3_19 
REMARK   10  A    between atoms: C14_21  and  O4_22 
REMARK   11  A    between atoms: C15_24  and  O5_25 
ROOT
HETATM    1  N1  UNL     1      -0.901   4.692  17.377  1.00  0.00    -0.356 N 
ATOM      2  H1  UNL     1      -1.212   3.993  18.051  1.00  0.00     0.163 HD
HETATM    3  C9  UNL     1      -0.574   5.826  17.862  1.00  0.00     0.220 C 
HETATM    4  O1  UNL     1      -0.603   6.197  19.219  1.00  0.00    -0.320 OA
HETATM    5  C10 UNL     1      -0.443   7.580  19.311  1.00  0.00     0.207 C 
HETATM    6  C11 UNL     1       0.227   7.975  18.011  1.00  0.00     0.146 C 
HETATM    7  C12 UNL     1      -0.382   9.239  17.464  1.00  0.00     0.174 C 
HETATM    8  C13 UNL     1       0.387   9.553  16.187  1.00  0.00     0.182 C 
HETATM    9  C14 UNL     1       0.991   8.335  15.578  1.00  0.00     0.198 C 
HETATM   10  C15 UNL     1       0.036   7.116  15.672  1.00  0.00     0.255 C 
HETATM   11  N2  UNL     1      -0.127   6.895  17.074  1.00  0.00    -0.309 N 
ENDROOT
BRANCH   1  12
HETATM   12  C8  UNL     1      -0.886   4.284  16.028  1.00  0.00     0.123 C 
BRANCH  12  13
HETATM   13  C7  UNL     1       0.243   3.294  15.719  1.00  0.00     0.020 C 
BRANCH  13  14
HETATM   14  C6  UNL     1       1.029   3.739  14.531  1.00  0.00     0.002 C 
BRANCH  14  15
HETATM   15  C5  UNL     1       0.236   4.107  13.329  1.00  0.00     0.000 C 
BRANCH  15  16
HETATM   16  C4  UNL     1      -0.024   2.934  12.406  1.00  0.00     0.000 C 
BRANCH  16  17
HETATM   17  C3  UNL     1       0.262   3.334  10.971  1.00  0.00    -0.000 C 
BRANCH  17  18
HETATM   18  C2  UNL     1       0.895   2.228  10.180  1.00  0.00    -0.005 C 
HETATM   19  C1  UNL     1       1.743   1.417  11.151  1.00  0.00     0.005 C 
ENDBRANCH  17  18
ENDBRANCH  16  17
ENDBRANCH  15  16
ENDBRANCH  14  15
ENDBRANCH  13  14
ENDBRANCH  12  13
ENDBRANCH   1  12
BRANCH  10  20
HETATM   20  O5  UNL     1      -1.134   7.631  15.064  1.00  0.00    -0.374 OA
ATOM     21  H5  UNL     1      -1.331   6.951  14.432  1.00  0.00     0.212 HD
ENDBRANCH  10  20
BRANCH   7  22
HETATM   22  O2  UNL     1      -1.730   9.062  17.200  1.00  0.00    -0.391 OA
ATOM     23  H2  UNL     1      -1.879   8.243  16.742  1.00  0.00     0.210 HD
ENDBRANCH   7  22
BRANCH   9  24
HETATM   24  O4  UNL     1       2.260   8.024  15.990  1.00  0.00    -0.389 OA
ATOM     25  H4  UNL     1       2.423   7.108  16.180  1.00  0.00     0.210 HD
ENDBRANCH   9  24
BRANCH   8  26
HETATM   26  O3  UNL     1      -0.398  10.288  15.306  1.00  0.00    -0.390 OA
ATOM     27  H3  UNL     1      -0.498   9.829  14.480  1.00  0.00     0.210 HD
ENDBRANCH   8  26
TORSDOF 11
ENDMDL
