MODEL 6
REMARK VINA RESULT: -7.814382930      4.910      8.192
REMARK  11 active torsions:
REMARK  status: ('A' for Active; 'I' for Inactive)
REMARK    1  A    between atoms: C2_2  and  C3_3 
REMARK    2  A    between atoms: C3_3  and  C4_4 
REMARK    3  A    between atoms: C4_4  and  C5_5 
REMARK    4  A    between atoms: C5_5  and  C6_6 
REMARK    5  A    between atoms: C6_6  and  C7_7 
REMARK    6  A    between atoms: C7_7  and  C8_8 
REMARK    7  A    between atoms: C8_8  and  N1_9 
REMARK    8  A    between atoms: C12_15  and  O2_16 
REMARK    9  A    between atoms: C13_18  and  O3_19 
REMARK   10  A    between atoms: C14_21  and  O4_22 
REMARK   11  A    between atoms: C15_24  and  O5_25 
ROOT
HETATM    1  N1  UNL     1      -0.567   6.189  15.138  1.00  0.00    -0.356 N 
ATOM      2  H1  UNL     1      -0.272   6.282  14.166  1.00  0.00     0.163 HD
HETATM    3  C9  UNL     1      -0.535   7.257  15.834  1.00  0.00     0.220 C 
HETATM    4  O1  UNL     1      -0.137   8.533  15.394  1.00  0.00    -0.320 OA
HETATM    5  C10 UNL     1       0.022   9.363  16.504  1.00  0.00     0.207 C 
HETATM    6  C11 UNL     1      -0.813   8.716  17.589  1.00  0.00     0.146 C 
HETATM    7  C12 UNL     1      -0.084   8.743  18.906  1.00  0.00     0.174 C 
HETATM    8  C13 UNL     1      -1.026   8.101  19.916  1.00  0.00     0.182 C 
HETATM    9  C14 UNL     1      -1.990   7.164  19.274  1.00  0.00     0.198 C 
HETATM   10  C15 UNL     1      -1.316   6.333  18.151  1.00  0.00     0.255 C 
HETATM   11  N2  UNL     1      -0.905   7.302  17.185  1.00  0.00    -0.309 N 
ENDROOT
BRANCH   1  12
HETATM   12  C8  UNL     1      -0.957   4.896  15.543  1.00  0.00     0.123 C 
BRANCH  12  13
HETATM   13  C7  UNL     1      -0.762   3.845  14.443  1.00  0.00     0.020 C 
BRANCH  13  14
HETATM   14  C6  UNL     1       0.109   4.375  13.352  1.00  0.00     0.002 C 
BRANCH  14  15
HETATM   15  C5  UNL     1       0.779   3.354  12.504  1.00  0.00     0.000 C 
BRANCH  15  16
HETATM   16  C4  UNL     1       0.234   3.304  11.092  1.00  0.00     0.000 C 
BRANCH  16  17
HETATM   17  C3  UNL     1       0.887   2.167  10.328  1.00  0.00    -0.000 C 
BRANCH  17  18
HETATM   18  C2  UNL     1       1.969   1.491  11.115  1.00  0.00    -0.005 C 
HETATM   19  C1  UNL     1       1.541   0.042  11.306  1.00  0.00     0.005 C 
ENDBRANCH  17  18
ENDBRANCH  16  17
ENDBRANCH  15  16
ENDBRANCH  14  15
ENDBRANCH  13  14
ENDBRANCH  12  13
ENDBRANCH   1  12
BRANCH  10  20
HETATM   20  O5  UNL     1      -0.222   5.762  18.845  1.00  0.00    -0.374 OA
ATOM     21  H5  UNL     1      -0.491   4.852  18.900  1.00  0.00     0.212 HD
ENDBRANCH  10  20
BRANCH   7  22
HETATM   22  O2  UNL     1       1.107   8.041  18.823  1.00  0.00    -0.391 OA
ATOM     23  H2  UNL     1       1.577   8.076  19.648  1.00  0.00     0.210 HD
ENDBRANCH   7  22
BRANCH   9  24
HETATM   24  O4  UNL     1      -3.176   7.712  18.864  1.00  0.00    -0.389 OA
ATOM     25  H4  UNL     1      -3.269   7.851  17.929  1.00  0.00     0.210 HD
ENDBRANCH   9  24
BRANCH   8  26
HETATM   26  O3  UNL     1      -0.312   7.536  20.967  1.00  0.00    -0.390 OA
ATOM     27  H3  UNL     1      -0.521   7.967  21.787  1.00  0.00     0.210 HD
ENDBRANCH   8  26
TORSDOF 11
ENDMDL
