MODEL 4
REMARK VINA RESULT: -7.857133812      4.129      7.819
REMARK  11 active torsions:
REMARK  status: ('A' for Active; 'I' for Inactive)
REMARK    1  A    between atoms: C2_2  and  C3_3 
REMARK    2  A    between atoms: C3_3  and  C4_4 
REMARK    3  A    between atoms: C4_4  and  C5_5 
REMARK    4  A    between atoms: C5_5  and  C6_6 
REMARK    5  A    between atoms: C6_6  and  C7_7 
REMARK    6  A    between atoms: C7_7  and  C8_8 
REMARK    7  A    between atoms: C8_8  and  N1_9 
REMARK    8  A    between atoms: C12_15  and  O2_16 
REMARK    9  A    between atoms: C13_18  and  O3_19 
REMARK   10  A    between atoms: C14_21  and  O4_22 
REMARK   11  A    between atoms: C15_24  and  O5_25 
ROOT
HETATM    1  N1  UNL     1      -1.247   4.512  15.466  1.00  0.00    -0.356 N 
ATOM      2  H1  UNL     1      -1.733   3.663  15.754  1.00  0.00     0.163 HD
HETATM    3  C9  UNL     1      -1.119   5.411  16.362  1.00  0.00     0.220 C 
HETATM    4  O1  UNL     1      -1.580   5.343  17.690  1.00  0.00    -0.320 OA
HETATM    5  C10 UNL     1      -1.495   6.613  18.262  1.00  0.00     0.207 C 
HETATM    6  C11 UNL     1      -0.465   7.342  17.424  1.00  0.00     0.146 C 
HETATM    7  C12 UNL     1      -0.908   8.755  17.151  1.00  0.00     0.174 C 
HETATM    8  C13 UNL     1       0.211   9.392  16.338  1.00  0.00     0.182 C 
HETATM    9  C14 UNL     1       1.009   8.383  15.586  1.00  0.00     0.198 C 
HETATM   10  C15 UNL     1       0.106   7.270  14.992  1.00  0.00     0.255 C 
HETATM   11  N2  UNL     1      -0.479   6.637  16.131  1.00  0.00    -0.309 N 
ENDROOT
BRANCH   1  12
HETATM   12  C8  UNL     1      -0.801   4.544  14.129  1.00  0.00     0.123 C 
BRANCH  12  13
HETATM   13  C7  UNL     1      -0.243   3.197  13.657  1.00  0.00     0.020 C 
BRANCH  13  14
HETATM   14  C6  UNL     1       0.698   3.384  12.513  1.00  0.00     0.002 C 
BRANCH  14  15
HETATM   15  C5  UNL     1       0.104   3.252  11.156  1.00  0.00     0.000 C 
BRANCH  15  16
HETATM   16  C4  UNL     1       0.837   2.257  10.281  1.00  0.00     0.000 C 
BRANCH  16  17
HETATM   17  C3  UNL     1       1.933   1.577  11.080  1.00  0.00    -0.000 C 
BRANCH  17  18
HETATM   18  C2  UNL     1       1.648   0.125  11.328  1.00  0.00    -0.005 C 
HETATM   19  C1  UNL     1       2.805  -0.420  12.155  1.00  0.00     0.005 C 
ENDBRANCH  17  18
ENDBRANCH  16  17
ENDBRANCH  15  16
ENDBRANCH  14  15
ENDBRANCH  13  14
ENDBRANCH  12  13
ENDBRANCH   1  12
BRANCH  10  20
HETATM   20  O5  UNL     1      -0.830   8.034  14.256  1.00  0.00    -0.374 OA
ATOM     21  H5  UNL     1      -1.053   7.432  13.555  1.00  0.00     0.212 HD
ENDBRANCH  10  20
BRANCH   7  22
HETATM   22  O2  UNL     1      -2.102   8.769  16.448  1.00  0.00    -0.391 OA
ATOM     23  H2  UNL     1      -1.971   8.467  15.556  1.00  0.00     0.210 HD
ENDBRANCH   7  22
BRANCH   9  24
HETATM   24  O4  UNL     1       2.094   7.866  16.243  1.00  0.00    -0.389 OA
ATOM     25  H4  UNL     1       2.942   8.068  15.867  1.00  0.00     0.210 HD
ENDBRANCH   9  24
BRANCH   8  26
HETATM   26  O3  UNL     1      -0.281  10.421  15.543  1.00  0.00    -0.390 OA
ATOM     27  H3  UNL     1       0.412  11.027  15.308  1.00  0.00     0.210 HD
ENDBRANCH   8  26
TORSDOF 11
ENDMDL
