MODEL 2
REMARK VINA RESULT: -8.160133243      1.761      2.599
REMARK  11 active torsions:
REMARK  status: ('A' for Active; 'I' for Inactive)
REMARK    1  A    between atoms: C2_2  and  C3_3 
REMARK    2  A    between atoms: C3_3  and  C4_4 
REMARK    3  A    between atoms: C4_4  and  C5_5 
REMARK    4  A    between atoms: C5_5  and  C6_6 
REMARK    5  A    between atoms: C6_6  and  C7_7 
REMARK    6  A    between atoms: C7_7  and  C8_8 
REMARK    7  A    between atoms: C8_8  and  N1_9 
REMARK    8  A    between atoms: C12_15  and  O1_16 
REMARK    9  A    between atoms: C13_18  and  O2_19 
REMARK   10  A    between atoms: C14_21  and  O3_22 
REMARK   11  A    between atoms: C15_24  and  O4_25 
ROOT
HETATM    1  N1  UNL     1       2.775   5.747   7.502  1.00  0.00    -0.371 N 
ATOM      2  H1  UNL     1       2.479   6.381   6.761  1.00  0.00     0.161 HD
HETATM    3  C9  UNL     1       3.063   4.532   7.208  1.00  0.00     0.140 C 
HETATM    4  S1  UNL     1       3.593   3.314   8.401  1.00  0.00    -0.092 SA
HETATM    5  C10 UNL     1       3.409   1.873   7.276  1.00  0.00     0.110 C 
HETATM    6  C11 UNL     1       3.442   2.522   5.956  1.00  0.00     0.130 C 
HETATM    7  C12 UNL     1       4.786   2.457   5.264  1.00  0.00     0.173 C 
HETATM    8  C13 UNL     1       4.706   3.159   3.952  1.00  0.00     0.181 C 
HETATM    9  C14 UNL     1       3.356   3.651   3.550  1.00  0.00     0.198 C 
HETATM   10  C15 UNL     1       2.658   4.422   4.656  1.00  0.00     0.254 C 
HETATM   11  N2  UNL     1       3.042   3.875   5.966  1.00  0.00    -0.325 N 
ENDROOT
BRANCH   1  12
HETATM   12  C8  UNL     1       2.861   6.248   8.879  1.00  0.00     0.122 C 
BRANCH  12  13
HETATM   13  C7  UNL     1       1.464   6.275   9.464  1.00  0.00     0.023 C 
BRANCH  13  14
HETATM   14  C6  UNL     1       1.272   7.441  10.397  1.00  0.00     0.028 C 
BRANCH  14  15
HETATM   15  C5  UNL     1       0.359   7.207  11.527  1.00  0.00    -0.031 C 
BRANCH  15  16
HETATM   16  C4  UNL     1       0.659   6.243  12.583  1.00  0.00    -0.031 C 
BRANCH  16  17
HETATM   17  C3  UNL     1       1.498   6.563  13.750  1.00  0.00     0.026 C 
BRANCH  17  18
HETATM   18  C2  UNL     1       2.044   5.392  14.497  1.00  0.00    -0.001 C 
HETATM   19  C1  UNL     1       2.917   4.572  13.498  1.00  0.00     0.005 C 
ENDBRANCH  17  18
ENDBRANCH  16  17
ENDBRANCH  15  16
ENDBRANCH  14  15
ENDBRANCH  13  14
ENDBRANCH  12  13
ENDBRANCH   1  12
BRANCH  10  20
HETATM   20  O4  UNL     1       3.007   5.744   4.527  1.00  0.00    -0.374 OA
ATOM     21  H4  UNL     1       2.224   6.228   4.292  1.00  0.00     0.212 HD
ENDBRANCH  10  20
BRANCH   7  22
HETATM   22  O1  UNL     1       5.264   1.152   5.166  1.00  0.00    -0.391 OA
ATOM     23  H1  UNL     1       5.855   1.042   4.430  1.00  0.00     0.210 HD
ENDBRANCH   7  22
BRANCH   9  24
HETATM   24  O3  UNL     1       2.520   2.621   3.078  1.00  0.00    -0.389 OA
ATOM     25  H3  UNL     1       1.661   2.630   3.483  1.00  0.00     0.210 HD
ENDBRANCH   9  24
BRANCH   8  26
HETATM   26  O2  UNL     1       5.567   4.279   3.967  1.00  0.00    -0.390 OA
ATOM     27  H2  UNL     1       6.444   4.003   3.727  1.00  0.00     0.210 HD
ENDBRANCH   8  26
TORSDOF 11
ENDMDL
