MODEL 3
REMARK VINA RESULT: -8.005940016      1.714      3.031
REMARK  11 active torsions:
REMARK  status: ('A' for Active; 'I' for Inactive)
REMARK    1  A    between atoms: C2_2  and  C3_3 
REMARK    2  A    between atoms: C3_3  and  C4_4 
REMARK    3  A    between atoms: C4_4  and  C5_5 
REMARK    4  A    between atoms: C5_5  and  C6_6 
REMARK    5  A    between atoms: C6_6  and  C7_7 
REMARK    6  A    between atoms: C7_7  and  C8_8 
REMARK    7  A    between atoms: C8_8  and  N1_9 
REMARK    8  A    between atoms: C12_15  and  O1_16 
REMARK    9  A    between atoms: C13_18  and  O2_19 
REMARK   10  A    between atoms: C14_21  and  O3_22 
REMARK   11  A    between atoms: C15_24  and  O4_25 
ROOT
HETATM    1  N1  UNL     1       5.797   3.967   7.635  1.00  0.00    -0.371 N 
ATOM      2  H1  UNL     1       6.811   3.918   7.537  1.00  0.00     0.161 HD
HETATM    3  C9  UNL     1       5.072   4.071   6.583  1.00  0.00     0.140 C 
HETATM    4  S1  UNL     1       3.289   4.169   6.604  1.00  0.00    -0.092 SA
HETATM    5  C10 UNL     1       3.118   4.666   4.843  1.00  0.00     0.110 C 
HETATM    6  C11 UNL     1       4.405   4.221   4.283  1.00  0.00     0.130 C 
HETATM    7  C12 UNL     1       4.342   2.893   3.560  1.00  0.00     0.173 C 
HETATM    8  C13 UNL     1       5.698   2.537   3.055  1.00  0.00     0.181 C 
HETATM    9  C14 UNL     1       6.763   3.564   3.247  1.00  0.00     0.198 C 
HETATM   10  C15 UNL     1       6.804   4.110   4.662  1.00  0.00     0.254 C 
HETATM   11  N2  UNL     1       5.447   4.133   5.230  1.00  0.00    -0.325 N 
ENDROOT
BRANCH   1  12
HETATM   12  C8  UNL     1       5.206   3.918   8.977  1.00  0.00     0.122 C 
BRANCH  12  13
HETATM   13  C7  UNL     1       5.625   5.166   9.728  1.00  0.00     0.023 C 
BRANCH  13  14
HETATM   14  C6  UNL     1       4.491   5.738  10.537  1.00  0.00     0.028 C 
BRANCH  14  15
HETATM   15  C5  UNL     1       3.366   6.280   9.758  1.00  0.00    -0.031 C 
BRANCH  15  16
HETATM   16  C4  UNL     1       1.975   6.045  10.134  1.00  0.00    -0.031 C 
BRANCH  16  17
HETATM   17  C3  UNL     1       0.961   7.113  10.176  1.00  0.00     0.026 C 
BRANCH  17  18
HETATM   18  C2  UNL     1       0.113   7.155  11.404  1.00  0.00    -0.001 C 
HETATM   19  C1  UNL     1       0.890   6.402  12.528  1.00  0.00     0.005 C 
ENDBRANCH  17  18
ENDBRANCH  16  17
ENDBRANCH  15  16
ENDBRANCH  14  15
ENDBRANCH  13  14
ENDBRANCH  12  13
ENDBRANCH   1  12
BRANCH  10  20
HETATM   20  O4  UNL     1       7.655   3.317   5.392  1.00  0.00    -0.374 OA
ATOM     21  H4  UNL     1       7.481   2.413   5.157  1.00  0.00     0.212 HD
ENDBRANCH  10  20
BRANCH   7  22
HETATM   22  O1  UNL     1       3.361   2.880   2.571  1.00  0.00    -0.391 OA
ATOM     23  H1  UNL     1       3.379   2.079   2.061  1.00  0.00     0.210 HD
ENDBRANCH   7  22
BRANCH   9  24
HETATM   24  O3  UNL     1       6.671   4.621   2.322  1.00  0.00    -0.389 OA
ATOM     25  H3  UNL     1       7.140   4.445   1.515  1.00  0.00     0.210 HD
ENDBRANCH   9  24
BRANCH   8  26
HETATM   26  O2  UNL     1       6.140   1.357   3.695  1.00  0.00    -0.390 OA
ATOM     27  H2  UNL     1       6.555   0.790   3.056  1.00  0.00     0.210 HD
ENDBRANCH   8  26
TORSDOF 11
ENDMDL
