MODEL 1
REMARK VINA RESULT: -8.175729932      0.000      0.000
REMARK  11 active torsions:
REMARK  status: ('A' for Active; 'I' for Inactive)
REMARK    1  A    between atoms: C2_2  and  C3_3 
REMARK    2  A    between atoms: C3_3  and  C4_4 
REMARK    3  A    between atoms: C4_4  and  C5_5 
REMARK    4  A    between atoms: C5_5  and  C6_6 
REMARK    5  A    between atoms: C6_6  and  C7_7 
REMARK    6  A    between atoms: C7_7  and  C8_8 
REMARK    7  A    between atoms: C8_8  and  N1_9 
REMARK    8  A    between atoms: C12_15  and  O1_16 
REMARK    9  A    between atoms: C13_18  and  O2_19 
REMARK   10  A    between atoms: C14_21  and  O3_22 
REMARK   11  A    between atoms: C15_24  and  O4_25 
ROOT
HETATM    1  N1  UNL     1       3.599   3.686   8.038  1.00  0.00    -0.371 N 
ATOM      2  H1  UNL     1       2.921   3.045   7.625  1.00  0.00     0.161 HD
HETATM    3  C9  UNL     1       4.762   3.791   7.509  1.00  0.00     0.140 C 
HETATM    4  S1  UNL     1       6.046   4.869   8.124  1.00  0.00    -0.092 SA
HETATM    5  C10 UNL     1       7.391   4.144   7.104  1.00  0.00     0.110 C 
HETATM    6  C11 UNL     1       6.627   3.487   6.031  1.00  0.00     0.130 C 
HETATM    7  C12 UNL     1       6.546   4.285   4.747  1.00  0.00     0.173 C 
HETATM    8  C13 UNL     1       5.738   3.535   3.744  1.00  0.00     0.181 C 
HETATM    9  C14 UNL     1       5.297   2.168   4.144  1.00  0.00     0.198 C 
HETATM   10  C15 UNL     1       4.672   2.132   5.527  1.00  0.00     0.254 C 
HETATM   11  N2  UNL     1       5.308   3.139   6.390  1.00  0.00    -0.325 N 
ENDROOT
BRANCH   1  12
HETATM   12  C8  UNL     1       3.217   4.464   9.222  1.00  0.00     0.122 C 
BRANCH  12  13
HETATM   13  C7  UNL     1       2.337   5.613   8.773  1.00  0.00     0.023 C 
BRANCH  13  14
HETATM   14  C6  UNL     1       2.245   6.688   9.823  1.00  0.00     0.028 C 
BRANCH  14  15
HETATM   15  C5  UNL     1       0.881   7.120  10.172  1.00  0.00    -0.031 C 
BRANCH  15  16
HETATM   16  C4  UNL     1       0.402   7.143  11.551  1.00  0.00    -0.031 C 
BRANCH  16  17
HETATM   17  C3  UNL     1       0.747   6.108  12.541  1.00  0.00     0.026 C 
BRANCH  17  18
HETATM   18  C2  UNL     1       1.466   6.588  13.758  1.00  0.00    -0.001 C 
HETATM   19  C1  UNL     1       1.834   5.329  14.603  1.00  0.00     0.005 C 
ENDBRANCH  17  18
ENDBRANCH  16  17
ENDBRANCH  15  16
ENDBRANCH  14  15
ENDBRANCH  13  14
ENDBRANCH  12  13
ENDBRANCH   1  12
BRANCH  10  20
HETATM   20  O4  UNL     1       3.324   2.355   5.381  1.00  0.00    -0.374 OA
ATOM     21  H4  UNL     1       2.985   2.635   6.223  1.00  0.00     0.212 HD
ENDBRANCH  10  20
BRANCH   7  22
HETATM   22  O1  UNL     1       7.805   4.655   4.279  1.00  0.00    -0.391 OA
ATOM     23  H1  UNL     1       7.789   5.493   3.833  1.00  0.00     0.210 HD
ENDBRANCH   7  22
BRANCH   9  24
HETATM   24  O3  UNL     1       6.331   1.216   4.057  1.00  0.00    -0.389 OA
ATOM     25  H3  UNL     1       6.719   1.017   4.901  1.00  0.00     0.210 HD
ENDBRANCH   9  24
BRANCH   8  26
HETATM   26  O2  UNL     1       4.573   4.273   3.438  1.00  0.00    -0.390 OA
ATOM     27  H2  UNL     1       3.809   3.784   3.722  1.00  0.00     0.210 HD
ENDBRANCH   8  26
TORSDOF 11
ENDMDL
