MODEL 6
REMARK VINA RESULT: -7.815617761      2.004      3.335
REMARK  10 active torsions:
REMARK  status: ('A' for Active; 'I' for Inactive)
REMARK    1  A    between atoms: C2_2  and  C3_3 
REMARK    2  A    between atoms: C3_3  and  C4_4 
REMARK       I    between atoms: C4_4  and  N1_6 
REMARK    3  A    between atoms: N1_6  and  C5_8 
REMARK    4  A    between atoms: N2_10  and  O2_12 
REMARK    5  A    between atoms: O2_12  and  C7_13 
REMARK       I    between atoms: C7_13  and  N3_15 
REMARK    6  A    between atoms: N3_15  and  C8_17 
REMARK    7  A    between atoms: C14_24  and  C15_25 
REMARK    8  A    between atoms: C15_25  and  O5_26 
REMARK    9  A    between atoms: C16_28  and  O6_29 
REMARK   10  A    between atoms: C17_31  and  O7_32 
ROOT
HETATM    1  C5  UNL     1      -4.719 -11.408  11.133  1.00  0.00     0.192 C 
HETATM    2  C6  UNL     1      -5.740 -10.699  10.338  1.00  0.00     0.165 C 
HETATM    3  N2  UNL     1      -6.899 -10.357  10.772  1.00  0.00    -0.236 N 
ATOM      4  H2  UNL     1      -7.161 -10.578  11.733  1.00  0.00     0.197 HD
HETATM    5  O4  UNL     1      -5.421 -10.378   9.024  1.00  0.00    -0.326 OA
HETATM    6  C14 UNL     1      -4.097 -10.400   8.573  1.00  0.00     0.185 C 
HETATM    7  C16 UNL     1      -3.314 -11.574   9.057  1.00  0.00     0.180 C 
HETATM    8  C17 UNL     1      -3.961 -12.321  10.178  1.00  0.00     0.180 C 
ENDROOT
BRANCH   1   9
HETATM    9  N1  UNL     1      -3.829 -10.500  11.814  1.00  0.00    -0.346 N 
HETATM   10  C4  UNL     1      -3.208 -10.839  13.058  1.00  0.00     0.218 C 
HETATM   11  O1  UNL     1      -3.483 -11.970  13.520  1.00  0.00    -0.274 OA
ATOM     12  H1  UNL     1      -3.636  -9.589  11.395  1.00  0.00     0.163 HD
BRANCH  10  13
HETATM   13  C3  UNL     1      -2.300  -9.953  13.781  1.00  0.00     0.102 C 
BRANCH  13  14
HETATM   14  C2  UNL     1      -1.552 -10.761  14.827  1.00  0.00     0.005 C 
HETATM   15  C1  UNL     1      -0.308 -10.029  15.230  1.00  0.00     0.005 C 
ENDBRANCH  13  14
ENDBRANCH  10  13
ENDBRANCH   1   9
BRANCH   3  16
HETATM   16  O2  UNL     1      -7.790  -9.698   9.962  1.00  0.00    -0.179 OA
BRANCH  16  17
HETATM   17  C7  UNL     1      -8.598 -10.440   9.071  1.00  0.00     0.387 C 
HETATM   18  O3  UNL     1      -9.655 -10.880   9.567  1.00  0.00    -0.236 OA
HETATM   19  N3  UNL     1      -8.224 -10.653   7.737  1.00  0.00    -0.301 N 
ATOM     20  H3  UNL     1      -7.337 -10.253   7.432  1.00  0.00     0.171 HD
BRANCH  19  21
HETATM   21  C8  UNL     1      -8.966 -11.373   6.783  1.00  0.00     0.036 A 
HETATM   22  C9  UNL     1      -9.882 -10.791   5.952  1.00  0.00     0.029 A 
HETATM   23  C10 UNL     1     -10.594 -11.581   5.040  1.00  0.00     0.002 A 
HETATM   24  C11 UNL     1     -10.400 -12.937   4.950  1.00  0.00     0.000 A 
HETATM   25  C12 UNL     1      -9.473 -13.515   5.792  1.00  0.00     0.002 A 
HETATM   26  C13 UNL     1      -8.772 -12.760   6.685  1.00  0.00     0.029 A 
ENDBRANCH  19  21
ENDBRANCH  16  17
ENDBRANCH   3  16
BRANCH   8  27
HETATM   27  O7  UNL     1      -4.858 -13.269   9.720  1.00  0.00    -0.390 OA
ATOM     28  H7  UNL     1      -4.425 -13.755   9.028  1.00  0.00     0.210 HD
ENDBRANCH   8  27
BRANCH   6  29
HETATM   29  C15 UNL     1      -4.111 -10.352   7.041  1.00  0.00     0.199 C 
BRANCH  29  30
HETATM   30  O5  UNL     1      -5.231 -10.992   6.542  1.00  0.00    -0.398 OA
ATOM     31  H5  UNL     1      -5.497 -10.607   5.715  1.00  0.00     0.209 HD
ENDBRANCH  29  30
ENDBRANCH   6  29
BRANCH   7  32
HETATM   32  O6  UNL     1      -1.999 -11.234   9.398  1.00  0.00    -0.390 OA
ATOM     33  H6  UNL     1      -1.859 -11.225  10.338  1.00  0.00     0.210 HD
ENDBRANCH   7  32
TORSDOF 10
ENDMDL
