MODEL 12
REMARK VINA RESULT: -7.407576426      0.714      1.197
REMARK  10 active torsions:
REMARK  status: ('A' for Active; 'I' for Inactive)
REMARK    1  A    between atoms: C2_2  and  C3_3 
REMARK    2  A    between atoms: C3_3  and  C4_4 
REMARK       I    between atoms: C4_4  and  N1_6 
REMARK    3  A    between atoms: N1_6  and  C5_8 
REMARK    4  A    between atoms: N2_10  and  O2_12 
REMARK    5  A    between atoms: O2_12  and  C7_13 
REMARK       I    between atoms: C7_13  and  N3_15 
REMARK    6  A    between atoms: N3_15  and  C8_17 
REMARK    7  A    between atoms: C14_24  and  C15_25 
REMARK    8  A    between atoms: C15_25  and  O5_26 
REMARK    9  A    between atoms: C16_28  and  O6_29 
REMARK   10  A    between atoms: C17_31  and  O7_32 
ROOT
HETATM    1  C5  UNL     1      -4.362 -11.509   9.651  1.00  0.00     0.192 C 
HETATM    2  C6  UNL     1      -5.507 -12.433   9.537  1.00  0.00     0.165 C 
HETATM    3  N2  UNL     1      -5.432 -13.640   9.108  1.00  0.00    -0.236 N 
ATOM      4  H2  UNL     1      -4.530 -14.016   8.818  1.00  0.00     0.197 HD
HETATM    5  O4  UNL     1      -6.755 -11.959   9.923  1.00  0.00    -0.326 OA
HETATM    6  C14 UNL     1      -6.882 -10.806  10.705  1.00  0.00     0.185 C 
HETATM    7  C16 UNL     1      -5.977  -9.694  10.294  1.00  0.00     0.180 C 
HETATM    8  C17 UNL     1      -4.885 -10.108   9.360  1.00  0.00     0.180 C 
ENDROOT
BRANCH   1   9
HETATM    9  N1  UNL     1      -3.732 -11.578  10.947  1.00  0.00    -0.346 N 
HETATM   10  C4  UNL     1      -2.764 -12.584  11.265  1.00  0.00     0.218 C 
HETATM   11  O1  UNL     1      -2.496 -13.399  10.353  1.00  0.00    -0.274 OA
ATOM     12  H1  UNL     1      -3.984 -10.890  11.658  1.00  0.00     0.163 HD
BRANCH  10  13
HETATM   13  C3  UNL     1      -2.101 -12.692  12.561  1.00  0.00     0.102 C 
BRANCH  13  14
HETATM   14  C2  UNL     1      -2.569 -13.961  13.251  1.00  0.00     0.005 C 
HETATM   15  C1  UNL     1      -2.482 -13.785  14.737  1.00  0.00     0.005 C 
ENDBRANCH  13  14
ENDBRANCH  10  13
ENDBRANCH   1   9
BRANCH   3  16
HETATM   16  O2  UNL     1      -6.551 -14.433   9.033  1.00  0.00    -0.179 OA
BRANCH  16  17
HETATM   17  C7  UNL     1      -7.687 -13.967   8.333  1.00  0.00     0.387 C 
HETATM   18  O3  UNL     1      -8.779 -14.366   8.782  1.00  0.00    -0.236 OA
HETATM   19  N3  UNL     1      -7.572 -13.120   7.220  1.00  0.00    -0.301 N 
ATOM     20  H3  UNL     1      -6.631 -12.855   6.931  1.00  0.00     0.171 HD
BRANCH  19  21
HETATM   21  C8  UNL     1      -8.644 -12.605   6.469  1.00  0.00     0.036 A 
HETATM   22  C9  UNL     1      -8.981 -11.281   6.453  1.00  0.00     0.029 A 
HETATM   23  C10 UNL     1     -10.075 -10.851   5.692  1.00  0.00     0.002 A 
HETATM   24  C11 UNL     1     -10.831 -11.725   4.950  1.00  0.00     0.000 A 
HETATM   25  C12 UNL     1     -10.483 -13.059   4.972  1.00  0.00     0.002 A 
HETATM   26  C13 UNL     1      -9.421 -13.494   5.709  1.00  0.00     0.029 A 
ENDBRANCH  19  21
ENDBRANCH  16  17
ENDBRANCH   3  16
BRANCH   8  27
HETATM   27  O7  UNL     1      -5.296 -10.092   8.040  1.00  0.00    -0.390 OA
ATOM     28  H7  UNL     1      -5.094 -10.944   7.672  1.00  0.00     0.210 HD
ENDBRANCH   8  27
BRANCH   6  29
HETATM   29  C15 UNL     1      -8.347 -10.357  10.661  1.00  0.00     0.199 C 
BRANCH  29  30
HETATM   30  O5  UNL     1      -8.443  -8.986  10.820  1.00  0.00    -0.398 OA
ATOM     31  H5  UNL     1      -7.757  -8.543  10.334  1.00  0.00     0.209 HD
ENDBRANCH  29  30
ENDBRANCH   6  29
BRANCH   7  32
HETATM   32  O6  UNL     1      -5.441  -9.009  11.390  1.00  0.00    -0.390 OA
ATOM     33  H6  UNL     1      -5.591  -8.072  11.340  1.00  0.00     0.210 HD
ENDBRANCH   7  32
TORSDOF 10
ENDMDL
