MODEL 1
REMARK VINA RESULT: -8.200100529      0.000      0.000
REMARK  10 active torsions:
REMARK  status: ('A' for Active; 'I' for Inactive)
REMARK    1  A    between atoms: C2_2  and  C3_3 
REMARK    2  A    between atoms: C3_3  and  C4_4 
REMARK       I    between atoms: C4_4  and  N1_6 
REMARK    3  A    between atoms: N1_6  and  C5_8 
REMARK    4  A    between atoms: N2_10  and  O2_12 
REMARK    5  A    between atoms: O2_12  and  C7_13 
REMARK       I    between atoms: C7_13  and  N3_15 
REMARK    6  A    between atoms: N3_15  and  C8_17 
REMARK    7  A    between atoms: C14_24  and  C15_25 
REMARK    8  A    between atoms: C15_25  and  O5_26 
REMARK    9  A    between atoms: C16_28  and  O6_29 
REMARK   10  A    between atoms: C17_31  and  O7_32 
ROOT
HETATM    1  C5  UNL     1      -4.215 -11.471   9.953  1.00  0.00     0.192 C 
HETATM    2  C6  UNL     1      -5.387 -12.295   9.597  1.00  0.00     0.165 C 
HETATM    3  N2  UNL     1      -5.330 -13.516   9.205  1.00  0.00    -0.236 N 
ATOM      4  H2  UNL     1      -4.424 -13.976   9.123  1.00  0.00     0.197 HD
HETATM    5  O4  UNL     1      -6.641 -11.704   9.696  1.00  0.00    -0.326 OA
HETATM    6  C14 UNL     1      -6.831 -10.523  10.421  1.00  0.00     0.185 C 
HETATM    7  C16 UNL     1      -5.761  -9.506  10.210  1.00  0.00     0.180 C 
HETATM    8  C17 UNL     1      -4.533 -10.039   9.543  1.00  0.00     0.180 C 
ENDROOT
BRANCH   1   9
HETATM    9  N1  UNL     1      -3.892 -11.558  11.356  1.00  0.00    -0.346 N 
HETATM   10  C4  UNL     1      -3.041 -12.585  11.873  1.00  0.00     0.218 C 
HETATM   11  O1  UNL     1      -2.593 -13.403  11.037  1.00  0.00    -0.274 OA
ATOM     12  H1  UNL     1      -4.282 -10.867  11.998  1.00  0.00     0.163 HD
BRANCH  10  13
HETATM   13  C3  UNL     1      -2.686 -12.712  13.284  1.00  0.00     0.102 C 
BRANCH  13  14
HETATM   14  C2  UNL     1      -2.619 -14.185  13.646  1.00  0.00     0.005 C 
HETATM   15  C1  UNL     1      -2.268 -14.331  15.095  1.00  0.00     0.005 C 
ENDBRANCH  13  14
ENDBRANCH  10  13
ENDBRANCH   1   9
BRANCH   3  16
HETATM   16  O2  UNL     1      -6.473 -14.210   8.892  1.00  0.00    -0.179 OA
BRANCH  16  17
HETATM   17  C7  UNL     1      -7.243 -13.814   7.775  1.00  0.00     0.387 C 
HETATM   18  O3  UNL     1      -6.739 -14.090   6.668  1.00  0.00    -0.236 OA
HETATM   19  N3  UNL     1      -8.476 -13.162   7.921  1.00  0.00    -0.301 N 
ATOM     20  H3  UNL     1      -8.797 -12.980   8.872  1.00  0.00     0.171 HD
BRANCH  19  21
HETATM   21  C8  UNL     1      -9.308 -12.739   6.869  1.00  0.00     0.036 A 
HETATM   22  C9  UNL     1     -10.092 -13.591   6.143  1.00  0.00     0.029 A 
HETATM   23  C10 UNL     1     -10.880 -13.091   5.098  1.00  0.00     0.002 A 
HETATM   24  C11 UNL     1     -10.893 -11.757   4.774  1.00  0.00     0.000 A 
HETATM   25  C12 UNL     1     -10.099 -10.905   5.512  1.00  0.00     0.002 A 
HETATM   26  C13 UNL     1      -9.326 -11.375   6.532  1.00  0.00     0.029 A 
ENDBRANCH  19  21
ENDBRANCH  16  17
ENDBRANCH   3  16
BRANCH   8  27
HETATM   27  O7  UNL     1      -4.644 -10.023   8.164  1.00  0.00    -0.390 OA
ATOM     28  H7  UNL     1      -4.393  -9.154   7.872  1.00  0.00     0.210 HD
ENDBRANCH   8  27
BRANCH   6  29
HETATM   29  C15 UNL     1      -8.204  -9.950  10.052  1.00  0.00     0.199 C 
BRANCH  29  30
HETATM   30  O5  UNL     1      -8.481  -8.823  10.805  1.00  0.00    -0.398 OA
ATOM     31  H5  UNL     1      -9.301  -8.429  10.531  1.00  0.00     0.209 HD
ENDBRANCH  29  30
ENDBRANCH   6  29
BRANCH   7  32
HETATM   32  O6  UNL     1      -5.418  -8.839  11.392  1.00  0.00    -0.390 OA
ATOM     33  H6  UNL     1      -4.553  -8.447  11.349  1.00  0.00     0.210 HD
ENDBRANCH   7  32
TORSDOF 10
ENDMDL
