MODEL 1
REMARK VINA RESULT: -6.750879424      0.000      0.000
REMARK  4 active torsions:
REMARK  status: ('A' for Active; 'I' for Inactive)
REMARK    1  A    between atoms: C3_4  and  O2_5 
REMARK    2  A    between atoms: C4_7  and  O3_8 
REMARK    3  A    between atoms: C5_10  and  O4_11 
REMARK    4  A    between atoms: C6_13  and  O5_14 
ROOT
HETATM    1  C1  UNL     1      19.934 -23.184  24.528  1.00  0.00     0.042 C 
HETATM    2  C2  UNL     1      18.461 -23.365  24.125  1.00  0.00     0.152 C 
HETATM    3  O1  UNL     1      18.409 -24.392  23.248  1.00  0.00    -0.351 OA
HETATM    4  C3  UNL     1      17.337 -24.504  22.438  1.00  0.00     0.288 C 
HETATM    5  C4  UNL     1      17.020 -23.168  21.760  1.00  0.00     0.204 C 
HETATM    6  C5  UNL     1      16.658 -22.256  22.909  1.00  0.00     0.182 C 
HETATM    7  C6  UNL     1      17.980 -22.043  23.646  1.00  0.00     0.178 C 
ENDROOT
BRANCH   4   8
HETATM    8  O2  UNL     1      16.158 -24.902  23.072  1.00  0.00    -0.369 OA
ATOM      9  H2  UNL     1      15.467 -25.192  22.488  1.00  0.00     0.212 HD
ENDBRANCH   4   8
BRANCH   5  10
HETATM   10  O3  UNL     1      16.021 -23.280  20.823  1.00  0.00    -0.388 OA
ATOM     11  H3  UNL     1      16.292 -23.786  20.066  1.00  0.00     0.210 HD
ENDBRANCH   5  10
BRANCH   6  12
HETATM   12  O4  UNL     1      16.059 -21.094  22.537  1.00  0.00    -0.390 OA
ATOM     13  H4  UNL     1      16.587 -20.317  22.680  1.00  0.00     0.210 HD
ENDBRANCH   6  12
BRANCH   7  14
HETATM   14  O5  UNL     1      18.895 -21.568  22.685  1.00  0.00    -0.390 OA
ATOM     15  H5  UNL     1      18.432 -20.970  22.109  1.00  0.00     0.210 HD
ENDBRANCH   7  14
TORSDOF 4
ENDMDL
