MODEL 18
REMARK VINA RESULT: -5.360816057      1.346      2.399
REMARK  4 active torsions:
REMARK  status: ('A' for Active; 'I' for Inactive)
REMARK    1  A    between atoms: C3_4  and  O2_5 
REMARK    2  A    between atoms: C4_7  and  O3_8 
REMARK    3  A    between atoms: C5_10  and  O4_11 
REMARK    4  A    between atoms: C6_13  and  O5_14 
ROOT
HETATM    1  C1  UNL     1      16.530 -25.219  24.782  1.00  0.00     0.042 C 
HETATM    2  C2  UNL     1      16.487 -23.996  23.851  1.00  0.00     0.152 C 
HETATM    3  O1  UNL     1      16.568 -24.456  22.582  1.00  0.00    -0.351 OA
HETATM    4  C3  UNL     1      16.957 -23.610  21.606  1.00  0.00     0.288 C 
HETATM    5  C4  UNL     1      18.222 -22.848  22.012  1.00  0.00     0.204 C 
HETATM    6  C5  UNL     1      17.785 -22.032  23.206  1.00  0.00     0.182 C 
HETATM    7  C6  UNL     1      17.558 -23.071  24.304  1.00  0.00     0.178 C 
ENDROOT
BRANCH   4   8
HETATM    8  O2  UNL     1      16.017 -22.637  21.261  1.00  0.00    -0.369 OA
ATOM      9  H2  UNL     1      15.652 -22.723  20.388  1.00  0.00     0.212 HD
ENDBRANCH   4   8
BRANCH   5  10
HETATM   10  O3  UNL     1      18.723 -22.083  20.987  1.00  0.00    -0.388 OA
ATOM     11  H3  UNL     1      19.658 -21.940  21.067  1.00  0.00     0.210 HD
ENDBRANCH   5  10
BRANCH   6  12
HETATM   12  O4  UNL     1      18.658 -21.054  23.567  1.00  0.00    -0.390 OA
ATOM     13  H4  UNL     1      18.251 -20.219  23.765  1.00  0.00     0.210 HD
ENDBRANCH   6  12
BRANCH   7  14
HETATM   14  O5  UNL     1      18.756 -23.807  24.406  1.00  0.00    -0.390 OA
ATOM     15  H5  UNL     1      18.969 -24.140  23.542  1.00  0.00     0.210 HD
ENDBRANCH   7  14
TORSDOF 4
ENDMDL
