MODEL 2
REMARK VINA RESULT: -6.534275962      1.319      1.516
REMARK  4 active torsions:
REMARK  status: ('A' for Active; 'I' for Inactive)
REMARK    1  A    between atoms: C3_4  and  O2_5 
REMARK    2  A    between atoms: C4_7  and  O3_8 
REMARK    3  A    between atoms: C5_10  and  O4_11 
REMARK    4  A    between atoms: C6_13  and  O5_14 
ROOT
HETATM    1  C1  UNL     1      17.866 -24.231  26.003  1.00  0.00     0.042 C 
HETATM    2  C2  UNL     1      16.889 -23.834  24.884  1.00  0.00     0.152 C 
HETATM    3  O1  UNL     1      16.659 -24.939  24.141  1.00  0.00    -0.351 OA
HETATM    4  C3  UNL     1      16.180 -24.795  22.888  1.00  0.00     0.288 C 
HETATM    5  C4  UNL     1      16.987 -23.750  22.111  1.00  0.00     0.204 C 
HETATM    6  C5  UNL     1      16.739 -22.466  22.868  1.00  0.00     0.182 C 
HETATM    7  C6  UNL     1      17.484 -22.663  24.188  1.00  0.00     0.178 C 
ENDROOT
BRANCH   4   8
HETATM    8  O2  UNL     1      14.847 -24.388  22.810  1.00  0.00    -0.369 OA
ATOM      9  H2  UNL     1      14.496 -24.009  23.607  1.00  0.00     0.212 HD
ENDBRANCH   4   8
BRANCH   5  10
HETATM   10  O3  UNL     1      16.614 -23.680  20.790  1.00  0.00    -0.388 OA
ATOM     11  H3  UNL     1      16.891 -24.442  20.296  1.00  0.00     0.210 HD
ENDBRANCH   5  10
BRANCH   6  12
HETATM   12  O4  UNL     1      17.116 -21.341  22.204  1.00  0.00    -0.390 OA
ATOM     13  H4  UNL     1      16.508 -20.616  22.284  1.00  0.00     0.210 HD
ENDBRANCH   6  12
BRANCH   7  14
HETATM   14  O5  UNL     1      18.813 -22.988  23.848  1.00  0.00    -0.390 OA
ATOM     15  H5  UNL     1      18.994 -23.862  24.173  1.00  0.00     0.210 HD
ENDBRANCH   7  14
TORSDOF 4
ENDMDL
