MODEL 10
REMARK VINA RESULT: -5.715556412      1.270      2.028
REMARK  4 active torsions:
REMARK  status: ('A' for Active; 'I' for Inactive)
REMARK    1  A    between atoms: C3_4  and  O2_5 
REMARK    2  A    between atoms: C4_7  and  O3_8 
REMARK    3  A    between atoms: C5_10  and  O4_11 
REMARK    4  A    between atoms: C6_13  and  O5_14 
ROOT
HETATM    1  C1  UNL     1      19.290 -23.638  25.280  1.00  0.00     0.042 C 
HETATM    2  C2  UNL     1      18.452 -22.761  24.335  1.00  0.00     0.152 C 
HETATM    3  O1  UNL     1      17.178 -23.208  24.397  1.00  0.00    -0.351 OA
HETATM    4  C3  UNL     1      16.331 -22.903  23.393  1.00  0.00     0.288 C 
HETATM    5  C4  UNL     1      16.965 -23.199  22.031  1.00  0.00     0.204 C 
HETATM    6  C5  UNL     1      18.141 -22.252  21.967  1.00  0.00     0.182 C 
HETATM    7  C6  UNL     1      19.118 -22.802  23.007  1.00  0.00     0.178 C 
ENDROOT
BRANCH   4   8
HETATM    8  O2  UNL     1      15.928 -21.567  23.348  1.00  0.00    -0.369 OA
ATOM      9  H2  UNL     1      16.605 -20.952  23.091  1.00  0.00     0.212 HD
ENDBRANCH   4   8
BRANCH   5  10
HETATM   10  O3  UNL     1      16.079 -23.031  20.994  1.00  0.00    -0.388 OA
ATOM     11  H3  UNL     1      15.903 -22.116  20.814  1.00  0.00     0.210 HD
ENDBRANCH   5  10
BRANCH   6  12
HETATM   12  O4  UNL     1      18.692 -22.124  20.731  1.00  0.00    -0.390 OA
ATOM     13  H4  UNL     1      19.243 -21.357  20.625  1.00  0.00     0.210 HD
ENDBRANCH   6  12
BRANCH   7  14
HETATM   14  O5  UNL     1      19.334 -24.154  22.669  1.00  0.00    -0.390 OA
ATOM     15  H5  UNL     1      20.222 -24.236  22.341  1.00  0.00     0.210 HD
ENDBRANCH   7  14
TORSDOF 4
ENDMDL
