MODEL 3
REMARK VINA RESULT: -6.650169581      1.171      1.223
REMARK  5 active torsions:
REMARK  status: ('A' for Active; 'I' for Inactive)
REMARK    1  A    between atoms: N1_5  and  C4_6 
REMARK    2  A    between atoms: C6_8  and  O2_9 
REMARK    3  A    between atoms: C7_11  and  C8_12 
REMARK    4  A    between atoms: C8_12  and  O3_13 
REMARK    5  A    between atoms: O3_13  and  P1_14 
ROOT
HETATM    1  C4  UNL     1      25.836  -5.633  -0.349  1.00  0.00     0.235 C 
HETATM    2  C5  UNL     1      25.565  -4.950  -1.661  1.00  0.00     0.088 C 
HETATM    3  C6  UNL     1      24.671  -5.981  -2.356  1.00  0.00     0.153 C 
HETATM    4  C7  UNL     1      25.060  -7.245  -1.649  1.00  0.00     0.177 C 
HETATM    5  O7  UNL     1      26.025  -6.947  -0.721  1.00  0.00    -0.356 OA
ENDROOT
BRANCH   1   6
HETATM    6  N1  UNL     1      26.967  -5.076   0.342  1.00  0.00    -0.282 N 
HETATM    7  C3  UNL     1      28.241  -5.459   0.143  1.00  0.00     0.104 A 
HETATM    8  C2  UNL     1      29.311  -4.910   0.817  1.00  0.00     0.092 A 
HETATM    9  C1  UNL     1      29.054  -3.920   1.740  1.00  0.00     0.250 A 
HETATM   10  O1  UNL     1      30.023  -3.426   2.348  1.00  0.00    -0.268 OA
HETATM   11  N2  UNL     1      27.768  -3.540   1.934  1.00  0.00    -0.275 N 
HETATM   12  C9  UNL     1      26.750  -4.111   1.245  1.00  0.00     0.331 A 
ATOM     13  H2  UNL     1      27.562  -2.807   2.613  1.00  0.00     0.173 HD
HETATM   14  O8  UNL     1      25.597  -3.693   1.493  1.00  0.00    -0.246 OA
ENDBRANCH   1   6
BRANCH   3  15
HETATM   15  O2  UNL     1      23.328  -5.658  -2.197  1.00  0.00    -0.393 OA
ATOM     16  H2  UNL     1      23.231  -4.874  -1.669  1.00  0.00     0.210 HD
ENDBRANCH   3  15
BRANCH   4  17
HETATM   17  C8  UNL     1      25.526  -8.245  -2.678  1.00  0.00     0.217 C 
BRANCH  17  18
HETATM   18  O3  UNL     1      25.698  -9.513  -2.076  1.00  0.00    -0.280 OA
BRANCH  18  19
HETATM   19  P1  UNL     1      27.280 -10.041  -2.204  1.00  0.00     0.422 P 
HETATM   20  O4  UNL     1      28.215  -8.851  -2.332  1.00  0.00    -0.617 OA
HETATM   21  O5  UNL     1      27.494 -11.114  -3.494  1.00  0.00    -0.617 OA
HETATM   22  O6  UNL     1      27.740 -10.864  -0.782  1.00  0.00    -0.617 OA
ENDBRANCH  18  19
ENDBRANCH  17  18
ENDBRANCH   4  17
TORSDOF 5
ENDMDL
