MODEL 15
REMARK VINA RESULT: -6.013927205      2.929      5.540
REMARK  5 active torsions:
REMARK  status: ('A' for Active; 'I' for Inactive)
REMARK    1  A    between atoms: N1_5  and  C4_6 
REMARK    2  A    between atoms: C6_8  and  O2_9 
REMARK    3  A    between atoms: C7_11  and  C8_12 
REMARK    4  A    between atoms: C8_12  and  O3_13 
REMARK    5  A    between atoms: O3_13  and  P1_14 
ROOT
HETATM    1  C4  UNL     1      28.864  -6.362  -0.987  1.00  0.00     0.235 C 
HETATM    2  C5  UNL     1      29.575  -5.168  -0.413  1.00  0.00     0.088 C 
HETATM    3  C6  UNL     1      30.881  -5.803   0.075  1.00  0.00     0.153 C 
HETATM    4  C7  UNL     1      30.472  -7.234   0.255  1.00  0.00     0.177 C 
HETATM    5  O7  UNL     1      29.147  -7.355  -0.074  1.00  0.00    -0.356 OA
ENDROOT
BRANCH   1   6
HETATM    6  N1  UNL     1      27.454  -6.138  -1.157  1.00  0.00    -0.282 N 
HETATM    7  C3  UNL     1      26.694  -5.416  -0.315  1.00  0.00     0.104 A 
HETATM    8  C2  UNL     1      25.343  -5.214  -0.497  1.00  0.00     0.092 A 
HETATM    9  C1  UNL     1      24.749  -5.784  -1.602  1.00  0.00     0.250 A 
HETATM   10  O1  UNL     1      23.527  -5.600  -1.764  1.00  0.00    -0.268 OA
HETATM   11  N2  UNL     1      25.521  -6.510  -2.446  1.00  0.00    -0.275 N 
HETATM   12  C9  UNL     1      26.847  -6.679  -2.221  1.00  0.00     0.331 A 
ATOM     13  H2  UNL     1      25.096  -6.938  -3.269  1.00  0.00     0.173 HD
HETATM   14  O8  UNL     1      27.477  -7.366  -3.057  1.00  0.00    -0.246 OA
ENDBRANCH   1   6
BRANCH   3  15
HETATM   15  O2  UNL     1      31.892  -5.637  -0.864  1.00  0.00    -0.393 OA
ATOM     16  H2  UNL     1      32.216  -4.744  -0.856  1.00  0.00     0.210 HD
ENDBRANCH   3  15
BRANCH   4  17
HETATM   17  C8  UNL     1      30.762  -7.640   1.679  1.00  0.00     0.217 C 
BRANCH  17  18
HETATM   18  O3  UNL     1      29.554  -7.921   2.356  1.00  0.00    -0.280 OA
BRANCH  18  19
HETATM   19  P1  UNL     1      29.199  -6.741   3.489  1.00  0.00     0.422 P 
HETATM   20  O4  UNL     1      28.245  -5.720   2.892  1.00  0.00    -0.617 OA
HETATM   21  O5  UNL     1      30.591  -5.986   4.083  1.00  0.00    -0.617 OA
HETATM   22  O6  UNL     1      28.392  -7.433   4.823  1.00  0.00    -0.617 OA
ENDBRANCH  18  19
ENDBRANCH  17  18
ENDBRANCH   4  17
TORSDOF 5
ENDMDL
