MODEL 2
REMARK VINA RESULT: -7.064192023      0.068      1.026
REMARK  5 active torsions:
REMARK  status: ('A' for Active; 'I' for Inactive)
REMARK    1  A    between atoms: N1_5  and  C4_6 
REMARK    2  A    between atoms: C6_8  and  O2_9 
REMARK    3  A    between atoms: C7_11  and  C8_12 
REMARK    4  A    between atoms: C8_12  and  O3_13 
REMARK    5  A    between atoms: O3_13  and  P1_14 
ROOT
HETATM    1  C4  UNL     1      26.351  -5.921  -1.306  1.00  0.00     0.235 C 
HETATM    2  C5  UNL     1      27.059  -6.322  -2.570  1.00  0.00     0.088 C 
HETATM    3  C6  UNL     1      26.008  -7.221  -3.230  1.00  0.00     0.153 C 
HETATM    4  C7  UNL     1      25.197  -7.656  -2.046  1.00  0.00     0.177 C 
HETATM    5  O7  UNL     1      25.732  -7.090  -0.918  1.00  0.00    -0.356 OA
ENDROOT
BRANCH   1   6
HETATM    6  N1  UNL     1      27.248  -5.402  -0.309  1.00  0.00    -0.282 N 
HETATM    7  C3  UNL     1      28.557  -5.704  -0.236  1.00  0.00     0.104 A 
HETATM    8  C2  UNL     1      29.399  -5.195   0.728  1.00  0.00     0.092 A 
HETATM    9  C1  UNL     1      28.866  -4.332   1.660  1.00  0.00     0.250 A 
HETATM   10  O1  UNL     1      29.630  -3.872   2.531  1.00  0.00    -0.268 OA
HETATM   11  N2  UNL     1      27.547  -4.032   1.579  1.00  0.00    -0.275 N 
HETATM   12  C9  UNL     1      26.759  -4.561   0.611  1.00  0.00     0.331 A 
ATOM     13  H2  UNL     1      27.137  -3.393   2.262  1.00  0.00     0.173 HD
HETATM   14  O8  UNL     1      25.554  -4.224   0.618  1.00  0.00    -0.246 OA
ENDBRANCH   1   6
BRANCH   3  15
HETATM   15  O2  UNL     1      25.268  -6.509  -4.167  1.00  0.00    -0.393 OA
ATOM     16  H2  UNL     1      24.869  -7.097  -4.798  1.00  0.00     0.210 HD
ENDBRANCH   3  15
BRANCH   4  17
HETATM   17  C8  UNL     1      25.191  -9.164  -1.999  1.00  0.00     0.217 C 
BRANCH  17  18
HETATM   18  O3  UNL     1      26.282  -9.675  -2.738  1.00  0.00    -0.280 OA
BRANCH  18  19
HETATM   19  P1  UNL     1      27.488 -10.249  -1.729  1.00  0.00     0.422 P 
HETATM   20  O4  UNL     1      27.901 -11.646  -2.156  1.00  0.00    -0.617 OA
HETATM   21  O5  UNL     1      27.024 -10.230  -0.103  1.00  0.00    -0.617 OA
HETATM   22  O6  UNL     1      28.880  -9.272  -1.867  1.00  0.00    -0.617 OA
ENDBRANCH  18  19
ENDBRANCH  17  18
ENDBRANCH   4  17
TORSDOF 5
ENDMDL
