MODEL 1
REMARK VINA RESULT: -7.111495480      0.000      0.000
REMARK  5 active torsions:
REMARK  status: ('A' for Active; 'I' for Inactive)
REMARK    1  A    between atoms: N1_5  and  C4_6 
REMARK    2  A    between atoms: C6_8  and  O2_9 
REMARK    3  A    between atoms: C7_11  and  C8_12 
REMARK    4  A    between atoms: C8_12  and  O3_13 
REMARK    5  A    between atoms: O3_13  and  P1_14 
ROOT
HETATM    1  C4  UNL     1      26.351  -5.918  -1.311  1.00  0.00     0.235 C 
HETATM    2  C5  UNL     1      27.064  -6.304  -2.577  1.00  0.00     0.088 C 
HETATM    3  C6  UNL     1      26.025  -7.215  -3.240  1.00  0.00     0.153 C 
HETATM    4  C7  UNL     1      25.221  -7.666  -2.057  1.00  0.00     0.177 C 
HETATM    5  O7  UNL     1      25.749  -7.097  -0.927  1.00  0.00    -0.356 OA
ENDROOT
BRANCH   1   6
HETATM    6  N1  UNL     1      27.242  -5.391  -0.313  1.00  0.00    -0.282 N 
HETATM    7  C3  UNL     1      28.556  -5.672  -0.244  1.00  0.00     0.104 A 
HETATM    8  C2  UNL     1      29.392  -5.155   0.722  1.00  0.00     0.092 A 
HETATM    9  C1  UNL     1      28.847  -4.306   1.660  1.00  0.00     0.250 A 
HETATM   10  O1  UNL     1      29.605  -3.840   2.532  1.00  0.00    -0.268 OA
HETATM   11  N2  UNL     1      27.523  -4.027   1.584  1.00  0.00    -0.275 N 
HETATM   12  C9  UNL     1      26.742  -4.563   0.614  1.00  0.00     0.331 A 
ATOM     13  H2  UNL     1      27.105  -3.400   2.272  1.00  0.00     0.173 HD
HETATM   14  O8  UNL     1      25.531  -4.246   0.625  1.00  0.00    -0.246 OA
ENDBRANCH   1   6
BRANCH   3  15
HETATM   15  O2  UNL     1      25.275  -6.510  -4.173  1.00  0.00    -0.393 OA
ATOM     16  H2  UNL     1      25.821  -5.899  -4.653  1.00  0.00     0.210 HD
ENDBRANCH   3  15
BRANCH   4  17
HETATM   17  C8  UNL     1      25.236  -9.174  -2.016  1.00  0.00     0.217 C 
BRANCH  17  18
HETATM   18  O3  UNL     1      26.317  -9.668  -2.782  1.00  0.00    -0.280 OA
BRANCH  18  19
HETATM   19  P1  UNL     1      27.546 -10.244  -1.804  1.00  0.00     0.422 P 
HETATM   20  O4  UNL     1      28.757  -9.332  -1.903  1.00  0.00    -0.617 OA
HETATM   21  O5  UNL     1      27.963 -11.840  -2.174  1.00  0.00    -0.617 OA
HETATM   22  O6  UNL     1      27.055 -10.216  -0.170  1.00  0.00    -0.617 OA
ENDBRANCH  18  19
ENDBRANCH  17  18
ENDBRANCH   4  17
TORSDOF 5
ENDMDL
