MODEL 7
REMARK VINA RESULT: -6.935603606      1.048      1.999
REMARK  9 active torsions:
REMARK  status: ('A' for Active; 'I' for Inactive)
REMARK    1  A    between atoms: N1_5  and  C4_6 
REMARK    2  A    between atoms: C6_8  and  O2_9 
REMARK    3  A    between atoms: C7_11  and  C8_12 
REMARK    4  A    between atoms: C8_12  and  O3_13 
REMARK    5  A    between atoms: O3_13  and  P1_14 
REMARK    6  A    between atoms: P1_14  and  O6_17 
REMARK    7  A    between atoms: O6_17  and  P2_18 
REMARK    8  A    between atoms: P2_18  and  O9_21 
REMARK    9  A    between atoms: O9_21  and  P3_22 
ROOT
HETATM    1  C4  UNL     1      28.843  17.375   7.100  1.00  0.00     0.235 C 
HETATM    2  C5  UNL     1      27.773  17.323   8.146  1.00  0.00     0.088 C 
HETATM    3  C6  UNL     1      26.681  16.577   7.353  1.00  0.00     0.153 C 
HETATM    4  C7  UNL     1      27.007  16.885   5.956  1.00  0.00     0.177 C 
HETATM    5  O13 UNL     1      28.170  17.658   5.932  1.00  0.00    -0.356 OA
ENDROOT
BRANCH   4   6
HETATM    6  C8  UNL     1      26.022  17.664   5.154  1.00  0.00     0.216 C 
BRANCH   6   7
HETATM    7  O3  UNL     1      26.482  18.981   4.924  1.00  0.00    -0.287 OA
BRANCH   7   8
HETATM    8  P1  UNL     1      25.945  19.279   3.334  1.00  0.00     0.417 P 
HETATM    9  O4  UNL     1      26.854  18.515   2.176  1.00  0.00    -0.624 OA
HETATM   10  O5  UNL     1      24.953  18.127   3.602  1.00  0.00    -0.624 OA
BRANCH   8  11
HETATM   11  O6  UNL     1      24.774  20.300   2.989  1.00  0.00    -0.180 OA
BRANCH  11  12
HETATM   12  P2  UNL     1      25.179  21.914   2.894  1.00  0.00     0.428 P 
HETATM   13  O7  UNL     1      25.175  21.804   1.349  1.00  0.00    -0.624 OA
HETATM   14  O8  UNL     1      26.717  22.325   3.100  1.00  0.00    -0.624 OA
BRANCH  12  15
HETATM   15  O9  UNL     1      24.842  21.916   4.391  1.00  0.00    -0.173 OA
BRANCH  15  16
HETATM   16  P3  UNL     1      23.682  22.636   5.087  1.00  0.00     0.431 P 
HETATM   17  O10 UNL     1      22.919  22.936   3.692  1.00  0.00    -0.616 OA
HETATM   18  O11 UNL     1      24.795  23.713   5.705  1.00  0.00    -0.616 OA
HETATM   19  O12 UNL     1      23.312  21.272   5.961  1.00  0.00    -0.616 OA
ENDBRANCH  15  16
ENDBRANCH  12  15
ENDBRANCH  11  12
ENDBRANCH   8  11
ENDBRANCH   7   8
ENDBRANCH   6   7
ENDBRANCH   4   6
BRANCH   3  20
HETATM   20  O2  UNL     1      26.952  15.196   7.612  1.00  0.00    -0.393 OA
ATOM     21  H2  UNL     1      27.786  15.210   8.069  1.00  0.00     0.210 HD
ENDBRANCH   3  20
BRANCH   1  22
HETATM   22  N1  UNL     1      29.784  18.460   7.264  1.00  0.00    -0.282 N 
HETATM   23  C3  UNL     1      29.286  19.716   7.299  1.00  0.00     0.104 A 
HETATM   24  C2  UNL     1      30.173  20.763   7.394  1.00  0.00     0.092 A 
HETATM   25  C1  UNL     1      31.522  20.516   7.457  1.00  0.00     0.250 A 
HETATM   26  O1  UNL     1      32.372  21.421   7.559  1.00  0.00    -0.268 OA
HETATM   27  N2  UNL     1      31.974  19.238   7.418  1.00  0.00    -0.275 N 
HETATM   28  C9  UNL     1      31.092  18.208   7.314  1.00  0.00     0.331 A 
ATOM     29  H2  UNL     1      32.976  19.049   7.467  1.00  0.00     0.173 HD
HETATM   30  O14 UNL     1      31.526  17.051   7.253  1.00  0.00    -0.246 OA
ENDBRANCH   1  22
TORSDOF 9
ENDMDL
