MODEL 6
REMARK VINA RESULT: -6.948567361      3.665      6.121
REMARK  9 active torsions:
REMARK  status: ('A' for Active; 'I' for Inactive)
REMARK    1  A    between atoms: N1_5  and  C4_6 
REMARK    2  A    between atoms: C6_8  and  O2_9 
REMARK    3  A    between atoms: C7_11  and  C8_12 
REMARK    4  A    between atoms: C8_12  and  O3_13 
REMARK    5  A    between atoms: O3_13  and  P1_14 
REMARK    6  A    between atoms: P1_14  and  O6_17 
REMARK    7  A    between atoms: O6_17  and  P2_18 
REMARK    8  A    between atoms: P2_18  and  O9_21 
REMARK    9  A    between atoms: O9_21  and  P3_22 
ROOT
HETATM    1  C4  UNL     1      24.429  19.055   3.598  1.00  0.00     0.235 C 
HETATM    2  C5  UNL     1      25.542  18.380   2.857  1.00  0.00     0.088 C 
HETATM    3  C6  UNL     1      25.292  16.924   3.299  1.00  0.00     0.153 C 
HETATM    4  C7  UNL     1      24.596  17.075   4.582  1.00  0.00     0.177 C 
HETATM    5  O13 UNL     1      24.408  18.436   4.828  1.00  0.00    -0.356 OA
ENDROOT
BRANCH   4   6
HETATM    6  C8  UNL     1      25.259  16.558   5.813  1.00  0.00     0.216 C 
BRANCH   6   7
HETATM    7  O3  UNL     1      26.539  16.035   5.519  1.00  0.00    -0.287 OA
BRANCH   7   8
HETATM    8  P1  UNL     1      27.566  17.091   6.376  1.00  0.00     0.417 P 
HETATM    9  O4  UNL     1      28.372  16.357   7.627  1.00  0.00    -0.624 OA
HETATM   10  O5  UNL     1      28.590  16.775   5.265  1.00  0.00    -0.624 OA
BRANCH   8  11
HETATM   11  O6  UNL     1      27.637  18.655   6.093  1.00  0.00    -0.180 OA
BRANCH  11  12
HETATM   12  P2  UNL     1      28.041  19.640   7.375  1.00  0.00     0.428 P 
HETATM   13  O7  UNL     1      26.690  19.288   8.047  1.00  0.00    -0.624 OA
HETATM   14  O8  UNL     1      27.822  21.222   7.217  1.00  0.00    -0.624 OA
BRANCH  12  15
HETATM   15  O9  UNL     1      29.432  19.636   6.726  1.00  0.00    -0.173 OA
BRANCH  15  16
HETATM   16  P3  UNL     1      30.784  19.418   7.414  1.00  0.00     0.431 P 
HETATM   17  O10 UNL     1      30.099  19.070   8.839  1.00  0.00    -0.616 OA
HETATM   18  O11 UNL     1      31.177  20.987   7.012  1.00  0.00    -0.616 OA
HETATM   19  O12 UNL     1      31.167  18.196   6.355  1.00  0.00    -0.616 OA
ENDBRANCH  15  16
ENDBRANCH  12  15
ENDBRANCH  11  12
ENDBRANCH   8  11
ENDBRANCH   7   8
ENDBRANCH   6   7
ENDBRANCH   4   6
BRANCH   3  20
HETATM   20  O2  UNL     1      24.381  16.419   2.319  1.00  0.00    -0.393 OA
ATOM     21  H2  UNL     1      24.457  15.476   2.401  1.00  0.00     0.210 HD
ENDBRANCH   3  20
BRANCH   1  22
HETATM   22  N1  UNL     1      24.665  20.452   3.883  1.00  0.00    -0.282 N 
HETATM   23  C3  UNL     1      25.950  20.869   3.934  1.00  0.00     0.104 A 
HETATM   24  C2  UNL     1      26.194  22.182   4.264  1.00  0.00     0.092 A 
HETATM   25  C1  UNL     1      25.146  23.030   4.524  1.00  0.00     0.250 A 
HETATM   26  O1  UNL     1      25.303  24.232   4.812  1.00  0.00    -0.268 OA
HETATM   27  N2  UNL     1      23.873  22.566   4.460  1.00  0.00    -0.275 N 
HETATM   28  C9  UNL     1      23.640  21.264   4.144  1.00  0.00     0.331 A 
ATOM     29  H2  UNL     1      23.091  23.192   4.650  1.00  0.00     0.173 HD
HETATM   30  O14 UNL     1      22.473  20.853   4.117  1.00  0.00    -0.246 OA
ENDBRANCH   1  22
TORSDOF 9
ENDMDL
