MODEL 1
REMARK VINA RESULT: -7.362204470      0.000      0.000
REMARK  9 active torsions:
REMARK  status: ('A' for Active; 'I' for Inactive)
REMARK    1  A    between atoms: N1_5  and  C4_6 
REMARK    2  A    between atoms: C6_8  and  O2_9 
REMARK    3  A    between atoms: C7_11  and  C8_12 
REMARK    4  A    between atoms: C8_12  and  O3_13 
REMARK    5  A    between atoms: O3_13  and  P1_14 
REMARK    6  A    between atoms: P1_14  and  O6_17 
REMARK    7  A    between atoms: O6_17  and  P2_18 
REMARK    8  A    between atoms: P2_18  and  O9_21 
REMARK    9  A    between atoms: O9_21  and  P3_22 
ROOT
HETATM    1  C4  UNL     1      28.512  17.225   7.168  1.00  0.00     0.235 C 
HETATM    2  C5  UNL     1      27.252  17.228   7.978  1.00  0.00     0.088 C 
HETATM    3  C6  UNL     1      26.418  16.229   7.150  1.00  0.00     0.153 C 
HETATM    4  C7  UNL     1      27.007  16.327   5.809  1.00  0.00     0.177 C 
HETATM    5  O13 UNL     1      28.082  17.217   5.860  1.00  0.00    -0.356 OA
ENDROOT
BRANCH   4   6
HETATM    6  C8  UNL     1      26.155  16.830   4.695  1.00  0.00     0.216 C 
BRANCH   6   7
HETATM    7  O3  UNL     1      25.040  17.545   5.192  1.00  0.00    -0.287 OA
BRANCH   7   8
HETATM    8  P1  UNL     1      24.936  18.851   4.101  1.00  0.00     0.417 P 
HETATM    9  O4  UNL     1      26.252  18.983   3.100  1.00  0.00    -0.624 OA
HETATM   10  O5  UNL     1      24.116  17.877   3.228  1.00  0.00    -0.624 OA
BRANCH   8  11
HETATM   11  O6  UNL     1      23.757  19.921   4.137  1.00  0.00    -0.180 OA
BRANCH  11  12
HETATM   12  P2  UNL     1      24.078  21.377   4.882  1.00  0.00     0.428 P 
HETATM   13  O7  UNL     1      24.272  20.626   6.223  1.00  0.00    -0.624 OA
HETATM   14  O8  UNL     1      22.838  22.304   5.305  1.00  0.00    -0.624 OA
BRANCH  12  15
HETATM   15  O9  UNL     1      24.152  21.908   3.443  1.00  0.00    -0.173 OA
BRANCH  15  16
HETATM   16  P3  UNL     1      25.210  22.840   2.844  1.00  0.00     0.431 P 
HETATM   17  O10 UNL     1      25.174  22.097   1.407  1.00  0.00    -0.616 OA
HETATM   18  O11 UNL     1      26.252  22.335   4.044  1.00  0.00    -0.616 OA
HETATM   19  O12 UNL     1      24.249  24.167   3.120  1.00  0.00    -0.616 OA
ENDBRANCH  15  16
ENDBRANCH  12  15
ENDBRANCH  11  12
ENDBRANCH   8  11
ENDBRANCH   7   8
ENDBRANCH   6   7
ENDBRANCH   4   6
BRANCH   3  20
HETATM   20  O2  UNL     1      26.740  14.958   7.720  1.00  0.00    -0.393 OA
ATOM     21  H2  UNL     1      26.863  14.394   6.966  1.00  0.00     0.210 HD
ENDBRANCH   3  20
BRANCH   1  22
HETATM   22  N1  UNL     1      29.304  18.427   7.296  1.00  0.00    -0.282 N 
HETATM   23  C3  UNL     1      28.648  19.609   7.300  1.00  0.00     0.104 A 
HETATM   24  C2  UNL     1      29.391  20.765   7.361  1.00  0.00     0.092 A 
HETATM   25  C1  UNL     1      30.761  20.696   7.421  1.00  0.00     0.250 A 
HETATM   26  O1  UNL     1      31.487  21.707   7.493  1.00  0.00    -0.268 OA
HETATM   27  N2  UNL     1      31.376  19.487   7.414  1.00  0.00    -0.275 N 
HETATM   28  C9  UNL     1      30.635  18.349   7.344  1.00  0.00     0.331 A 
ATOM     29  H2  UNL     1      32.393  19.431   7.461  1.00  0.00     0.173 HD
HETATM   30  O14 UNL     1      31.215  17.257   7.312  1.00  0.00    -0.246 OA
ENDBRANCH   1  22
TORSDOF 9
ENDMDL
