MODEL 2
REMARK VINA RESULT: -9.351424352      3.183      6.550
REMARK  13 active torsions:
REMARK  status: ('A' for Active; 'I' for Inactive)
REMARK    1  A    between atoms: O1_2  and  C2_3 
REMARK    2  A    between atoms: C2_3  and  C3_5 
REMARK    3  A    between atoms: C3_5  and  C4_6 
REMARK    4  A    between atoms: C3_5  and  O3_13 
REMARK    5  A    between atoms: C4_6  and  C5_7 
REMARK    6  A    between atoms: O3_13  and  P1_14 
REMARK    7  A    between atoms: P1_14  and  C11_17 
REMARK    8  A    between atoms: C11_17  and  N1_18 
REMARK       I    between atoms: N1_18  and  C12_20 
REMARK    9  A    between atoms: C12_20  and  C13_22 
REMARK   10  A    between atoms: C13_22  and  N2_23 
REMARK   11  A    between atoms: C13_22  and  C26_38 
REMARK       I    between atoms: N2_23  and  C14_25 
REMARK   12  A    between atoms: C14_25  and  C15_27 
REMARK   13  A    between atoms: C15_27  and  C16_28 
ROOT
HETATM    1  N1  UNL     1      20.770   7.189  18.906  1.00  0.00    -0.327 N 
ATOM      2  H1  UNL     1      21.549   6.980  19.530  1.00  0.00     0.168 HD
HETATM    3  C12 UNL     1      19.529   7.653  19.467  1.00  0.00     0.244 C 
HETATM    4  O6  UNL     1      18.585   7.910  18.654  1.00  0.00    -0.271 OA
ENDROOT
BRANCH   3   5
HETATM    5  C13 UNL     1      19.333   7.835  20.924  1.00  0.00     0.180 C 
BRANCH   5   6
HETATM    6  N2  UNL     1      19.674   9.189  21.342  1.00  0.00    -0.347 N 
HETATM    7  C14 UNL     1      20.690   9.346  22.313  1.00  0.00     0.222 C 
HETATM    8  O7  UNL     1      21.248   8.325  22.773  1.00  0.00    -0.273 OA
ATOM      9  H2  UNL     1      19.196   9.998  20.947  1.00  0.00     0.163 HD
BRANCH   7  10
HETATM   10  C15 UNL     1      21.116  10.658  22.802  1.00  0.00     0.142 C 
BRANCH  10  11
HETATM   11  C16 UNL     1      20.299  11.092  23.982  1.00  0.00    -0.038 A 
HETATM   12  C17 UNL     1      19.276  10.321  24.480  1.00  0.00     0.008 A 
HETATM   13  C18 UNL     1      18.526  10.741  25.586  1.00  0.00     0.001 A 
HETATM   14  C19 UNL     1      18.794  11.937  26.206  1.00  0.00     0.012 A 
HETATM   15  C20 UNL     1      19.819  12.712  25.710  1.00  0.00    -0.025 A 
HETATM   16  C21 UNL     1      20.098  13.912  26.326  1.00  0.00     0.012 A 
HETATM   17  C25 UNL     1      20.557  12.289  24.613  1.00  0.00    -0.019 A 
HETATM   18  C22 UNL     1      21.128  14.694  25.838  1.00  0.00     0.001 A 
HETATM   19  C23 UNL     1      21.862  14.260  24.736  1.00  0.00     0.001 A 
HETATM   20  C24 UNL     1      21.570  13.057  24.132  1.00  0.00     0.013 A 
ENDBRANCH  10  11
ENDBRANCH   7  10
ENDBRANCH   5   6
BRANCH   5  21
HETATM   21  C26 UNL     1      17.914   7.496  21.339  1.00  0.00     0.009 C 
HETATM   22  C27 UNL     1      17.598   6.030  21.226  1.00  0.00     0.012 C 
HETATM   23  C28 UNL     1      17.616   7.965  22.717  1.00  0.00     0.012 C 
ENDBRANCH   5  21
ENDBRANCH   3   5
BRANCH   1  24
HETATM   24  C11 UNL     1      20.944   7.012  17.483  1.00  0.00     0.196 C 
BRANCH  24  25
HETATM   25  P1  UNL     1      21.607   5.510  17.007  1.00  0.00     0.291 P 
HETATM   26  O4  UNL     1      22.944   5.454  16.005  1.00  0.00    -0.643 OA
HETATM   27  O5  UNL     1      20.753   4.094  17.351  1.00  0.00    -0.643 OA
BRANCH  25  28
HETATM   28  O3  UNL     1      22.449   5.222  18.248  1.00  0.00    -0.292 OA
BRANCH  28  29
HETATM   29  C3  UNL     1      23.774   4.883  18.265  1.00  0.00     0.236 C 
BRANCH  29  30
HETATM   30  C2  UNL     1      23.830   3.445  18.623  1.00  0.00     0.288 C 
HETATM   31  O2  UNL     1      23.929   3.008  19.784  1.00  0.00    -0.262 OA
BRANCH  30  32
HETATM   32  O1  UNL     1      23.765   2.527  17.588  1.00  0.00    -0.324 OA
HETATM   33  C1  UNL     1      22.878   1.427  17.603  1.00  0.00     0.213 C 
ENDBRANCH  30  32
ENDBRANCH  29  30
BRANCH  29  34
HETATM   34  C4  UNL     1      24.416   5.675  19.389  1.00  0.00     0.081 C 
BRANCH  34  35
HETATM   35  C5  UNL     1      24.205   7.116  19.314  1.00  0.00    -0.055 A 
HETATM   36  C6  UNL     1      23.823   7.820  20.450  1.00  0.00     0.007 A 
HETATM   37  C7  UNL     1      23.627   9.188  20.416  1.00  0.00     0.001 A 
HETATM   38  C8  UNL     1      23.810   9.877  19.249  1.00  0.00     0.000 A 
HETATM   39  C9  UNL     1      24.185   9.230  18.114  1.00  0.00     0.001 A 
HETATM   40  C10 UNL     1      24.376   7.866  18.164  1.00  0.00     0.007 A 
ENDBRANCH  34  35
ENDBRANCH  29  34
ENDBRANCH  28  29
ENDBRANCH  25  28
ENDBRANCH  24  25
ENDBRANCH   1  24
TORSDOF 13
ENDMDL
