MODEL 3
REMARK VINA RESULT: -9.140488323      3.215      6.748
REMARK  13 active torsions:
REMARK  status: ('A' for Active; 'I' for Inactive)
REMARK    1  A    between atoms: O1_2  and  C2_3 
REMARK    2  A    between atoms: C2_3  and  C3_5 
REMARK    3  A    between atoms: C3_5  and  C4_6 
REMARK    4  A    between atoms: C3_5  and  O3_13 
REMARK    5  A    between atoms: C4_6  and  C5_7 
REMARK    6  A    between atoms: O3_13  and  P1_14 
REMARK    7  A    between atoms: P1_14  and  C11_17 
REMARK    8  A    between atoms: C11_17  and  N1_18 
REMARK       I    between atoms: N1_18  and  C12_20 
REMARK    9  A    between atoms: C12_20  and  C13_22 
REMARK   10  A    between atoms: C13_22  and  N2_23 
REMARK   11  A    between atoms: C13_22  and  C26_38 
REMARK       I    between atoms: N2_23  and  C14_25 
REMARK   12  A    between atoms: C14_25  and  C15_27 
REMARK   13  A    between atoms: C15_27  and  C16_28 
ROOT
HETATM    1  N1  UNL     1      20.679   7.142  19.155  1.00  0.00    -0.327 N 
ATOM      2  H1  UNL     1      21.550   6.933  19.643  1.00  0.00     0.168 HD
HETATM    3  C12 UNL     1      19.643   7.858  19.850  1.00  0.00     0.244 C 
HETATM    4  O6  UNL     1      18.576   8.105  19.204  1.00  0.00    -0.271 OA
ENDROOT
BRANCH   3   5
HETATM    5  C13 UNL     1      19.789   8.306  21.254  1.00  0.00     0.180 C 
BRANCH   5   6
HETATM    6  N2  UNL     1      20.567   9.535  21.345  1.00  0.00    -0.347 N 
HETATM    7  C14 UNL     1      21.711   9.534  22.175  1.00  0.00     0.222 C 
HETATM    8  O7  UNL     1      22.004   8.490  22.797  1.00  0.00    -0.273 OA
ATOM      9  H2  UNL     1      20.295  10.369  20.825  1.00  0.00     0.163 HD
BRANCH   7  10
HETATM   10  C15 UNL     1      22.568  10.710  22.336  1.00  0.00     0.142 C 
BRANCH  10  11
HETATM   11  C16 UNL     1      22.313  11.395  23.646  1.00  0.00    -0.038 A 
HETATM   12  C17 UNL     1      21.040  11.644  24.100  1.00  0.00     0.008 A 
HETATM   13  C18 UNL     1      20.822  12.281  25.328  1.00  0.00     0.001 A 
HETATM   14  C19 UNL     1      21.877  12.674  26.116  1.00  0.00     0.012 A 
HETATM   15  C20 UNL     1      23.154  12.426  25.663  1.00  0.00    -0.025 A 
HETATM   16  C21 UNL     1      24.219  12.814  26.447  1.00  0.00     0.012 A 
HETATM   17  C25 UNL     1      23.362  11.795  24.445  1.00  0.00    -0.019 A 
HETATM   18  C22 UNL     1      25.504  12.565  26.003  1.00  0.00     0.001 A 
HETATM   19  C23 UNL     1      25.701  11.930  24.778  1.00  0.00     0.001 A 
HETATM   20  C24 UNL     1      24.625  11.549  24.008  1.00  0.00     0.013 A 
ENDBRANCH  10  11
ENDBRANCH   7  10
ENDBRANCH   5   6
BRANCH   5  21
HETATM   21  C26 UNL     1      18.438   8.486  21.922  1.00  0.00     0.009 C 
HETATM   22  C27 UNL     1      17.784   7.184  22.297  1.00  0.00     0.012 C 
HETATM   23  C28 UNL     1      18.527   9.362  23.118  1.00  0.00     0.012 C 
ENDBRANCH   5  21
ENDBRANCH   3   5
BRANCH   1  24
HETATM   24  C11 UNL     1      20.520   6.708  17.787  1.00  0.00     0.196 C 
BRANCH  24  25
HETATM   25  P1  UNL     1      20.566   5.016  17.543  1.00  0.00     0.291 P 
HETATM   26  O4  UNL     1      20.825   4.387  16.017  1.00  0.00    -0.643 OA
HETATM   27  O5  UNL     1      20.102   3.996  18.807  1.00  0.00    -0.643 OA
BRANCH  25  28
HETATM   28  O3  UNL     1      22.013   4.760  17.961  1.00  0.00    -0.292 OA
BRANCH  28  29
HETATM   29  C3  UNL     1      22.935   4.025  17.267  1.00  0.00     0.236 C 
BRANCH  29  30
HETATM   30  C2  UNL     1      23.161   2.790  18.057  1.00  0.00     0.288 C 
HETATM   31  O2  UNL     1      23.455   2.768  19.267  1.00  0.00    -0.262 OA
BRANCH  30  32
HETATM   32  O1  UNL     1      23.033   1.579  17.399  1.00  0.00    -0.324 OA
HETATM   33  C1  UNL     1      21.783   1.070  16.982  1.00  0.00     0.213 C 
ENDBRANCH  30  32
ENDBRANCH  29  30
BRANCH  29  34
HETATM   34  C4  UNL     1      24.224   4.827  17.264  1.00  0.00     0.081 C 
BRANCH  34  35
HETATM   35  C5  UNL     1      24.211   6.002  18.128  1.00  0.00    -0.055 A 
HETATM   36  C6  UNL     1      24.014   7.264  17.579  1.00  0.00     0.007 A 
HETATM   37  C7  UNL     1      23.984   8.396  18.371  1.00  0.00     0.001 A 
HETATM   38  C8  UNL     1      24.148   8.288  19.725  1.00  0.00     0.000 A 
HETATM   39  C9  UNL     1      24.342   7.075  20.305  1.00  0.00     0.001 A 
HETATM   40  C10 UNL     1      24.371   5.955  19.502  1.00  0.00     0.007 A 
ENDBRANCH  34  35
ENDBRANCH  29  34
ENDBRANCH  28  29
ENDBRANCH  25  28
ENDBRANCH  24  25
ENDBRANCH   1  24
TORSDOF 13
ENDMDL
