MODEL 1
REMARK VINA RESULT: -9.389508094      0.000      0.000
REMARK  13 active torsions:
REMARK  status: ('A' for Active; 'I' for Inactive)
REMARK    1  A    between atoms: O1_2  and  C2_3 
REMARK    2  A    between atoms: C2_3  and  C3_5 
REMARK    3  A    between atoms: C3_5  and  C4_6 
REMARK    4  A    between atoms: C3_5  and  O3_13 
REMARK    5  A    between atoms: C4_6  and  C5_7 
REMARK    6  A    between atoms: O3_13  and  P1_14 
REMARK    7  A    between atoms: P1_14  and  C11_17 
REMARK    8  A    between atoms: C11_17  and  N1_18 
REMARK       I    between atoms: N1_18  and  C12_20 
REMARK    9  A    between atoms: C12_20  and  C13_22 
REMARK   10  A    between atoms: C13_22  and  N2_23 
REMARK   11  A    between atoms: C13_22  and  C26_38 
REMARK       I    between atoms: N2_23  and  C14_25 
REMARK   12  A    between atoms: C14_25  and  C15_27 
REMARK   13  A    between atoms: C15_27  and  C16_28 
ROOT
HETATM    1  N1  UNL     1      22.736  11.395  22.671  1.00  0.00    -0.327 N 
ATOM      2  H1  UNL     1      22.065  11.321  23.435  1.00  0.00     0.168 HD
HETATM    3  C12 UNL     1      23.999  12.041  22.909  1.00  0.00     0.244 C 
HETATM    4  O6  UNL     1      24.811  12.104  21.931  1.00  0.00    -0.271 OA
ENDROOT
BRANCH   3   5
HETATM    5  C13 UNL     1      24.365  12.612  24.225  1.00  0.00     0.180 C 
BRANCH   5   6
HETATM    6  N2  UNL     1      23.216  12.671  25.120  1.00  0.00    -0.347 N 
HETATM    7  C14 UNL     1      22.426  13.843  25.105  1.00  0.00     0.222 C 
HETATM    8  O7  UNL     1      22.744  14.776  24.336  1.00  0.00    -0.273 OA
ATOM      9  H2  UNL     1      22.989  11.891  25.736  1.00  0.00     0.163 HD
BRANCH   7  10
HETATM   10  C15 UNL     1      21.246  14.007  25.957  1.00  0.00     0.142 C 
BRANCH  10  11
HETATM   11  C16 UNL     1      20.240  12.923  25.709  1.00  0.00    -0.038 A 
HETATM   12  C17 UNL     1      19.615  12.777  24.494  1.00  0.00     0.008 A 
HETATM   13  C18 UNL     1      18.680  11.756  24.280  1.00  0.00     0.001 A 
HETATM   14  C19 UNL     1      18.362  10.869  25.281  1.00  0.00     0.012 A 
HETATM   15  C20 UNL     1      18.988  11.014  26.500  1.00  0.00    -0.025 A 
HETATM   16  C21 UNL     1      18.679  10.128  27.509  1.00  0.00     0.012 A 
HETATM   17  C25 UNL     1      19.912  12.029  26.704  1.00  0.00    -0.019 A 
HETATM   18  C22 UNL     1      19.304  10.262  28.734  1.00  0.00     0.001 A 
HETATM   19  C23 UNL     1      20.231  11.285  28.928  1.00  0.00     0.001 A 
HETATM   20  C24 UNL     1      20.528  12.161  27.908  1.00  0.00     0.013 A 
ENDBRANCH  10  11
ENDBRANCH   7  10
ENDBRANCH   5   6
BRANCH   5  21
HETATM   21  C26 UNL     1      25.498  11.835  24.871  1.00  0.00     0.009 C 
HETATM   22  C27 UNL     1      26.852  12.432  24.605  1.00  0.00     0.012 C 
HETATM   23  C28 UNL     1      25.298  11.685  26.336  1.00  0.00     0.012 C 
ENDBRANCH   5  21
ENDBRANCH   3   5
BRANCH   1  24
HETATM   24  C11 UNL     1      22.391  10.847  21.380  1.00  0.00     0.196 C 
BRANCH  24  25
HETATM   25  P1  UNL     1      22.175   9.151  21.336  1.00  0.00     0.291 P 
HETATM   26  O4  UNL     1      21.662   8.327  22.697  1.00  0.00    -0.643 OA
HETATM   27  O5  UNL     1      22.721   8.293  19.988  1.00  0.00    -0.643 OA
BRANCH  25  28
HETATM   28  O3  UNL     1      20.782   9.110  20.711  1.00  0.00    -0.292 OA
BRANCH  28  29
HETATM   29  C3  UNL     1      19.791   8.213  21.004  1.00  0.00     0.236 C 
BRANCH  29  30
HETATM   30  C2  UNL     1      19.308   7.688  19.704  1.00  0.00     0.288 C 
HETATM   31  O2  UNL     1      18.246   8.033  19.153  1.00  0.00    -0.262 OA
BRANCH  30  32
HETATM   32  O1  UNL     1      20.098   6.751  19.060  1.00  0.00    -0.324 OA
HETATM   33  C1  UNL     1      20.379   6.815  17.677  1.00  0.00     0.213 C 
ENDBRANCH  30  32
ENDBRANCH  29  30
BRANCH  29  34
HETATM   34  C4  UNL     1      18.662   8.999  21.646  1.00  0.00     0.081 C 
BRANCH  34  35
HETATM   35  C5  UNL     1      17.837   8.231  22.571  1.00  0.00    -0.055 A 
HETATM   36  C6  UNL     1      18.319   7.924  23.839  1.00  0.00     0.007 A 
HETATM   37  C7  UNL     1      17.557   7.209  24.744  1.00  0.00     0.001 A 
HETATM   38  C8  UNL     1      16.301   6.789  24.400  1.00  0.00     0.000 A 
HETATM   39  C9  UNL     1      15.789   7.068  23.172  1.00  0.00     0.001 A 
HETATM   40  C10 UNL     1      16.561   7.781  22.281  1.00  0.00     0.007 A 
ENDBRANCH  34  35
ENDBRANCH  29  34
ENDBRANCH  28  29
ENDBRANCH  25  28
ENDBRANCH  24  25
ENDBRANCH   1  24
TORSDOF 13
ENDMDL
