MODEL 3
REMARK VINA RESULT: -9.473791665      3.725      5.678
REMARK  10 active torsions:
REMARK  status: ('A' for Active; 'I' for Inactive)
REMARK    1  A    between atoms: O1_2  and  C2_3 
REMARK    2  A    between atoms: C2_3  and  C3_5 
REMARK    3  A    between atoms: C3_5  and  C4_6 
REMARK    4  A    between atoms: C3_5  and  O3_13 
REMARK    5  A    between atoms: C4_6  and  C5_7 
REMARK    6  A    between atoms: O3_13  and  P1_14 
REMARK    7  A    between atoms: P1_14  and  C11_17 
REMARK    8  A    between atoms: C24_30  and  O6_31 
REMARK    9  A    between atoms: C25_35  and  C26_36 
REMARK   10  A    between atoms: C29_39  and  O7_40 
ROOT
HETATM    1  C11 UNL     1      19.249   4.182  18.903  1.00  0.00     0.209 C 
HETATM    2  C12 UNL     1      19.984   4.228  20.256  1.00  0.00     0.077 C 
HETATM    3  C13 UNL     1      21.333   4.910  20.133  1.00  0.00    -0.055 A 
HETATM    4  C14 UNL     1      21.392   6.059  20.923  1.00  0.00     0.008 A 
HETATM    5  C15 UNL     1      22.450   6.921  20.901  1.00  0.00     0.013 A 
HETATM    6  C16 UNL     1      23.484   6.577  20.019  1.00  0.00    -0.025 A 
HETATM    7  C17 UNL     1      24.516   7.526  19.997  1.00  0.00     0.012 A 
HETATM    8  C18 UNL     1      25.573   7.365  19.149  1.00  0.00     0.001 A 
HETATM    9  C19 UNL     1      25.556   6.263  18.356  1.00  0.00     0.008 A 
HETATM   10  C20 UNL     1      24.554   5.298  18.348  1.00  0.00    -0.040 A 
HETATM   11  C21 UNL     1      23.462   5.439  19.216  1.00  0.00    -0.019 A 
HETATM   12  C22 UNL     1      22.357   4.587  19.288  1.00  0.00     0.020 A 
HETATM   13  C23 UNL     1      24.736   4.246  17.289  1.00  0.00     0.123 C 
HETATM   14  C24 UNL     1      23.828   4.487  16.146  1.00  0.00     0.119 C 
HETATM   15  N1  UNL     1      22.679   3.892  15.677  1.00  0.00    -0.340 N 
ATOM     16  H1  UNL     1      22.856   3.320  14.851  1.00  0.00     0.167 HD
HETATM   17  C25 UNL     1      21.286   3.871  16.059  1.00  0.00     0.065 C 
HETATM   18  C29 UNL     1      20.802   4.933  16.929  1.00  0.00     0.160 C 
HETATM   19  N2  UNL     1      19.888   5.065  17.945  1.00  0.00    -0.353 N 
ATOM     20  H2  UNL     1      19.579   6.032  18.054  1.00  0.00     0.162 HD
ENDROOT
BRANCH   1  21
HETATM   21  P1  UNL     1      17.539   4.409  19.105  1.00  0.00     0.274 P 
HETATM   22  O4  UNL     1      16.807   4.025  20.498  1.00  0.00    -0.645 OA
HETATM   23  O5  UNL     1      16.608   4.876  17.743  1.00  0.00    -0.645 OA
BRANCH  21  24
HETATM   24  O3  UNL     1      17.544   5.889  19.455  1.00  0.00    -0.295 OA
BRANCH  24  25
HETATM   25  C3  UNL     1      17.209   6.484  20.641  1.00  0.00     0.236 C 
BRANCH  25  26
HETATM   26  C2  UNL     1      15.926   7.214  20.567  1.00  0.00     0.288 C 
HETATM   27  O2  UNL     1      15.815   8.232  19.874  1.00  0.00    -0.262 OA
BRANCH  26  28
HETATM   28  O1  UNL     1      14.850   6.742  21.285  1.00  0.00    -0.324 OA
HETATM   29  C1  UNL     1      14.715   7.142  22.641  1.00  0.00     0.213 C 
ENDBRANCH  26  28
ENDBRANCH  25  26
BRANCH  25  30
HETATM   30  C4  UNL     1      18.321   7.470  20.924  1.00  0.00     0.081 C 
BRANCH  30  31
HETATM   31  C5  UNL     1      18.485   7.725  22.346  1.00  0.00    -0.055 A 
HETATM   32  C6  UNL     1      18.790   8.998  22.800  1.00  0.00     0.007 A 
HETATM   33  C7  UNL     1      18.924   9.243  24.164  1.00  0.00     0.001 A 
HETATM   34  C8  UNL     1      18.761   8.244  25.102  1.00  0.00     0.000 A 
HETATM   35  C9  UNL     1      18.457   6.981  24.645  1.00  0.00     0.001 A 
HETATM   36  C10 UNL     1      18.321   6.730  23.275  1.00  0.00     0.007 A 
ENDBRANCH  30  31
ENDBRANCH  25  30
ENDBRANCH  24  25
ENDBRANCH  21  24
ENDBRANCH   1  21
BRANCH  18  37
HETATM   37  O7  UNL     1      21.420   6.062  16.643  1.00  0.00    -0.345 OA
ATOM     38  H7  UNL     1      21.315   6.678  17.359  1.00  0.00     0.219 HD
ENDBRANCH  18  37
BRANCH  17  39
HETATM   39  C26 UNL     1      20.720   2.503  16.181  1.00  0.00     0.032 C 
HETATM   40  C27 UNL     1      21.112   1.791  14.843  1.00  0.00     0.016 C 
HETATM   41  C28 UNL     1      21.310   1.613  17.225  1.00  0.00     0.016 C 
ENDBRANCH  17  39
BRANCH  14  42
HETATM   42  O6  UNL     1      24.256   5.503  15.446  1.00  0.00    -0.349 OA
ATOM     43  H6  UNL     1      23.893   6.309  15.793  1.00  0.00     0.219 HD
ENDBRANCH  14  42
TORSDOF 10
ENDMDL
