MODEL 4
REMARK VINA RESULT: -9.443741309      2.217      8.444
REMARK  10 active torsions:
REMARK  status: ('A' for Active; 'I' for Inactive)
REMARK    1  A    between atoms: O1_2  and  C2_3 
REMARK    2  A    between atoms: C2_3  and  C3_5 
REMARK    3  A    between atoms: C3_5  and  C4_6 
REMARK    4  A    between atoms: C3_5  and  O3_13 
REMARK    5  A    between atoms: C4_6  and  C5_7 
REMARK    6  A    between atoms: O3_13  and  P1_14 
REMARK    7  A    between atoms: P1_14  and  C11_17 
REMARK    8  A    between atoms: C24_30  and  O6_31 
REMARK    9  A    between atoms: C25_35  and  C26_36 
REMARK   10  A    between atoms: C29_39  and  O7_40 
ROOT
HETATM    1  C11 UNL     1      20.224   8.153  21.084  1.00  0.00     0.209 C 
HETATM    2  C12 UNL     1      19.834   8.148  22.574  1.00  0.00     0.077 C 
HETATM    3  C13 UNL     1      20.405   9.349  23.303  1.00  0.00    -0.055 A 
HETATM    4  C14 UNL     1      19.391  10.155  23.821  1.00  0.00     0.008 A 
HETATM    5  C15 UNL     1      19.632  11.358  24.417  1.00  0.00     0.013 A 
HETATM    6  C16 UNL     1      20.980  11.741  24.471  1.00  0.00    -0.025 A 
HETATM    7  C17 UNL     1      21.161  13.009  25.041  1.00  0.00     0.012 A 
HETATM    8  C18 UNL     1      22.412  13.550  25.118  1.00  0.00     0.001 A 
HETATM    9  C19 UNL     1      23.431  12.803  24.620  1.00  0.00     0.008 A 
HETATM   10  C20 UNL     1      23.294  11.542  24.048  1.00  0.00    -0.040 A 
HETATM   11  C21 UNL     1      22.019  10.964  23.965  1.00  0.00    -0.019 A 
HETATM   12  C22 UNL     1      21.714   9.734  23.375  1.00  0.00     0.020 A 
HETATM   13  C23 UNL     1      24.573  10.994  23.478  1.00  0.00     0.123 C 
HETATM   14  C24 UNL     1      24.587  11.117  22.003  1.00  0.00     0.119 C 
HETATM   15  N1  UNL     1      24.456  10.235  20.955  1.00  0.00    -0.340 N 
ATOM     16  H1  UNL     1      25.352  10.038  20.509  1.00  0.00     0.167 HD
HETATM   17  C25 UNL     1      23.371   9.516  20.327  1.00  0.00     0.065 C 
HETATM   18  C29 UNL     1      22.014   9.994  20.557  1.00  0.00     0.160 C 
HETATM   19  N2  UNL     1      20.765   9.445  20.702  1.00  0.00    -0.353 N 
ATOM     20  H2  UNL     1      20.028  10.117  20.488  1.00  0.00     0.162 HD
ENDROOT
BRANCH   1  21
HETATM   21  P1  UNL     1      18.930   7.560  20.089  1.00  0.00     0.274 P 
HETATM   22  O4  UNL     1      19.069   7.526  18.476  1.00  0.00    -0.645 OA
HETATM   23  O5  UNL     1      17.432   7.181  20.833  1.00  0.00    -0.645 OA
BRANCH  21  24
HETATM   24  O3  UNL     1      19.220   6.071  20.198  1.00  0.00    -0.295 OA
BRANCH  24  25
HETATM   25  C3  UNL     1      19.690   5.223  19.232  1.00  0.00     0.236 C 
BRANCH  25  26
HETATM   26  C2  UNL     1      18.680   4.229  18.811  1.00  0.00     0.288 C 
HETATM   27  O2  UNL     1      18.649   3.103  19.322  1.00  0.00    -0.262 OA
BRANCH  26  28
HETATM   28  O1  UNL     1      17.771   4.576  17.838  1.00  0.00    -0.324 OA
HETATM   29  C1  UNL     1      16.392   4.601  18.180  1.00  0.00     0.213 C 
ENDBRANCH  26  28
ENDBRANCH  25  26
BRANCH  25  30
HETATM   30  C4  UNL     1      20.859   4.502  19.865  1.00  0.00     0.081 C 
BRANCH  30  31
HETATM   31  C5  UNL     1      22.089   4.674  19.109  1.00  0.00    -0.055 A 
HETATM   32  C6  UNL     1      22.117   5.496  17.994  1.00  0.00     0.007 A 
HETATM   33  C7  UNL     1      23.302   5.676  17.285  1.00  0.00     0.001 A 
HETATM   34  C8  UNL     1      24.475   5.053  17.659  1.00  0.00     0.000 A 
HETATM   35  C9  UNL     1      24.441   4.237  18.769  1.00  0.00     0.001 A 
HETATM   36  C10 UNL     1      23.252   4.054  19.484  1.00  0.00     0.007 A 
ENDBRANCH  30  31
ENDBRANCH  25  30
ENDBRANCH  24  25
ENDBRANCH  21  24
ENDBRANCH   1  21
BRANCH  18  37
HETATM   37  O7  UNL     1      22.011  11.310  20.641  1.00  0.00    -0.345 OA
ATOM     38  H7  UNL     1      21.171  11.649  20.358  1.00  0.00     0.219 HD
ENDBRANCH  18  37
BRANCH  17  39
HETATM   39  C26 UNL     1      23.625   8.060  20.178  1.00  0.00     0.032 C 
HETATM   40  C27 UNL     1      25.125   7.963  19.740  1.00  0.00     0.016 C 
HETATM   41  C28 UNL     1      23.579   7.232  21.419  1.00  0.00     0.016 C 
ENDBRANCH  17  39
BRANCH  14  42
HETATM   42  O6  UNL     1      24.773  12.363  21.663  1.00  0.00    -0.349 OA
ATOM     43  H6  UNL     1      24.286  12.559  20.872  1.00  0.00     0.219 HD
ENDBRANCH  14  42
TORSDOF 10
ENDMDL
