MODEL 2
REMARK VINA RESULT: -9.527205666      2.481      6.624
REMARK  10 active torsions:
REMARK  status: ('A' for Active; 'I' for Inactive)
REMARK    1  A    between atoms: O1_2  and  C2_3 
REMARK    2  A    between atoms: C2_3  and  C3_5 
REMARK    3  A    between atoms: C3_5  and  C4_6 
REMARK    4  A    between atoms: C3_5  and  O3_13 
REMARK    5  A    between atoms: C4_6  and  C5_7 
REMARK    6  A    between atoms: O3_13  and  P1_14 
REMARK    7  A    between atoms: P1_14  and  C11_17 
REMARK    8  A    between atoms: C24_30  and  O6_31 
REMARK    9  A    between atoms: C25_35  and  C26_36 
REMARK   10  A    between atoms: C29_39  and  O7_40 
ROOT
HETATM    1  C11 UNL     1      19.963   7.719  21.325  1.00  0.00     0.209 C 
HETATM    2  C12 UNL     1      18.626   8.476  21.212  1.00  0.00     0.077 C 
HETATM    3  C13 UNL     1      17.472   7.530  20.941  1.00  0.00    -0.055 A 
HETATM    4  C14 UNL     1      16.535   7.567  21.975  1.00  0.00     0.008 A 
HETATM    5  C15 UNL     1      15.464   6.724  22.035  1.00  0.00     0.013 A 
HETATM    6  C16 UNL     1      15.366   5.803  20.982  1.00  0.00    -0.025 A 
HETATM    7  C17 UNL     1      14.280   4.928  21.126  1.00  0.00     0.012 A 
HETATM    8  C18 UNL     1      14.077   3.937  20.210  1.00  0.00     0.001 A 
HETATM    9  C19 UNL     1      14.968   3.858  19.188  1.00  0.00     0.008 A 
HETATM   10  C20 UNL     1      16.056   4.706  19.009  1.00  0.00    -0.040 A 
HETATM   11  C21 UNL     1      16.280   5.737  19.933  1.00  0.00    -0.019 A 
HETATM   12  C22 UNL     1      17.353   6.632  19.918  1.00  0.00     0.020 A 
HETATM   13  C23 UNL     1      16.941   4.319  17.856  1.00  0.00     0.123 C 
HETATM   14  C24 UNL     1      18.171   3.653  18.337  1.00  0.00     0.119 C 
HETATM   15  N1  UNL     1      19.495   4.016  18.439  1.00  0.00    -0.340 N 
ATOM     16  H1  UNL     1      20.066   3.579  17.715  1.00  0.00     0.167 HD
HETATM   17  C25 UNL     1      20.280   4.859  19.310  1.00  0.00     0.065 C 
HETATM   18  C29 UNL     1      19.719   5.209  20.607  1.00  0.00     0.160 C 
HETATM   19  N2  UNL     1      19.732   6.291  21.451  1.00  0.00    -0.353 N 
ATOM     20  H2  UNL     1      19.526   6.023  22.414  1.00  0.00     0.162 HD
ENDROOT
BRANCH   1  21
HETATM   21  P1  UNL     1      20.987   8.422  22.537  1.00  0.00     0.274 P 
HETATM   22  O4  UNL     1      22.288   7.629  23.089  1.00  0.00    -0.645 OA
HETATM   23  O5  UNL     1      20.499   9.892  23.272  1.00  0.00    -0.645 OA
BRANCH  21  24
HETATM   24  O3  UNL     1      21.841   9.300  21.635  1.00  0.00    -0.295 OA
BRANCH  24  25
HETATM   25  C3  UNL     1      23.203   9.438  21.623  1.00  0.00     0.236 C 
BRANCH  25  26
HETATM   26  C2  UNL     1      23.656  10.647  22.342  1.00  0.00     0.288 C 
HETATM   27  O2  UNL     1      23.892  11.696  21.731  1.00  0.00    -0.262 OA
BRANCH  26  28
HETATM   28  O1  UNL     1      23.814  10.589  23.708  1.00  0.00    -0.324 OA
HETATM   29  C1  UNL     1      23.428  11.717  24.481  1.00  0.00     0.213 C 
ENDBRANCH  26  28
ENDBRANCH  25  26
BRANCH  25  30
HETATM   30  C4  UNL     1      23.582   9.560  20.164  1.00  0.00     0.081 C 
BRANCH  30  31
HETATM   31  C5  UNL     1      24.083   8.310  19.617  1.00  0.00    -0.055 A 
HETATM   32  C6  UNL     1      24.216   8.146  18.248  1.00  0.00     0.007 A 
HETATM   33  C7  UNL     1      24.718   6.955  17.728  1.00  0.00     0.001 A 
HETATM   34  C8  UNL     1      25.097   5.909  18.545  1.00  0.00     0.000 A 
HETATM   35  C9  UNL     1      24.963   6.077  19.905  1.00  0.00     0.001 A 
HETATM   36  C10 UNL     1      24.459   7.272  20.431  1.00  0.00     0.007 A 
ENDBRANCH  30  31
ENDBRANCH  25  30
ENDBRANCH  24  25
ENDBRANCH  21  24
ENDBRANCH   1  21
BRANCH  18  37
HETATM   37  O7  UNL     1      19.017   4.197  21.078  1.00  0.00    -0.345 OA
ATOM     38  H7  UNL     1      18.301   3.999  20.487  1.00  0.00     0.219 HD
ENDBRANCH  18  37
BRANCH  17  39
HETATM   39  C26 UNL     1      21.130   5.839  18.586  1.00  0.00     0.032 C 
HETATM   40  C27 UNL     1      21.782   5.015  17.425  1.00  0.00     0.016 C 
HETATM   41  C28 UNL     1      20.432   6.945  17.867  1.00  0.00     0.016 C 
ENDBRANCH  17  39
BRANCH  14  42
HETATM   42  O6  UNL     1      17.891   2.445  18.745  1.00  0.00    -0.349 OA
ATOM     43  H6  UNL     1      18.492   2.189  19.434  1.00  0.00     0.219 HD
ENDBRANCH  14  42
TORSDOF 10
ENDMDL
