MODEL 10
REMARK VINA RESULT: -9.262395390      2.015      3.194
REMARK  10 active torsions:
REMARK  status: ('A' for Active; 'I' for Inactive)
REMARK    1  A    between atoms: O1_2  and  C2_3 
REMARK    2  A    between atoms: C2_3  and  C3_5 
REMARK    3  A    between atoms: C3_5  and  C4_6 
REMARK    4  A    between atoms: C3_5  and  O3_13 
REMARK    5  A    between atoms: C4_6  and  C5_7 
REMARK    6  A    between atoms: O3_13  and  P1_14 
REMARK    7  A    between atoms: P1_14  and  C11_17 
REMARK    8  A    between atoms: C24_30  and  O6_31 
REMARK    9  A    between atoms: C25_35  and  C26_36 
REMARK   10  A    between atoms: C29_39  and  O7_40 
ROOT
HETATM    1  C11 UNL     1      22.207   9.641  21.937  1.00  0.00     0.209 C 
HETATM    2  C12 UNL     1      23.567   8.928  21.826  1.00  0.00     0.077 C 
HETATM    3  C13 UNL     1      23.527   7.810  20.802  1.00  0.00    -0.055 A 
HETATM    4  C14 UNL     1      24.423   8.048  19.759  1.00  0.00     0.008 A 
HETATM    5  C15 UNL     1      24.495   7.257  18.649  1.00  0.00     0.013 A 
HETATM    6  C16 UNL     1      23.599   6.179  18.622  1.00  0.00    -0.025 A 
HETATM    7  C17 UNL     1      23.680   5.436  17.436  1.00  0.00     0.012 A 
HETATM    8  C18 UNL     1      22.836   4.384  17.231  1.00  0.00     0.001 A 
HETATM    9  C19 UNL     1      21.942   4.118  18.218  1.00  0.00     0.008 A 
HETATM   10  C20 UNL     1      21.830   4.828  19.409  1.00  0.00    -0.040 A 
HETATM   11  C21 UNL     1      22.693   5.909  19.644  1.00  0.00    -0.019 A 
HETATM   12  C22 UNL     1      22.669   6.747  20.762  1.00  0.00     0.020 A 
HETATM   13  C23 UNL     1      20.679   4.387  20.271  1.00  0.00     0.123 C 
HETATM   14  C24 UNL     1      19.551   5.340  20.172  1.00  0.00     0.119 C 
HETATM   15  N1  UNL     1      19.014   6.295  21.004  1.00  0.00    -0.340 N 
ATOM     16  H1  UNL     1      18.140   5.983  21.427  1.00  0.00     0.167 HD
HETATM   17  C25 UNL     1      19.373   7.629  21.429  1.00  0.00     0.065 C 
HETATM   18  C29 UNL     1      20.333   8.367  20.619  1.00  0.00     0.160 C 
HETATM   19  N2  UNL     1      21.344   9.270  20.830  1.00  0.00    -0.353 N 
ATOM     20  H2  UNL     1      21.539   9.823  19.995  1.00  0.00     0.162 HD
ENDROOT
BRANCH   1  21
HETATM   21  P1  UNL     1      22.406  11.347  22.192  1.00  0.00     0.274 P 
HETATM   22  O4  UNL     1      21.412  12.164  23.176  1.00  0.00    -0.645 OA
HETATM   23  O5  UNL     1      23.561  12.188  21.244  1.00  0.00    -0.645 OA
BRANCH  21  24
HETATM   24  O3  UNL     1      23.496  11.295  23.251  1.00  0.00    -0.295 OA
BRANCH  24  25
HETATM   25  C3  UNL     1      23.913  12.291  24.093  1.00  0.00     0.236 C 
BRANCH  25  26
HETATM   26  C2  UNL     1      25.374  12.505  24.038  1.00  0.00     0.288 C 
HETATM   27  O2  UNL     1      26.030  12.148  23.052  1.00  0.00    -0.262 OA
BRANCH  26  28
HETATM   28  O1  UNL     1      25.997  13.111  25.105  1.00  0.00    -0.324 OA
HETATM   29  C1  UNL     1      27.416  13.186  25.105  1.00  0.00     0.213 C 
ENDBRANCH  26  28
ENDBRANCH  25  26
BRANCH  25  30
HETATM   30  C4  UNL     1      23.534  11.827  25.482  1.00  0.00     0.081 C 
BRANCH  30  31
HETATM   31  C5  UNL     1      22.458  12.620  26.054  1.00  0.00    -0.055 A 
HETATM   32  C6  UNL     1      22.425  13.993  25.873  1.00  0.00     0.007 A 
HETATM   33  C7  UNL     1      21.380  14.746  26.404  1.00  0.00     0.001 A 
HETATM   34  C8  UNL     1      20.354  14.163  27.120  1.00  0.00     0.000 A 
HETATM   35  C9  UNL     1      20.392  12.798  27.296  1.00  0.00     0.001 A 
HETATM   36  C10 UNL     1      21.440  12.037  26.764  1.00  0.00     0.007 A 
ENDBRANCH  30  31
ENDBRANCH  25  30
ENDBRANCH  24  25
ENDBRANCH  21  24
ENDBRANCH   1  21
BRANCH  18  37
HETATM   37  O7  UNL     1      20.163   8.073  19.345  1.00  0.00    -0.345 OA
ATOM     38  H7  UNL     1      20.901   7.565  19.030  1.00  0.00     0.219 HD
ENDBRANCH  18  37
BRANCH  17  39
HETATM   39  C26 UNL     1      19.359   7.810  22.903  1.00  0.00     0.032 C 
HETATM   40  C27 UNL     1      18.648   9.187  23.126  1.00  0.00     0.016 C 
HETATM   41  C28 UNL     1      18.523   6.862  23.697  1.00  0.00     0.016 C 
ENDBRANCH  17  39
BRANCH  14  42
HETATM   42  O6  UNL     1      18.956   5.205  19.018  1.00  0.00    -0.349 OA
ATOM     43  H6  UNL     1      18.039   5.439  19.098  1.00  0.00     0.219 HD
ENDBRANCH  14  42
TORSDOF 10
ENDMDL
