MODEL 6
REMARK VINA RESULT: -5.830209393      1.737      1.966
REMARK  2 active torsions:
REMARK  status: ('A' for Active; 'I' for Inactive)
REMARK    1  A    between atoms: N1_1  and  S1_4 
REMARK    2  A    between atoms: S1_4  and  C1_7 
ROOT
HETATM    1  C1  UNL     1      16.022   4.222  15.496  1.00  0.00     0.117 A 
HETATM    2  C2  UNL     1      14.857   4.676  16.078  1.00  0.00     0.028 A 
HETATM    3  C3  UNL     1      14.468   5.998  15.951  1.00  0.00     0.002 A 
HETATM    4  C4  UNL     1      15.217   6.915  15.244  1.00  0.00     0.003 A 
HETATM    5  C5  UNL     1      16.385   6.469  14.658  1.00  0.00     0.044 A 
HETATM    6  C6  UNL     1      16.773   5.136  14.789  1.00  0.00     0.139 A 
HETATM    7  F1  UNL     1      17.921   4.684  14.217  1.00  0.00    -0.204 F 
ENDROOT
BRANCH   1   8
HETATM    8  S1  UNL     1      16.519   2.543  15.655  1.00  0.00     0.259 S 
HETATM    9  O1  UNL     1      17.843   2.506  16.370  1.00  0.00    -0.201 OA
HETATM   10  O2  UNL     1      15.496   1.778  16.443  1.00  0.00    -0.201 OA
BRANCH   8  11
HETATM   11  N1  UNL     1      16.719   1.809  14.100  1.00  0.00    -0.324 N 
ATOM     12  H12 UNL     1      17.610   1.513  13.702  1.00  0.00     0.169 HD
ATOM     13  H11 UNL     1      15.801   1.727  13.663  1.00  0.00     0.169 HD
ENDBRANCH   8  11
ENDBRANCH   1   8
TORSDOF 2
ENDMDL
