MODEL 1
REMARK VINA RESULT: -6.182149958      0.000      0.000
REMARK  2 active torsions:
REMARK  status: ('A' for Active; 'I' for Inactive)
REMARK    1  A    between atoms: N1_1  and  S1_4 
REMARK    2  A    between atoms: S1_4  and  C1_7 
ROOT
HETATM    1  C1  UNL     1      15.873   4.324  15.891  1.00  0.00     0.117 A 
HETATM    2  C2  UNL     1      14.957   5.285  15.513  1.00  0.00     0.028 A 
HETATM    3  C3  UNL     1      15.363   6.436  14.861  1.00  0.00     0.002 A 
HETATM    4  C4  UNL     1      16.688   6.675  14.558  1.00  0.00     0.003 A 
HETATM    5  C5  UNL     1      17.611   5.717  14.932  1.00  0.00     0.044 A 
HETATM    6  C6  UNL     1      17.196   4.560  15.589  1.00  0.00     0.139 A 
HETATM    7  F1  UNL     1      18.095   3.610  15.963  1.00  0.00    -0.204 F 
ENDROOT
BRANCH   1   8
HETATM    8  S1  UNL     1      15.359   2.862  16.720  1.00  0.00     0.259 S 
HETATM    9  O1  UNL     1      15.859   1.675  15.942  1.00  0.00    -0.201 OA
HETATM   10  O2  UNL     1      15.927   2.833  18.109  1.00  0.00    -0.201 OA
BRANCH   8  11
HETATM   11  N1  UNL     1      13.632   2.773  16.802  1.00  0.00    -0.324 N 
ATOM     12  H12 UNL     1      13.062   2.049  16.364  1.00  0.00     0.169 HD
ATOM     13  H11 UNL     1      13.295   3.560  17.356  1.00  0.00     0.169 HD
ENDBRANCH   8  11
ENDBRANCH   1   8
TORSDOF 2
ENDMDL
