MODEL 18
REMARK VINA RESULT: -5.589672617      1.439      1.486
REMARK  2 active torsions:
REMARK  status: ('A' for Active; 'I' for Inactive)
REMARK    1  A    between atoms: N1_1  and  S1_4 
REMARK    2  A    between atoms: S1_4  and  C1_7 
ROOT
HETATM    1  C1  UNL     1      15.427   4.390  15.788  1.00  0.00     0.117 A 
HETATM    2  C2  UNL     1      14.880   5.637  16.005  1.00  0.00     0.028 A 
HETATM    3  C3  UNL     1      15.019   6.646  15.070  1.00  0.00     0.002 A 
HETATM    4  C4  UNL     1      15.703   6.457  13.887  1.00  0.00     0.003 A 
HETATM    5  C5  UNL     1      16.254   5.210  13.661  1.00  0.00     0.044 A 
HETATM    6  C6  UNL     1      16.111   4.197  14.608  1.00  0.00     0.139 A 
HETATM    7  F1  UNL     1      16.650   2.965  14.398  1.00  0.00    -0.204 F 
ENDROOT
BRANCH   1   8
HETATM    8  S1  UNL     1      15.252   3.105  16.976  1.00  0.00     0.259 S 
HETATM    9  O1  UNL     1      14.116   2.216  16.549  1.00  0.00    -0.201 OA
HETATM   10  O2  UNL     1      16.520   2.305  17.057  1.00  0.00    -0.201 OA
BRANCH   8  11
HETATM   11  N1  UNL     1      14.879   3.755  18.537  1.00  0.00    -0.324 N 
ATOM     12  H12 UNL     1      13.947   4.021  18.853  1.00  0.00     0.169 HD
ATOM     13  H11 UNL     1      15.745   3.823  19.072  1.00  0.00     0.169 HD
ENDBRANCH   8  11
ENDBRANCH   1   8
TORSDOF 2
ENDMDL
