MODEL 20
REMARK VINA RESULT: -5.545479278      4.277      4.636
REMARK  2 active torsions:
REMARK  status: ('A' for Active; 'I' for Inactive)
REMARK    1  A    between atoms: N1_1  and  S1_4 
REMARK    2  A    between atoms: S1_4  and  C1_7 
ROOT
HETATM    1  C1  UNL     1      16.960   3.958  12.970  1.00  0.00     0.117 A 
HETATM    2  C2  UNL     1      17.278   5.145  13.597  1.00  0.00     0.028 A 
HETATM    3  C3  UNL     1      17.565   5.179  14.950  1.00  0.00     0.002 A 
HETATM    4  C4  UNL     1      17.548   4.041  15.729  1.00  0.00     0.003 A 
HETATM    5  C5  UNL     1      17.232   2.848  15.109  1.00  0.00     0.044 A 
HETATM    6  C6  UNL     1      16.943   2.820  13.745  1.00  0.00     0.139 A 
HETATM    7  F1  UNL     1      16.629   1.651  13.123  1.00  0.00    -0.204 F 
ENDROOT
BRANCH   1   8
HETATM    8  S1  UNL     1      16.595   3.913  11.251  1.00  0.00     0.259 S 
HETATM    9  O1  UNL     1      17.595   3.012  10.577  1.00  0.00    -0.201 OA
HETATM   10  O2  UNL     1      15.208   3.382  11.035  1.00  0.00    -0.201 OA
BRANCH   8  11
HETATM   11  N1  UNL     1      16.724   5.491  10.551  1.00  0.00    -0.324 N 
ATOM     12  H12 UNL     1      15.987   6.196  10.555  1.00  0.00     0.169 HD
ATOM     13  H11 UNL     1      17.654   5.586  10.141  1.00  0.00     0.169 HD
ENDBRANCH   8  11
ENDBRANCH   1   8
TORSDOF 2
ENDMDL
