MODEL 7
REMARK VINA RESULT: -5.828443960      1.123      1.296
REMARK  2 active torsions:
REMARK  status: ('A' for Active; 'I' for Inactive)
REMARK    1  A    between atoms: N1_1  and  S1_4 
REMARK    2  A    between atoms: S1_4  and  C1_7 
ROOT
HETATM    1  C1  UNL     1      15.811   4.151  15.778  1.00  0.00     0.117 A 
HETATM    2  C2  UNL     1      14.852   5.066  15.395  1.00  0.00     0.028 A 
HETATM    3  C3  UNL     1      15.211   6.275  14.826  1.00  0.00     0.002 A 
HETATM    4  C4  UNL     1      16.530   6.620  14.615  1.00  0.00     0.003 A 
HETATM    5  C5  UNL     1      17.496   5.708  14.995  1.00  0.00     0.044 A 
HETATM    6  C6  UNL     1      17.129   4.492  15.569  1.00  0.00     0.139 A 
HETATM    7  F1  UNL     1      18.071   3.587  15.949  1.00  0.00    -0.204 F 
ENDROOT
BRANCH   1   8
HETATM    8  S1  UNL     1      15.357   2.615  16.503  1.00  0.00     0.259 S 
HETATM    9  O1  UNL     1      13.871   2.435  16.343  1.00  0.00    -0.201 OA
HETATM   10  O2  UNL     1      16.080   1.491  15.818  1.00  0.00    -0.201 OA
BRANCH   8  11
HETATM   11  N1  UNL     1      15.730   2.595  18.193  1.00  0.00    -0.324 N 
ATOM     12  H12 UNL     1      16.643   2.809  18.594  1.00  0.00     0.169 HD
ATOM     13  H11 UNL     1      14.887   2.336  18.706  1.00  0.00     0.169 HD
ENDBRANCH   8  11
ENDBRANCH   1   8
TORSDOF 2
ENDMDL
