MODEL 2
REMARK VINA RESULT: -6.620319090      1.289      1.591
REMARK  2 active torsions:
REMARK  status: ('A' for Active; 'I' for Inactive)
REMARK    1  A    between atoms: N1_1  and  S1_4 
REMARK    2  A    between atoms: S1_4  and  C1_7 
ROOT
HETATM    1  C1  UNL     1      15.795   4.198  15.519  1.00  0.00     0.101 A 
HETATM    2  C2  UNL     1      15.930   4.579  14.198  1.00  0.00     0.027 A 
HETATM    3  C3  UNL     1      15.554   5.831  13.806  1.00  0.00     0.002 A 
HETATM    4  C4  UNL     1      15.031   6.774  14.669  1.00  0.00     0.002 A 
HETATM    5  C5  UNL     1      14.894   6.393  15.995  1.00  0.00     0.025 A 
HETATM    6  C6  UNL     1      15.274   5.127  16.394  1.00  0.00     0.057 A 
HETATM    7 CL1  UNL     1      15.107   4.624  18.085  1.00  0.00    -0.083 Cl
ENDROOT
BRANCH   1   8
HETATM    8  S1  UNL     1      16.261   2.603  16.080  1.00  0.00     0.258 S 
HETATM    9  O1  UNL     1      16.197   1.697  14.856  1.00  0.00    -0.201 OA
HETATM   10  O2  UNL     1      17.695   2.597  16.531  1.00  0.00    -0.201 OA
BRANCH   8  11
HETATM   11  N1  UNL     1      15.183   1.958  17.220  1.00  0.00    -0.324 N 
ATOM     12  H12 UNL     1      14.175   2.114  17.245  1.00  0.00     0.169 HD
ATOM     13  H11 UNL     1      15.739   1.394  17.863  1.00  0.00     0.169 HD
ENDBRANCH   8  11
ENDBRANCH   1   8
TORSDOF 2
ENDMDL
