MODEL 5
REMARK VINA RESULT: -6.191752696      1.823      2.070
REMARK  2 active torsions:
REMARK  status: ('A' for Active; 'I' for Inactive)
REMARK    1  A    between atoms: N1_1  and  S1_4 
REMARK    2  A    between atoms: S1_4  and  C1_7 
ROOT
HETATM    1  C1  UNL     1      15.734   4.310  15.991  1.00  0.00     0.101 A 
HETATM    2  C2  UNL     1      16.558   4.233  14.886  1.00  0.00     0.027 A 
HETATM    3  C3  UNL     1      16.931   5.371  14.231  1.00  0.00     0.002 A 
HETATM    4  C4  UNL     1      16.525   6.635  14.610  1.00  0.00     0.002 A 
HETATM    5  C5  UNL     1      15.697   6.714  15.719  1.00  0.00     0.025 A 
HETATM    6  C6  UNL     1      15.319   5.564  16.384  1.00  0.00     0.057 A 
HETATM    7 CL1  UNL     1      14.262   5.647  17.804  1.00  0.00    -0.083 Cl
ENDROOT
BRANCH   1   8
HETATM    8  S1  UNL     1      15.222   2.883  16.873  1.00  0.00     0.258 S 
HETATM    9  O1  UNL     1      15.772   1.694  16.093  1.00  0.00    -0.201 OA
HETATM   10  O2  UNL     1      15.875   2.832  18.227  1.00  0.00    -0.201 OA
BRANCH   8  11
HETATM   11  N1  UNL     1      13.536   2.698  16.920  1.00  0.00    -0.324 N 
ATOM     12  H12 UNL     1      13.013   1.895  16.570  1.00  0.00     0.169 HD
ATOM     13  H11 UNL     1      13.162   3.538  17.361  1.00  0.00     0.169 HD
ENDBRANCH   8  11
ENDBRANCH   1   8
TORSDOF 2
ENDMDL
