MODEL 1
REMARK VINA RESULT: -6.721225915      0.000      0.000
REMARK  2 active torsions:
REMARK  status: ('A' for Active; 'I' for Inactive)
REMARK    1  A    between atoms: N1_1  and  S1_4 
REMARK    2  A    between atoms: S1_4  and  C1_7 
ROOT
HETATM    1  C1  UNL     1      15.824   4.254  15.620  1.00  0.00     0.101 A 
HETATM    2  C2  UNL     1      15.940   5.045  14.493  1.00  0.00     0.027 A 
HETATM    3  C3  UNL     1      15.480   6.330  14.511  1.00  0.00     0.002 A 
HETATM    4  C4  UNL     1      14.889   6.912  15.614  1.00  0.00     0.002 A 
HETATM    5  C5  UNL     1      14.771   6.120  16.745  1.00  0.00     0.025 A 
HETATM    6  C6  UNL     1      15.235   4.819  16.731  1.00  0.00     0.057 A 
HETATM    7 CL1  UNL     1      15.094   3.793  18.168  1.00  0.00    -0.083 Cl
ENDROOT
BRANCH   1   8
HETATM    8  S1  UNL     1      16.395   2.596  15.657  1.00  0.00     0.258 S 
HETATM    9  O1  UNL     1      17.653   2.610  16.518  1.00  0.00    -0.201 OA
HETATM   10  O2  UNL     1      15.410   1.711  16.368  1.00  0.00    -0.201 OA
BRANCH   8  11
HETATM   11  N1  UNL     1      16.856   2.017  14.130  1.00  0.00    -0.324 N 
ATOM     12  H12 UNL     1      17.268   1.104  13.936  1.00  0.00     0.169 HD
ATOM     13  H11 UNL     1      16.642   2.756  13.460  1.00  0.00     0.169 HD
ENDBRANCH   8  11
ENDBRANCH   1   8
TORSDOF 2
ENDMDL
