MODEL 20
REMARK VINA RESULT: -5.277053347      5.356      5.898
REMARK  2 active torsions:
REMARK  status: ('A' for Active; 'I' for Inactive)
REMARK    1  A    between atoms: N1_1  and  S1_4 
REMARK    2  A    between atoms: S1_4  and  C1_7 
ROOT
HETATM    1  C1  UNL     1      17.817   4.274  11.169  1.00  0.00     0.101 A 
HETATM    2  C2  UNL     1      17.464   5.609  11.148  1.00  0.00     0.027 A 
HETATM    3  C3  UNL     1      18.432   6.571  11.130  1.00  0.00     0.002 A 
HETATM    4  C4  UNL     1      19.784   6.290  11.132  1.00  0.00     0.002 A 
HETATM    5  C5  UNL     1      20.140   4.951  11.153  1.00  0.00     0.025 A 
HETATM    6  C6  UNL     1      19.162   3.976  11.172  1.00  0.00     0.057 A 
HETATM    7 CL1  UNL     1      19.599   2.259  11.199  1.00  0.00    -0.083 Cl
ENDROOT
BRANCH   1   8
HETATM    8  S1  UNL     1      16.617   2.994  11.193  1.00  0.00     0.258 S 
HETATM    9  O1  UNL     1      15.265   3.694  11.262  1.00  0.00    -0.201 OA
HETATM   10  O2  UNL     1      16.629   2.231   9.898  1.00  0.00    -0.201 OA
BRANCH   8  11
HETATM   11  N1  UNL     1      16.725   2.007  12.569  1.00  0.00    -0.324 N 
ATOM     12  H12 UNL     1      15.988   1.400  12.929  1.00  0.00     0.169 HD
ATOM     13  H11 UNL     1      17.659   2.143  12.955  1.00  0.00     0.169 HD
ENDBRANCH   8  11
ENDBRANCH   1   8
TORSDOF 2
ENDMDL
