MODEL 19
REMARK VINA RESULT: -5.288183031      5.624      6.289
REMARK  2 active torsions:
REMARK  status: ('A' for Active; 'I' for Inactive)
REMARK    1  A    between atoms: N1_1  and  S1_4 
REMARK    2  A    between atoms: S1_4  and  C1_7 
ROOT
HETATM    1  C1  UNL     1      18.609   3.211  11.395  1.00  0.00     0.101 A 
HETATM    2  C2  UNL     1      18.914   1.964  10.887  1.00  0.00     0.027 A 
HETATM    3  C3  UNL     1      18.128   0.891  11.193  1.00  0.00     0.002 A 
HETATM    4  C4  UNL     1      17.013   0.970  12.004  1.00  0.00     0.002 A 
HETATM    5  C5  UNL     1      16.706   2.221  12.515  1.00  0.00     0.025 A 
HETATM    6  C6  UNL     1      17.500   3.309  12.206  1.00  0.00     0.057 A 
HETATM    7 CL1  UNL     1      17.122   4.916  12.850  1.00  0.00    -0.083 Cl
ENDROOT
BRANCH   1   8
HETATM    8  S1  UNL     1      19.582   4.626  11.036  1.00  0.00     0.258 S 
HETATM    9  O1  UNL     1      20.738   4.127  10.176  1.00  0.00    -0.201 OA
HETATM   10  O2  UNL     1      18.814   5.596  10.183  1.00  0.00    -0.201 OA
BRANCH   8  11
HETATM   11  N1  UNL     1      20.272   5.327  12.418  1.00  0.00    -0.324 N 
ATOM     12  H12 UNL     1      20.870   4.853  13.095  1.00  0.00     0.169 HD
ATOM     13  H11 UNL     1      19.971   6.302  12.434  1.00  0.00     0.169 HD
ENDBRANCH   8  11
ENDBRANCH   1   8
TORSDOF 2
ENDMDL
