MODEL 10
REMARK VINA RESULT: -5.785117472      1.998      2.490
REMARK  2 active torsions:
REMARK  status: ('A' for Active; 'I' for Inactive)
REMARK    1  A    between atoms: N1_1  and  S1_4 
REMARK    2  A    between atoms: S1_4  and  C1_7 
ROOT
HETATM    1  C1  UNL     1      15.622   3.902  15.845  1.00  0.00     0.101 A 
HETATM    2  C2  UNL     1      16.394   3.557  14.753  1.00  0.00     0.027 A 
HETATM    3  C3  UNL     1      16.811   4.519  13.880  1.00  0.00     0.002 A 
HETATM    4  C4  UNL     1      16.504   5.858  14.018  1.00  0.00     0.002 A 
HETATM    5  C5  UNL     1      15.729   6.206  15.113  1.00  0.00     0.025 A 
HETATM    6  C6  UNL     1      15.305   5.235  15.999  1.00  0.00     0.057 A 
HETATM    7 CL1  UNL     1      14.315   5.662  17.405  1.00  0.00    -0.083 Cl
ENDROOT
BRANCH   1   8
HETATM    8  S1  UNL     1      15.057   2.710  17.001  1.00  0.00     0.258 S 
HETATM    9  O1  UNL     1      13.558   2.575  16.758  1.00  0.00    -0.201 OA
HETATM   10  O2  UNL     1      15.651   1.361  16.705  1.00  0.00    -0.201 OA
BRANCH   8  11
HETATM   11  N1  UNL     1      15.248   3.203  18.613  1.00  0.00    -0.324 N 
ATOM     12  H12 UNL     1      14.990   2.662  19.438  1.00  0.00     0.169 HD
ATOM     13  H11 UNL     1      15.665   4.133  18.587  1.00  0.00     0.169 HD
ENDBRANCH   8  11
ENDBRANCH   1   8
TORSDOF 2
ENDMDL
