MODEL 4
REMARK VINA RESULT: -5.738932697      1.475      1.867
REMARK  2 active torsions:
REMARK  status: ('A' for Active; 'I' for Inactive)
REMARK    1  A    between atoms: N1_1  and  S1_4 
REMARK    2  A    between atoms: S1_4  and  C1_7 
ROOT
HETATM    1  C1  UNL     1      15.877   4.329  16.095  1.00  0.00     0.079 A 
HETATM    2  C2  UNL     1      17.066   4.715  15.510  1.00  0.00     0.025 A 
HETATM    3  C3  UNL     1      17.239   5.977  14.972  1.00  0.00     0.002 A 
HETATM    4  C4  UNL     1      16.220   6.907  14.997  1.00  0.00     0.000 A 
HETATM    5  C5  UNL     1      15.031   6.521  15.582  1.00  0.00     0.002 A 
HETATM    6  C6  UNL     1      14.849   5.255  16.126  1.00  0.00     0.025 A 
ENDROOT
BRANCH   1   7
HETATM    7  S1  UNL     1      15.706   2.716  16.766  1.00  0.00     0.256 S 
HETATM    8  O1  UNL     1      16.044   2.763  18.229  1.00  0.00    -0.201 OA
HETATM    9  O2  UNL     1      14.311   2.198  16.556  1.00  0.00    -0.201 OA
BRANCH   7  10
HETATM   10  N1  UNL     1      16.798   1.613  16.009  1.00  0.00    -0.324 N 
ATOM     11  H12 UNL     1      17.796   1.770  15.873  1.00  0.00     0.169 HD
ATOM     12  H11 UNL     1      16.263   0.789  15.730  1.00  0.00     0.169 HD
ENDBRANCH   7  10
ENDBRANCH   1   7
TORSDOF 2
ENDMDL
