MODEL 3
REMARK VINA RESULT: -5.739352963      1.388      1.966
REMARK  2 active torsions:
REMARK  status: ('A' for Active; 'I' for Inactive)
REMARK    1  A    between atoms: N1_1  and  S1_4 
REMARK    2  A    between atoms: S1_4  and  C1_7 
ROOT
HETATM    1  C1  UNL     1      15.925   4.346  16.133  1.00  0.00     0.079 A 
HETATM    2  C2  UNL     1      14.992   5.343  15.934  1.00  0.00     0.025 A 
HETATM    3  C3  UNL     1      15.321   6.540  15.326  1.00  0.00     0.002 A 
HETATM    4  C4  UNL     1      16.607   6.789  14.892  1.00  0.00     0.000 A 
HETATM    5  C5  UNL     1      17.541   5.792  15.092  1.00  0.00     0.002 A 
HETATM    6  C6  UNL     1      17.219   4.584  15.701  1.00  0.00     0.025 A 
ENDROOT
BRANCH   1   7
HETATM    7  S1  UNL     1      15.459   2.842  16.908  1.00  0.00     0.256 S 
HETATM    8  O1  UNL     1      15.972   1.695  16.084  1.00  0.00    -0.201 OA
HETATM    9  O2  UNL     1      15.997   2.777  18.309  1.00  0.00    -0.201 OA
BRANCH   7  10
HETATM   10  N1  UNL     1      13.740   2.699  16.996  1.00  0.00    -0.324 N 
ATOM     11  H12 UNL     1      13.088   2.950  16.253  1.00  0.00     0.169 HD
ATOM     12  H11 UNL     1      13.507   2.322  17.915  1.00  0.00     0.169 HD
ENDBRANCH   7  10
ENDBRANCH   1   7
TORSDOF 2
ENDMDL
