MODEL 5
REMARK VINA RESULT: -5.732242009      1.255      1.576
REMARK  2 active torsions:
REMARK  status: ('A' for Active; 'I' for Inactive)
REMARK    1  A    between atoms: N1_1  and  S1_4 
REMARK    2  A    between atoms: S1_4  and  C1_7 
ROOT
HETATM    1  C1  UNL     1      16.105   4.246  15.733  1.00  0.00     0.079 A 
HETATM    2  C2  UNL     1      16.822   5.199  15.039  1.00  0.00     0.025 A 
HETATM    3  C3  UNL     1      16.409   6.516  14.967  1.00  0.00     0.002 A 
HETATM    4  C4  UNL     1      15.252   6.934  15.592  1.00  0.00     0.000 A 
HETATM    5  C5  UNL     1      14.533   5.981  16.286  1.00  0.00     0.002 A 
HETATM    6  C6  UNL     1      14.942   4.655  16.363  1.00  0.00     0.025 A 
ENDROOT
BRANCH   1   7
HETATM    7  S1  UNL     1      16.670   2.587  15.796  1.00  0.00     0.256 S 
HETATM    8  O1  UNL     1      17.994   2.554  16.505  1.00  0.00    -0.201 OA
HETATM    9  O2  UNL     1      15.669   1.710  16.494  1.00  0.00    -0.201 OA
BRANCH   7  10
HETATM   10  N1  UNL     1      16.909   1.954  14.207  1.00  0.00    -0.324 N 
ATOM     11  H12 UNL     1      17.755   1.490  13.878  1.00  0.00     0.169 HD
ATOM     12  H11 UNL     1      16.057   2.128  13.672  1.00  0.00     0.169 HD
ENDBRANCH   7  10
ENDBRANCH   1   7
TORSDOF 2
ENDMDL
