MODEL 1
REMARK VINA RESULT: -5.890391719      0.000      0.000
REMARK  2 active torsions:
REMARK  status: ('A' for Active; 'I' for Inactive)
REMARK    1  A    between atoms: N1_1  and  S1_4 
REMARK    2  A    between atoms: S1_4  and  C1_7 
ROOT
HETATM    1  C1  UNL     1      16.008   4.215  15.795  1.00  0.00     0.079 A 
HETATM    2  C2  UNL     1      16.620   4.959  14.807  1.00  0.00     0.025 A 
HETATM    3  C3  UNL     1      16.221   6.249  14.511  1.00  0.00     0.002 A 
HETATM    4  C4  UNL     1      15.184   6.849  15.197  1.00  0.00     0.000 A 
HETATM    5  C5  UNL     1      14.571   6.104  16.184  1.00  0.00     0.002 A 
HETATM    6  C6  UNL     1      14.967   4.807  16.489  1.00  0.00     0.025 A 
ENDROOT
BRANCH   1   7
HETATM    7  S1  UNL     1      16.552   2.582  16.135  1.00  0.00     0.256 S 
HETATM    8  O1  UNL     1      16.352   1.740  14.907  1.00  0.00    -0.201 OA
HETATM    9  O2  UNL     1      17.994   2.579  16.556  1.00  0.00    -0.201 OA
BRANCH   7  10
HETATM   10  N1  UNL     1      15.628   1.877  17.412  1.00  0.00    -0.324 N 
ATOM     11  H12 UNL     1      14.819   2.306  17.862  1.00  0.00     0.169 HD
ATOM     12  H11 UNL     1      16.038   0.967  17.626  1.00  0.00     0.169 HD
ENDBRANCH   7  10
ENDBRANCH   1   7
TORSDOF 2
ENDMDL
