MODEL 2
REMARK VINA RESULT: -5.833835372      0.197      1.498
REMARK  2 active torsions:
REMARK  status: ('A' for Active; 'I' for Inactive)
REMARK    1  A    between atoms: N1_1  and  S1_4 
REMARK    2  A    between atoms: S1_4  and  C1_7 
ROOT
HETATM    1  C1  UNL     1      16.008   4.115  15.675  1.00  0.00     0.079 A 
HETATM    2  C2  UNL     1      15.064   4.777  16.434  1.00  0.00     0.025 A 
HETATM    3  C3  UNL     1      14.629   6.048  16.111  1.00  0.00     0.002 A 
HETATM    4  C4  UNL     1      15.125   6.712  15.007  1.00  0.00     0.000 A 
HETATM    5  C5  UNL     1      16.069   6.051  14.249  1.00  0.00     0.002 A 
HETATM    6  C6  UNL     1      16.513   4.772  14.566  1.00  0.00     0.025 A 
ENDROOT
BRANCH   1   7
HETATM    7  S1  UNL     1      16.529   2.501  16.125  1.00  0.00     0.256 S 
HETATM    8  O1  UNL     1      16.310   1.580  14.958  1.00  0.00    -0.201 OA
HETATM    9  O2  UNL     1      17.974   2.505  16.539  1.00  0.00    -0.201 OA
BRANCH   7  10
HETATM   10  N1  UNL     1      15.602   1.899  17.452  1.00  0.00    -0.324 N 
ATOM     11  H12 UNL     1      14.903   1.158  17.395  1.00  0.00     0.169 HD
ATOM     12  H11 UNL     1      15.880   2.417  18.286  1.00  0.00     0.169 HD
ENDBRANCH   7  10
ENDBRANCH   1   7
TORSDOF 2
ENDMDL
