MODEL 10
REMARK VINA RESULT: -5.854219555      1.754      2.389
REMARK  2 active torsions:
REMARK  status: ('A' for Active; 'I' for Inactive)
REMARK    1  A    between atoms: N1_1  and  S1_4 
REMARK    2  A    between atoms: S1_4  and  C1_7 
ROOT
HETATM    1  C1  UNL     1       4.625  -4.518  14.997  1.00  0.00     0.082 A 
HETATM    2  C2  UNL     1       3.463  -5.262  15.009  1.00  0.00     0.025 A 
HETATM    3  C3  UNL     1       3.471  -6.623  14.740  1.00  0.00     0.005 A 
HETATM    4  C4  UNL     1       4.647  -7.282  14.450  1.00  0.00     0.042 A 
HETATM    5  C5  UNL     1       5.810  -6.538  14.437  1.00  0.00     0.117 A 
HETATM    6  F1  UNL     1       6.967  -7.164  14.156  1.00  0.00    -0.206 F 
HETATM    7  C6  UNL     1       5.799  -5.180  14.706  1.00  0.00     0.067 A 
ENDROOT
BRANCH   1   8
HETATM    8  S1  UNL     1       4.566  -2.807  15.341  1.00  0.00     0.256 S 
HETATM    9  O1  UNL     1       5.833  -2.371  16.014  1.00  0.00    -0.201 OA
HETATM   10  O2  UNL     1       3.425  -2.515  16.276  1.00  0.00    -0.201 OA
BRANCH   8  11
HETATM   11  N1  UNL     1       4.351  -1.911  13.905  1.00  0.00    -0.324 N 
ATOM     12  H12 UNL     1       5.030  -1.248  13.530  1.00  0.00     0.169 HD
ATOM     13  H11 UNL     1       3.448  -2.145  13.492  1.00  0.00     0.169 HD
ENDBRANCH   8  11
ENDBRANCH   1   8
TORSDOF 2
ENDMDL
