MODEL 3
REMARK VINA RESULT: -6.060641406      1.554      2.115
REMARK  2 active torsions:
REMARK  status: ('A' for Active; 'I' for Inactive)
REMARK    1  A    between atoms: N1_1  and  S1_4 
REMARK    2  A    between atoms: S1_4  and  C1_7 
ROOT
HETATM    1  C1  UNL     1       5.327  -4.103  16.018  1.00  0.00     0.082 A 
HETATM    2  C2  UNL     1       3.983  -4.218  15.725  1.00  0.00     0.025 A 
HETATM    3  C3  UNL     1       3.475  -5.330  15.070  1.00  0.00     0.005 A 
HETATM    4  C4  UNL     1       4.302  -6.365  14.685  1.00  0.00     0.042 A 
HETATM    5  C5  UNL     1       5.646  -6.252  14.977  1.00  0.00     0.117 A 
HETATM    6  F1  UNL     1       6.467  -7.252  14.610  1.00  0.00    -0.206 F 
HETATM    7  C6  UNL     1       6.150  -5.140  15.631  1.00  0.00     0.067 A 
ENDROOT
BRANCH   1   8
HETATM    8  S1  UNL     1       5.920  -2.685  16.844  1.00  0.00     0.256 S 
HETATM    9  O1  UNL     1       5.328  -2.601  18.219  1.00  0.00    -0.201 OA
HETATM   10  O2  UNL     1       5.509  -1.449  16.091  1.00  0.00    -0.201 OA
BRANCH   8  11
HETATM   11  N1  UNL     1       7.622  -2.724  16.961  1.00  0.00    -0.324 N 
ATOM     12  H12 UNL     1       8.203  -3.513  16.679  1.00  0.00     0.169 HD
ATOM     13  H11 UNL     1       7.955  -1.842  17.353  1.00  0.00     0.169 HD
ENDBRANCH   8  11
ENDBRANCH   1   8
TORSDOF 2
ENDMDL
