MODEL 5
REMARK VINA RESULT: -6.020392555      1.462      1.839
REMARK  2 active torsions:
REMARK  status: ('A' for Active; 'I' for Inactive)
REMARK    1  A    between atoms: N1_1  and  S1_4 
REMARK    2  A    between atoms: S1_4  and  C1_7 
ROOT
HETATM    1  C1  UNL     1       5.311  -4.346  15.874  1.00  0.00     0.082 A 
HETATM    2  C2  UNL     1       6.365  -5.235  15.820  1.00  0.00     0.025 A 
HETATM    3  C3  UNL     1       6.210  -6.514  15.306  1.00  0.00     0.005 A 
HETATM    4  C4  UNL     1       4.989  -6.943  14.828  1.00  0.00     0.042 A 
HETATM    5  C5  UNL     1       3.934  -6.055  14.882  1.00  0.00     0.117 A 
HETATM    6  F1  UNL     1       2.736  -6.457  14.420  1.00  0.00    -0.206 F 
HETATM    7  C6  UNL     1       4.091  -4.779  15.396  1.00  0.00     0.067 A 
ENDROOT
BRANCH   1   8
HETATM    8  S1  UNL     1       5.553  -2.747  16.530  1.00  0.00     0.256 S 
HETATM    9  O1  UNL     1       6.981  -2.325  16.351  1.00  0.00    -0.201 OA
HETATM   10  O2  UNL     1       5.257  -2.753  18.005  1.00  0.00    -0.201 OA
BRANCH   8  11
HETATM   11  N1  UNL     1       4.529  -1.619  15.762  1.00  0.00    -0.324 N 
ATOM     12  H12 UNL     1       4.845  -0.902  15.108  1.00  0.00     0.169 HD
ATOM     13  H11 UNL     1       3.566  -1.778  16.060  1.00  0.00     0.169 HD
ENDBRANCH   8  11
ENDBRANCH   1   8
TORSDOF 2
ENDMDL
