MODEL 6
REMARK VINA RESULT: -6.018155102      1.660      2.182
REMARK  2 active torsions:
REMARK  status: ('A' for Active; 'I' for Inactive)
REMARK    1  A    between atoms: N1_1  and  S1_4 
REMARK    2  A    between atoms: S1_4  and  C1_7 
ROOT
HETATM    1  C1  UNL     1       5.408  -4.398  15.983  1.00  0.00     0.082 A 
HETATM    2  C2  UNL     1       4.090  -4.504  15.588  1.00  0.00     0.025 A 
HETATM    3  C3  UNL     1       3.666  -5.515  14.738  1.00  0.00     0.005 A 
HETATM    4  C4  UNL     1       4.553  -6.454  14.256  1.00  0.00     0.042 A 
HETATM    5  C5  UNL     1       5.872  -6.349  14.650  1.00  0.00     0.117 A 
HETATM    6  F1  UNL     1       6.752  -7.258  14.190  1.00  0.00    -0.206 F 
HETATM    7  C6  UNL     1       6.292  -5.339  15.498  1.00  0.00     0.067 A 
ENDROOT
BRANCH   1   8
HETATM    8  S1  UNL     1       5.895  -3.108  17.053  1.00  0.00     0.256 S 
HETATM    9  O1  UNL     1       4.807  -2.081  17.155  1.00  0.00    -0.201 OA
HETATM   10  O2  UNL     1       7.119  -2.427  16.504  1.00  0.00    -0.201 OA
BRANCH   8  11
HETATM   11  N1  UNL     1       6.248  -3.716  18.608  1.00  0.00    -0.324 N 
ATOM     12  H12 UNL     1       5.808  -3.390  19.469  1.00  0.00     0.169 HD
ATOM     13  H11 UNL     1       6.958  -4.445  18.534  1.00  0.00     0.169 HD
ENDBRANCH   8  11
ENDBRANCH   1   8
TORSDOF 2
ENDMDL
