MODEL 4
REMARK VINA RESULT: -6.022783762      1.251      1.863
REMARK  2 active torsions:
REMARK  status: ('A' for Active; 'I' for Inactive)
REMARK    1  A    between atoms: N1_1  and  S1_4 
REMARK    2  A    between atoms: S1_4  and  C1_7 
ROOT
HETATM    1  C1  UNL     1       4.757  -4.508  15.183  1.00  0.00     0.082 A 
HETATM    2  C2  UNL     1       3.546  -5.162  15.082  1.00  0.00     0.025 A 
HETATM    3  C3  UNL     1       3.467  -6.483  14.667  1.00  0.00     0.005 A 
HETATM    4  C4  UNL     1       4.604  -7.192  14.337  1.00  0.00     0.042 A 
HETATM    5  C5  UNL     1       5.815  -6.539  14.437  1.00  0.00     0.117 A 
HETATM    6  F1  UNL     1       6.935  -7.214  14.120  1.00  0.00    -0.206 F 
HETATM    7  C6  UNL     1       5.891  -5.220  14.852  1.00  0.00     0.067 A 
ENDROOT
BRANCH   1   8
HETATM    8  S1  UNL     1       4.807  -2.845  15.710  1.00  0.00     0.256 S 
HETATM    9  O1  UNL     1       3.546  -2.497  16.444  1.00  0.00    -0.201 OA
HETATM   10  O2  UNL     1       4.908  -1.936  14.516  1.00  0.00    -0.201 OA
BRANCH   8  11
HETATM   11  N1  UNL     1       6.148  -2.576  16.729  1.00  0.00    -0.324 N 
ATOM     12  H12 UNL     1       6.242  -1.782  17.364  1.00  0.00     0.169 HD
ATOM     13  H11 UNL     1       6.827  -3.326  16.601  1.00  0.00     0.169 HD
ENDBRANCH   8  11
ENDBRANCH   1   8
TORSDOF 2
ENDMDL
