MODEL 1
REMARK VINA RESULT: -6.561907882      0.000      0.000
REMARK  9 active torsions:
REMARK  status: ('A' for Active; 'I' for Inactive)
REMARK    1  A    between atoms: O1_2  and  C2_3 
REMARK    2  A    between atoms: C3_4  and  O2_5 
REMARK    3  A    between atoms: C6_9  and  O3_10 
REMARK    4  A    between atoms: C12_17  and  O4_18 
REMARK    5  A    between atoms: C14_20  and  O5_21 
REMARK    6  A    between atoms: C20_28  and  O6_29 
REMARK    7  A    between atoms: O6_29  and  C21_30 
REMARK    8  A    between atoms: C22_33  and  O8_34 
REMARK    9  A    between atoms: C29_41  and  O9_42 
ROOT
HETATM    1  C2  UNL     1     -27.529  30.980  -4.505  1.00  0.00     0.110 A 
HETATM    2  C3  UNL     1     -28.760  30.658  -4.992  1.00  0.00     0.101 A 
HETATM    3  C4  UNL     1     -29.440  31.697  -5.530  1.00  0.00     0.071 A 
HETATM    4  C5  UNL     1     -28.951  33.033  -5.603  1.00  0.00     0.067 A 
HETATM    5  C6  UNL     1     -27.702  33.320  -5.097  1.00  0.00     0.101 A 
HETATM    6  C7  UNL     1     -26.959  32.267  -4.529  1.00  0.00     0.014 A 
HETATM    7  C8  UNL     1     -25.588  32.215  -3.960  1.00  0.00     0.049 C 
HETATM    8  C9  UNL     1     -25.270  33.048  -2.743  1.00  0.00    -0.012 C 
HETATM    9  C10 UNL     1     -24.711  32.242  -1.588  1.00  0.00     0.010 C 
HETATM   10  C11 UNL     1     -24.190  34.051  -3.178  1.00  0.00     0.039 C 
HETATM   11  C12 UNL     1     -24.064  35.235  -2.277  1.00  0.00     0.150 C 
HETATM   12  C14 UNL     1     -24.032  36.550  -3.053  1.00  0.00     0.150 C 
HETATM   13  C15 UNL     1     -22.699  36.923  -3.581  1.00  0.00     0.013 C 
HETATM   14  C16 UNL     1     -21.559  36.404  -2.730  1.00  0.00     0.012 C 
HETATM   15  C17 UNL     1     -22.427  36.530  -5.005  1.00  0.00     0.013 C 
HETATM   16  C18 UNL     1     -23.092  37.478  -5.980  1.00  0.00     0.014 C 
HETATM   17  C19 UNL     1     -22.202  38.704  -6.124  1.00  0.00     0.012 C 
HETATM   18  C20 UNL     1     -23.230  36.849  -7.337  1.00  0.00     0.166 C 
HETATM   19  C22 UNL     1     -24.490  37.312  -8.043  1.00  0.00     0.150 C 
HETATM   20  C24 UNL     1     -25.674  36.573  -7.480  1.00  0.00     0.034 C 
HETATM   21  C25 UNL     1     -26.533  36.013  -8.587  1.00  0.00     0.003 C 
HETATM   22  C26 UNL     1     -27.993  35.985  -8.265  1.00  0.00     0.009 C 
HETATM   23  C27 UNL     1     -28.579  34.604  -8.119  1.00  0.00     0.030 C 
HETATM   24  C28 UNL     1     -28.893  34.113  -9.536  1.00  0.00     0.014 C 
HETATM   25  C29 UNL     1     -29.897  34.739  -7.387  1.00  0.00     0.221 C 
HETATM   26  N2  UNL     1     -29.974  33.789  -6.263  1.00  0.00    -0.361 N 
ATOM     27  H2  UNL     1     -30.914  33.646  -5.892  1.00  0.00     0.162 HD
ENDROOT
BRANCH  18  28
HETATM   28  O6  UNL     1     -22.124  37.227  -8.120  1.00  0.00    -0.298 OA
BRANCH  28  29
HETATM   29  C21 UNL     1     -21.098  36.346  -8.427  1.00  0.00     0.373 C 
HETATM   30  N1  UNL     1     -21.373  34.956  -8.367  1.00  0.00    -0.032 NA
HETATM   31  O7  UNL     1     -19.984  36.834  -8.742  1.00  0.00    -0.242 OA
ENDBRANCH  28  29
ENDBRANCH  18  28
BRANCH  19  32
HETATM   32  O8  UNL     1     -24.420  37.204  -9.410  1.00  0.00    -0.388 OA
HETATM   33  C23 UNL     1     -24.485  38.437 -10.055  1.00  0.00     0.202 C 
ENDBRANCH  19  32
BRANCH  12  34
HETATM   34  O5  UNL     1     -24.959  36.478  -4.052  1.00  0.00    -0.393 OA
ATOM     35  H5  UNL     1     -25.752  36.906  -3.752  1.00  0.00     0.210 HD
ENDBRANCH  12  34
BRANCH  11  36
HETATM   36  O4  UNL     1     -25.197  35.320  -1.473  1.00  0.00    -0.388 OA
HETATM   37  C13 UNL     1     -24.968  36.041  -0.302  1.00  0.00     0.202 C 
ENDBRANCH  11  36
BRANCH  25  38
HETATM   38  O9  UNL     1     -29.926  35.995  -6.788  1.00  0.00    -0.377 OA
ATOM     39  H9  UNL     1     -30.816  36.160  -6.502  1.00  0.00     0.212 HD
ENDBRANCH  25  38
BRANCH   5  40
HETATM   40  O3  UNL     1     -27.124  34.634  -5.109  1.00  0.00    -0.358 OA
ATOM     41  H3  UNL     1     -26.446  34.914  -4.506  1.00  0.00     0.217 HD
ENDBRANCH   5  40
BRANCH   1  42
HETATM   42  O1  UNL     1     -26.792  29.892  -3.932  1.00  0.00    -0.352 OA
HETATM   43  C1  UNL     1     -27.077  29.672  -2.555  1.00  0.00     0.210 C 
ENDBRANCH   1  42
BRANCH   2  44
HETATM   44  O2  UNL     1     -29.267  29.361  -4.936  1.00  0.00    -0.358 OA
ATOM     45  H2  UNL     1     -30.199  29.180  -4.954  1.00  0.00     0.217 HD
ENDBRANCH   2  44
TORSDOF 9
ENDMDL
