MODEL 2
REMARK VINA RESULT: -6.561321041      1.393      1.692
REMARK  9 active torsions:
REMARK  status: ('A' for Active; 'I' for Inactive)
REMARK    1  A    between atoms: O1_2  and  C2_3 
REMARK    2  A    between atoms: C3_4  and  O2_5 
REMARK    3  A    between atoms: C6_9  and  O3_10 
REMARK    4  A    between atoms: C12_17  and  O4_18 
REMARK    5  A    between atoms: C14_20  and  O5_21 
REMARK    6  A    between atoms: C20_28  and  O6_29 
REMARK    7  A    between atoms: O6_29  and  C21_30 
REMARK    8  A    between atoms: C22_33  and  O8_34 
REMARK    9  A    between atoms: C29_41  and  O9_42 
ROOT
HETATM    1  C2  UNL     1     -28.588  30.673  -5.091  1.00  0.00     0.110 A 
HETATM    2  C3  UNL     1     -29.822  30.695  -5.666  1.00  0.00     0.101 A 
HETATM    3  C4  UNL     1     -30.335  31.934  -5.848  1.00  0.00     0.071 A 
HETATM    4  C5  UNL     1     -29.676  33.143  -5.484  1.00  0.00     0.067 A 
HETATM    5  C6  UNL     1     -28.429  33.080  -4.901  1.00  0.00     0.101 A 
HETATM    6  C7  UNL     1     -27.857  31.809  -4.695  1.00  0.00     0.014 A 
HETATM    7  C8  UNL     1     -26.537  31.391  -4.161  1.00  0.00     0.049 C 
HETATM    8  C9  UNL     1     -26.179  31.743  -2.738  1.00  0.00    -0.012 C 
HETATM    9  C10 UNL     1     -25.789  30.544  -1.898  1.00  0.00     0.010 C 
HETATM   10  C11 UNL     1     -24.958  32.673  -2.817  1.00  0.00     0.039 C 
HETATM   11  C12 UNL     1     -24.730  33.481  -1.583  1.00  0.00     0.150 C 
HETATM   12  C14 UNL     1     -24.489  34.957  -1.895  1.00  0.00     0.150 C 
HETATM   13  C15 UNL     1     -23.093  35.290  -2.263  1.00  0.00     0.013 C 
HETATM   14  C16 UNL     1     -22.076  34.376  -1.613  1.00  0.00     0.012 C 
HETATM   15  C17 UNL     1     -22.799  35.336  -3.735  1.00  0.00     0.013 C 
HETATM   16  C18 UNL     1     -23.285  36.626  -4.360  1.00  0.00     0.014 C 
HETATM   17  C19 UNL     1     -22.239  37.699  -4.094  1.00  0.00     0.012 C 
HETATM   18  C20 UNL     1     -23.431  36.485  -5.849  1.00  0.00     0.166 C 
HETATM   19  C22 UNL     1     -24.582  37.318  -6.379  1.00  0.00     0.150 C 
HETATM   20  C24 UNL     1     -25.879  36.609  -6.094  1.00  0.00     0.034 C 
HETATM   21  C25 UNL     1     -26.743  36.553  -7.330  1.00  0.00     0.003 C 
HETATM   22  C26 UNL     1     -28.210  36.625  -7.047  1.00  0.00     0.009 C 
HETATM   23  C27 UNL     1     -28.974  35.364  -7.358  1.00  0.00     0.030 C 
HETATM   24  C28 UNL     1     -29.273  35.396  -8.860  1.00  0.00     0.014 C 
HETATM   25  C29 UNL     1     -30.301  35.440  -6.634  1.00  0.00     0.221 C 
HETATM   26  N2  UNL     1     -30.558  34.203  -5.875  1.00  0.00    -0.361 N 
ATOM     27  H2  UNL     1     -31.526  34.081  -5.578  1.00  0.00     0.162 HD
ENDROOT
BRANCH  18  28
HETATM   28  O6  UNL     1     -22.246  36.935  -6.458  1.00  0.00    -0.298 OA
BRANCH  28  29
HETATM   29  C21 UNL     1     -21.381  36.077  -7.121  1.00  0.00     0.373 C 
HETATM   30  N1  UNL     1     -21.812  35.515  -8.349  1.00  0.00    -0.032 NA
HETATM   31  O7  UNL     1     -20.265  35.850  -6.591  1.00  0.00    -0.242 OA
ENDBRANCH  28  29
ENDBRANCH  18  28
BRANCH  19  32
HETATM   32  O8  UNL     1     -24.455  37.640  -7.708  1.00  0.00    -0.388 OA
HETATM   33  C23 UNL     1     -24.324  39.010  -7.922  1.00  0.00     0.202 C 
ENDBRANCH  19  32
BRANCH  12  34
HETATM   34  O5  UNL     1     -25.363  35.333  -2.872  1.00  0.00    -0.393 OA
ATOM     35  H5  UNL     1     -24.931  35.972  -3.427  1.00  0.00     0.210 HD
ENDBRANCH  12  34
BRANCH  11  36
HETATM   36  O4  UNL     1     -25.883  33.462  -0.805  1.00  0.00    -0.388 OA
HETATM   37  C13 UNL     1     -25.822  34.357   0.262  1.00  0.00     0.202 C 
ENDBRANCH  11  36
BRANCH  25  38
HETATM   38  O9  UNL     1     -30.200  36.433  -5.663  1.00  0.00    -0.377 OA
ATOM     39  H9  UNL     1     -30.082  37.264  -6.108  1.00  0.00     0.212 HD
ENDBRANCH  25  38
BRANCH   5  40
HETATM   40  O3  UNL     1     -27.688  34.237  -4.485  1.00  0.00    -0.358 OA
ATOM     41  H3  UNL     1     -26.780  34.391  -4.719  1.00  0.00     0.217 HD
ENDBRANCH   5  40
BRANCH   1  42
HETATM   42  O1  UNL     1     -28.026  29.368  -4.891  1.00  0.00    -0.352 OA
HETATM   43  C1  UNL     1     -27.418  28.825  -6.057  1.00  0.00     0.210 C 
ENDBRANCH   1  42
BRANCH   2  44
HETATM   44  O2  UNL     1     -30.493  29.530  -6.034  1.00  0.00    -0.358 OA
ATOM     45  H2  UNL     1     -31.435  29.440  -5.954  1.00  0.00     0.217 HD
ENDBRANCH   2  44
TORSDOF 9
ENDMDL
