MODEL 3
REMARK VINA RESULT: -6.304142809      2.142      8.350
REMARK  9 active torsions:
REMARK  status: ('A' for Active; 'I' for Inactive)
REMARK    1  A    between atoms: O1_2  and  C2_3 
REMARK    2  A    between atoms: C3_4  and  O2_5 
REMARK    3  A    between atoms: C6_9  and  O3_10 
REMARK    4  A    between atoms: C12_17  and  O4_18 
REMARK    5  A    between atoms: C14_20  and  O5_21 
REMARK    6  A    between atoms: C20_28  and  O6_29 
REMARK    7  A    between atoms: O6_29  and  C21_30 
REMARK    8  A    between atoms: C22_33  and  O8_34 
REMARK    9  A    between atoms: C29_41  and  O9_42 
ROOT
HETATM    1  C2  UNL     1     -23.539  37.403  -6.800  1.00  0.00     0.110 A 
HETATM    2  C3  UNL     1     -22.703  38.063  -5.951  1.00  0.00     0.101 A 
HETATM    3  C4  UNL     1     -22.965  37.865  -4.638  1.00  0.00     0.071 A 
HETATM    4  C5  UNL     1     -24.016  37.044  -4.138  1.00  0.00     0.067 A 
HETATM    5  C6  UNL     1     -24.844  36.395  -5.028  1.00  0.00     0.101 A 
HETATM    6  C7  UNL     1     -24.605  36.572  -6.405  1.00  0.00     0.014 A 
HETATM    7  C8  UNL     1     -25.251  35.986  -7.607  1.00  0.00     0.049 C 
HETATM    8  C9  UNL     1     -26.711  36.266  -7.862  1.00  0.00    -0.012 C 
HETATM    9  C10 UNL     1     -26.983  36.865  -9.226  1.00  0.00     0.010 C 
HETATM   10  C11 UNL     1     -27.428  34.908  -7.796  1.00  0.00     0.039 C 
HETATM   11  C12 UNL     1     -28.901  35.010  -7.573  1.00  0.00     0.150 C 
HETATM   12  C14 UNL     1     -29.383  34.071  -6.469  1.00  0.00     0.150 C 
HETATM   13  C15 UNL     1     -29.636  32.679  -6.908  1.00  0.00     0.013 C 
HETATM   14  C16 UNL     1     -30.064  32.585  -8.358  1.00  0.00     0.012 C 
HETATM   15  C17 UNL     1     -28.508  31.712  -6.696  1.00  0.00     0.013 C 
HETATM   16  C18 UNL     1     -28.429  31.255  -5.255  1.00  0.00     0.014 C 
HETATM   17  C19 UNL     1     -29.449  30.144  -5.058  1.00  0.00     0.012 C 
HETATM   18  C20 UNL     1     -27.072  30.694  -4.939  1.00  0.00     0.166 C 
HETATM   19  C22 UNL     1     -26.668  30.983  -3.505  1.00  0.00     0.150 C 
HETATM   20  C24 UNL     1     -26.202  32.410  -3.400  1.00  0.00     0.034 C 
HETATM   21  C25 UNL     1     -24.884  32.493  -2.669  1.00  0.00     0.003 C 
HETATM   22  C26 UNL     1     -24.724  33.732  -1.847  1.00  0.00     0.009 C 
HETATM   23  C27 UNL     1     -23.663  34.681  -2.341  1.00  0.00     0.030 C 
HETATM   24  C28 UNL     1     -22.328  34.161  -1.799  1.00  0.00     0.014 C 
HETATM   25  C29 UNL     1     -23.915  36.028  -1.700  1.00  0.00     0.221 C 
HETATM   26  N2  UNL     1     -23.913  37.102  -2.710  1.00  0.00    -0.361 N 
ATOM     27  H2  UNL     1     -23.821  38.043  -2.328  1.00  0.00     0.162 HD
ENDROOT
BRANCH  18  28
HETATM   28  O6  UNL     1     -27.113  29.299  -5.111  1.00  0.00    -0.298 OA
BRANCH  28  29
HETATM   29  C21 UNL     1     -26.309  28.641  -6.028  1.00  0.00     0.373 C 
HETATM   30  N1  UNL     1     -25.034  28.195  -5.597  1.00  0.00    -0.032 NA
HETATM   31  O7  UNL     1     -26.760  28.479  -7.189  1.00  0.00    -0.242 OA
ENDBRANCH  28  29
ENDBRANCH  18  28
BRANCH  19  32
HETATM   32  O8  UNL     1     -25.736  30.102  -3.014  1.00  0.00    -0.388 OA
HETATM   33  C23 UNL     1     -26.262  29.238  -2.056  1.00  0.00     0.202 C 
ENDBRANCH  19  32
BRANCH  12  34
HETATM   34  O5  UNL     1     -28.477  34.112  -5.449  1.00  0.00    -0.393 OA
ATOM     35  H5  UNL     1     -28.750  33.491  -4.784  1.00  0.00     0.210 HD
ENDBRANCH  12  34
BRANCH  11  36
HETATM   36  O4  UNL     1     -29.206  36.288  -7.117  1.00  0.00    -0.388 OA
HETATM   37  C13 UNL     1     -30.580  36.513  -7.037  1.00  0.00     0.202 C 
ENDBRANCH  11  36
BRANCH  25  38
HETATM   38  O9  UNL     1     -25.214  36.024  -1.196  1.00  0.00    -0.377 OA
ATOM     39  H9  UNL     1     -25.274  36.709  -0.541  1.00  0.00     0.212 HD
ENDBRANCH  25  38
BRANCH   5  40
HETATM   40  O3  UNL     1     -25.939  35.558  -4.628  1.00  0.00    -0.358 OA
ATOM     41  H3  UNL     1     -26.019  34.645  -4.876  1.00  0.00     0.217 HD
ENDBRANCH   5  40
BRANCH   1  42
HETATM   42  O1  UNL     1     -23.276  37.598  -8.196  1.00  0.00    -0.352 OA
HETATM   43  C1  UNL     1     -22.145  36.876  -8.670  1.00  0.00     0.210 C 
ENDBRANCH   1  42
BRANCH   2  44
HETATM   44  O2  UNL     1     -21.665  38.872  -6.408  1.00  0.00    -0.358 OA
ATOM     45  H2  UNL     1     -20.816  38.900  -5.981  1.00  0.00     0.217 HD
ENDBRANCH   2  44
TORSDOF 9
ENDMDL
