MODEL 4
REMARK VINA RESULT: -7.762374999      2.016      4.342
REMARK  2 active torsions:
REMARK  status: ('A' for Active; 'I' for Inactive)
REMARK    1  A    between atoms: C14_17  and  O3_18 
REMARK    2  A    between atoms: C16_21  and  O4_22 
ROOT
HETATM    1  C1  UNL     1       4.506  54.433  -1.160  1.00  0.00     0.040 C 
HETATM    2  C2  UNL     1       4.100  54.153  -2.586  1.00  0.00     0.130 C 
HETATM    3  C3  UNL     1       4.171  55.398  -3.387  1.00  0.00     0.067 C 
HETATM    4  C4  UNL     1       3.019  55.695  -4.277  1.00  0.00     0.157 A 
HETATM    5  O1  UNL     1       3.288  56.943  -5.038  1.00  0.00    -0.371 OA
HETATM    6  C5  UNL     1       3.144  55.686  -5.677  1.00  0.00     0.174 A 
HETATM    7  C6  UNL     1       1.851  55.437  -6.346  1.00  0.00     0.007 C 
HETATM    8  C7  UNL     1       1.593  54.680  -7.388  1.00  0.00    -0.001 C 
HETATM    9  C8  UNL     1       2.479  53.867  -8.187  1.00  0.00     0.003 C 
HETATM   10  C9  UNL     1       3.081  52.734  -7.915  1.00  0.00     0.050 C 
HETATM   11  C10 UNL     1       3.001  51.977  -6.672  1.00  0.00     0.153 C 
HETATM   12  O2  UNL     1       2.453  50.808  -6.697  1.00  0.00    -0.293 OA
HETATM   13  C11 UNL     1       3.485  52.390  -5.348  1.00  0.00     0.124 C 
HETATM   14  C12 UNL     1       3.830  51.212  -4.505  1.00  0.00    -0.007 A 
HETATM   15  C13 UNL     1       4.574  50.222  -5.094  1.00  0.00     0.075 A 
HETATM   16 CL1  UNL     1       5.170  50.302  -6.734  1.00  0.00    -0.081 Cl
HETATM   17  C14 UNL     1       4.916  49.084  -4.369  1.00  0.00     0.090 A 
HETATM   18  C15 UNL     1       4.494  48.988  -3.077  1.00  0.00     0.076 A 
HETATM   19  C16 UNL     1       3.743  49.994  -2.489  1.00  0.00     0.085 A 
HETATM   20  C17 UNL     1       3.395  51.130  -3.188  1.00  0.00     0.081 A 
HETATM   21  C18 UNL     1       2.635  52.159  -2.510  1.00  0.00     0.297 C 
HETATM   22  O5  UNL     1       1.728  51.759  -1.708  1.00  0.00    -0.259 OA
HETATM   23  O6  UNL     1       2.845  53.540  -2.691  1.00  0.00    -0.312 OA
ENDROOT
BRANCH  17  24
HETATM   24  O3  UNL     1       5.679  48.062  -4.968  1.00  0.00    -0.359 OA
ATOM     25  H3  UNL     1       5.973  47.319  -4.453  1.00  0.00     0.217 HD
ENDBRANCH  17  24
BRANCH  19  26
HETATM   26  O4  UNL     1       3.351  49.811  -1.154  1.00  0.00    -0.360 OA
ATOM     27  H4  UNL     1       3.553  50.507  -0.539  1.00  0.00     0.217 HD
ENDBRANCH  19  26
TORSDOF 2
ENDMDL
