MODEL 3
REMARK VINA RESULT: -8.116453301      2.103      6.205
REMARK  2 active torsions:
REMARK  status: ('A' for Active; 'I' for Inactive)
REMARK    1  A    between atoms: C14_17  and  O3_18 
REMARK    2  A    between atoms: C16_21  and  O4_22 
ROOT
HETATM    1  C1  UNL     1       2.697  55.217  -0.958  1.00  0.00     0.040 C 
HETATM    2  C2  UNL     1       2.764  54.109  -1.982  1.00  0.00     0.130 C 
HETATM    3  C3  UNL     1       2.539  52.799  -1.325  1.00  0.00     0.067 C 
HETATM    4  C4  UNL     1       3.466  51.696  -1.687  1.00  0.00     0.157 A 
HETATM    5  O1  UNL     1       3.058  50.454  -0.981  1.00  0.00    -0.371 OA
HETATM    6  C5  UNL     1       3.028  50.563  -2.394  1.00  0.00     0.174 A 
HETATM    7  C6  UNL     1       4.130  49.906  -3.125  1.00  0.00     0.007 C 
HETATM    8  C7  UNL     1       4.130  49.396  -4.335  1.00  0.00    -0.001 C 
HETATM    9  C8  UNL     1       3.070  49.325  -5.312  1.00  0.00     0.003 C 
HETATM   10  C9  UNL     1       2.521  50.259  -6.051  1.00  0.00     0.050 C 
HETATM   11  C10 UNL     1       2.864  51.676  -6.069  1.00  0.00     0.153 C 
HETATM   12  O2  UNL     1       3.368  52.175  -7.147  1.00  0.00    -0.293 OA
HETATM   13  C11 UNL     1       2.701  52.642  -4.974  1.00  0.00     0.124 C 
HETATM   14  C12 UNL     1       2.532  54.027  -5.495  1.00  0.00    -0.007 A 
HETATM   15  C13 UNL     1       1.653  54.197  -6.534  1.00  0.00     0.075 A 
HETATM   16 CL1  UNL     1       0.704  52.904  -7.223  1.00  0.00    -0.081 Cl
HETATM   17  C14 UNL     1       1.461  55.463  -7.081  1.00  0.00     0.090 A 
HETATM   18  C15 UNL     1       2.162  56.507  -6.559  1.00  0.00     0.076 A 
HETATM   19  C16 UNL     1       3.046  56.327  -5.508  1.00  0.00     0.085 A 
HETATM   20  C17 UNL     1       3.252  55.083  -4.950  1.00  0.00     0.081 A 
HETATM   21  C18 UNL     1       4.166  54.962  -3.834  1.00  0.00     0.297 C 
HETATM   22  O5  UNL     1       5.222  55.675  -3.888  1.00  0.00    -0.259 OA
HETATM   23  O6  UNL     1       3.949  54.119  -2.726  1.00  0.00    -0.312 OA
ENDROOT
BRANCH  17  24
HETATM   24  O3  UNL     1       0.561  55.646  -8.150  1.00  0.00    -0.359 OA
ATOM     25  H3  UNL     1       0.643  55.123  -8.940  1.00  0.00     0.217 HD
ENDBRANCH  17  24
BRANCH  19  26
HETATM   26  O4  UNL     1       3.726  57.459  -5.033  1.00  0.00    -0.360 OA
ATOM     27  H4  UNL     1       4.655  57.370  -4.855  1.00  0.00     0.217 HD
ENDBRANCH  19  26
TORSDOF 2
ENDMDL
