MODEL 1
REMARK VINA RESULT: -8.304020344      0.000      0.000
REMARK  2 active torsions:
REMARK  status: ('A' for Active; 'I' for Inactive)
REMARK    1  A    between atoms: C14_17  and  O3_18 
REMARK    2  A    between atoms: C16_21  and  O4_22 
ROOT
HETATM    1  C1  UNL     1       3.227  52.620  -8.229  1.00  0.00     0.040 C 
HETATM    2  C2  UNL     1       3.155  53.070  -6.789  1.00  0.00     0.130 C 
HETATM    3  C3  UNL     1       2.626  54.453  -6.717  1.00  0.00     0.067 C 
HETATM    4  C4  UNL     1       3.343  55.404  -5.828  1.00  0.00     0.157 A 
HETATM    5  O1  UNL     1       2.644  56.715  -5.839  1.00  0.00    -0.371 OA
HETATM    6  C5  UNL     1       2.746  55.924  -4.667  1.00  0.00     0.174 A 
HETATM    7  C6  UNL     1       3.751  56.353  -3.673  1.00  0.00     0.007 C 
HETATM    8  C7  UNL     1       3.746  56.191  -2.370  1.00  0.00    -0.001 C 
HETATM    9  C8  UNL     1       2.772  55.550  -1.519  1.00  0.00     0.003 C 
HETATM   10  C9  UNL     1       2.478  54.283  -1.356  1.00  0.00     0.050 C 
HETATM   11  C10 UNL     1       3.093  53.148  -2.032  1.00  0.00     0.153 C 
HETATM   12  O2  UNL     1       3.769  52.303  -1.328  1.00  0.00    -0.293 OA
HETATM   13  C11 UNL     1       3.039  52.832  -3.467  1.00  0.00     0.124 C 
HETATM   14  C12 UNL     1       3.186  51.370  -3.705  1.00  0.00    -0.007 A 
HETATM   15  C13 UNL     1       2.443  50.532  -2.915  1.00  0.00     0.075 A 
HETATM   16 CL1  UNL     1       1.314  51.089  -1.704  1.00  0.00    -0.081 Cl
HETATM   17  C14 UNL     1       2.547  49.152  -3.072  1.00  0.00     0.090 A 
HETATM   18  C15 UNL     1       3.397  48.672  -4.021  1.00  0.00     0.076 A 
HETATM   19  C16 UNL     1       4.143  49.525  -4.818  1.00  0.00     0.085 A 
HETATM   20  C17 UNL     1       4.055  50.894  -4.680  1.00  0.00     0.081 A 
HETATM   21  C18 UNL     1       4.838  51.735  -5.561  1.00  0.00     0.297 C 
HETATM   22  O5  UNL     1       6.015  51.327  -5.836  1.00  0.00    -0.259 OA
HETATM   23  O6  UNL     1       4.374  52.946  -6.112  1.00  0.00    -0.312 OA
ENDROOT
BRANCH  17  24
HETATM   24  O3  UNL     1       1.787  48.285  -2.262  1.00  0.00    -0.359 OA
ATOM     25  H3  UNL     1       2.119  47.423  -2.040  1.00  0.00     0.217 HD
ENDBRANCH  17  24
BRANCH  19  26
HETATM   26  O4  UNL     1       4.994  48.942  -5.770  1.00  0.00    -0.360 OA
ATOM     27  H4  UNL     1       4.992  49.313  -6.644  1.00  0.00     0.217 HD
ENDBRANCH  19  26
TORSDOF 2
ENDMDL
