MODEL 3
REMARK VINA RESULT: -7.999778186      2.170      3.865
REMARK  7 active torsions:
REMARK  status: ('A' for Active; 'I' for Inactive)
REMARK    1  A    between atoms: O1_1  and  C1_3 
REMARK    2  A    between atoms: C2_4  and  O2_5 
REMARK    3  A    between atoms: C3_7  and  O3_8 
REMARK    4  A    between atoms: C4_10  and  O4_11 
REMARK    5  A    between atoms: C5_14  and  C6_15 
REMARK    6  A    between atoms: C6_15  and  O6_16 
REMARK    7  A    between atoms: O6_16  and  P1_17 
ROOT
HETATM    1  C1  UNL     1      12.926  -9.513  12.732  1.00  0.00     0.180 C 
HETATM    2  C2  UNL     1      11.450  -9.413  13.064  1.00  0.00     0.183 C 
HETATM    3  C3  UNL     1      10.788  -8.475  12.101  1.00  0.00     0.204 C 
HETATM    4  C4  UNL     1      11.555  -7.169  12.119  1.00  0.00     0.288 C 
HETATM    5  O5  UNL     1      12.877  -7.410  11.720  1.00  0.00    -0.349 OA
HETATM    6  C5  UNL     1      13.481  -8.110  12.785  1.00  0.00     0.180 C 
ENDROOT
BRANCH   6   7
HETATM    7  C6  UNL     1      14.936  -8.018  12.811  1.00  0.00     0.217 C 
BRANCH   7   8
HETATM    8  O6  UNL     1      15.572  -8.746  11.779  1.00  0.00    -0.280 OA
BRANCH   8   9
HETATM    9  P1  UNL     1      16.726  -9.609  12.294  1.00  0.00     0.422 P 
HETATM   10  O7  UNL     1      17.750  -8.846  11.235  1.00  0.00    -0.617 OA
HETATM   11  O8  UNL     1      16.043 -11.017  11.826  1.00  0.00    -0.617 OA
HETATM   12  O9  UNL     1      16.531  -9.054  13.833  1.00  0.00    -0.617 OA
ENDBRANCH   8   9
ENDBRANCH   7   8
ENDBRANCH   6   7
BRANCH   1  13
HETATM   13  O1  UNL     1      13.525 -10.282  13.712  1.00  0.00    -0.390 OA
ATOM     14  H1  UNL     1      14.178  -9.742  14.142  1.00  0.00     0.210 HD
ENDBRANCH   1  13
BRANCH   2  15
HETATM   15  O2  UNL     1      10.844 -10.664  13.100  1.00  0.00    -0.390 OA
ATOM     16  H2  UNL     1      10.158 -10.743  12.447  1.00  0.00     0.210 HD
ENDBRANCH   2  15
BRANCH   4  17
HETATM   17  O4  UNL     1      10.930  -6.235  11.330  1.00  0.00    -0.369 OA
ATOM     18  H4  UNL     1      11.080  -5.361  11.670  1.00  0.00     0.212 HD
ENDBRANCH   4  17
BRANCH   3  19
HETATM   19  O3  UNL     1       9.468  -8.232  12.480  1.00  0.00    -0.388 OA
ATOM     20  H3  UNL     1       9.033  -9.043  12.716  1.00  0.00     0.210 HD
ENDBRANCH   3  19
TORSDOF 7
ENDMDL
