MODEL 8
REMARK VINA RESULT: -7.482812578      1.445      2.953
REMARK  7 active torsions:
REMARK  status: ('A' for Active; 'I' for Inactive)
REMARK    1  A    between atoms: O1_1  and  C1_3 
REMARK    2  A    between atoms: C2_4  and  O2_5 
REMARK    3  A    between atoms: C3_7  and  O3_8 
REMARK    4  A    between atoms: C4_10  and  O4_11 
REMARK    5  A    between atoms: C5_14  and  C6_15 
REMARK    6  A    between atoms: C6_15  and  O6_16 
REMARK    7  A    between atoms: O6_16  and  P1_17 
ROOT
HETATM    1  C1  UNL     1      12.174  -7.140  12.081  1.00  0.00     0.180 C 
HETATM    2  C2  UNL     1      10.937  -6.278  12.235  1.00  0.00     0.183 C 
HETATM    3  C3  UNL     1      11.279  -4.857  11.904  1.00  0.00     0.204 C 
HETATM    4  C4  UNL     1      12.469  -4.454  12.750  1.00  0.00     0.288 C 
HETATM    5  O5  UNL     1      13.551  -5.290  12.444  1.00  0.00    -0.349 OA
HETATM    6  C5  UNL     1      13.230  -6.552  12.986  1.00  0.00     0.180 C 
ENDROOT
BRANCH   6   7
HETATM    7  C6  UNL     1      14.385  -7.408  13.231  1.00  0.00     0.217 C 
BRANCH   7   8
HETATM    8  O6  UNL     1      14.807  -8.135  12.093  1.00  0.00    -0.280 OA
BRANCH   8   9
HETATM    9  P1  UNL     1      15.636  -9.368  12.459  1.00  0.00     0.422 P 
HETATM   10  O7  UNL     1      14.336 -10.332  12.094  1.00  0.00    -0.617 OA
HETATM   11  O8  UNL     1      15.846  -8.916  14.014  1.00  0.00    -0.617 OA
HETATM   12  O9  UNL     1      16.774  -9.014  11.322  1.00  0.00    -0.617 OA
ENDBRANCH   8   9
ENDBRANCH   7   8
ENDBRANCH   6   7
BRANCH   1  13
HETATM   13  O1  UNL     1      11.854  -8.413  12.515  1.00  0.00    -0.390 OA
ATOM     14  H1  UNL     1      12.532  -8.690  13.119  1.00  0.00     0.210 HD
ENDBRANCH   1  13
BRANCH   2  15
HETATM   15  O2  UNL     1       9.872  -6.764  11.483  1.00  0.00    -0.390 OA
ATOM     16  H2  UNL     1       9.271  -7.276  12.012  1.00  0.00     0.210 HD
ENDBRANCH   2  15
BRANCH   4  17
HETATM   17  O4  UNL     1      12.762  -3.125  12.564  1.00  0.00    -0.369 OA
ATOM     18  H4  UNL     1      13.683  -3.016  12.356  1.00  0.00     0.212 HD
ENDBRANCH   4  17
BRANCH   3  19
HETATM   19  O3  UNL     1      10.208  -4.012  12.195  1.00  0.00    -0.388 OA
ATOM     20  H3  UNL     1       9.838  -3.653  11.398  1.00  0.00     0.210 HD
ENDBRANCH   3  19
TORSDOF 7
ENDMDL
