MODEL 6
REMARK VINA RESULT: -7.544825568      2.178      5.694
REMARK  7 active torsions:
REMARK  status: ('A' for Active; 'I' for Inactive)
REMARK    1  A    between atoms: O1_1  and  C1_3 
REMARK    2  A    between atoms: C2_4  and  O2_5 
REMARK    3  A    between atoms: C3_7  and  O3_8 
REMARK    4  A    between atoms: C4_10  and  O4_11 
REMARK    5  A    between atoms: C5_14  and  C6_15 
REMARK    6  A    between atoms: C6_15  and  O6_16 
REMARK    7  A    between atoms: O6_16  and  P1_17 
ROOT
HETATM    1  C1  UNL     1      10.851  -8.351  13.008  1.00  0.00     0.180 C 
HETATM    2  C2  UNL     1      11.228  -9.786  12.699  1.00  0.00     0.183 C 
HETATM    3  C3  UNL     1      12.670 -10.004  13.046  1.00  0.00     0.204 C 
HETATM    4  C4  UNL     1      13.487  -8.943  12.338  1.00  0.00     0.288 C 
HETATM    5  O5  UNL     1      13.075  -7.679  12.780  1.00  0.00    -0.349 OA
HETATM    6  C5  UNL     1      11.795  -7.472  12.224  1.00  0.00     0.180 C 
ENDROOT
BRANCH   6   7
HETATM    7  C6  UNL     1      11.405  -6.071  12.127  1.00  0.00     0.217 C 
BRANCH   7   8
HETATM    8  O6  UNL     1      12.026  -5.239  13.087  1.00  0.00    -0.280 OA
BRANCH   8   9
HETATM    9  P1  UNL     1      12.108  -3.779  12.633  1.00  0.00     0.422 P 
HETATM   10  O7  UNL     1      13.626  -4.068  12.029  1.00  0.00    -0.617 OA
HETATM   11  O8  UNL     1      11.984  -3.176  14.146  1.00  0.00    -0.617 OA
HETATM   12  O9  UNL     1      10.773  -3.938  11.682  1.00  0.00    -0.617 OA
ENDBRANCH   8   9
ENDBRANCH   7   8
ENDBRANCH   6   7
BRANCH   1  13
HETATM   13  O1  UNL     1       9.558  -8.153  12.559  1.00  0.00    -0.390 OA
ATOM     14  H1  UNL     1       9.145  -7.526  13.141  1.00  0.00     0.210 HD
ENDBRANCH   1  13
BRANCH   2  15
HETATM   15  O2  UNL     1      10.380 -10.691  13.329  1.00  0.00    -0.390 OA
ATOM     16  H2  UNL     1       9.588 -10.840  12.826  1.00  0.00     0.210 HD
ENDBRANCH   2  15
BRANCH   4  17
HETATM   17  O4  UNL     1      14.828  -9.158  12.538  1.00  0.00    -0.369 OA
ATOM     18  H4  UNL     1      15.341  -8.524  12.051  1.00  0.00     0.212 HD
ENDBRANCH   4  17
BRANCH   3  19
HETATM   19  O3  UNL     1      13.093 -11.263  12.620  1.00  0.00    -0.388 OA
ATOM     20  H3  UNL     1      13.495 -11.741  13.336  1.00  0.00     0.210 HD
ENDBRANCH   3  19
TORSDOF 7
ENDMDL
