MODEL 10
REMARK VINA RESULT: -7.431951222      1.373      2.615
REMARK  7 active torsions:
REMARK  status: ('A' for Active; 'I' for Inactive)
REMARK    1  A    between atoms: O1_1  and  C1_3 
REMARK    2  A    between atoms: C2_4  and  O2_5 
REMARK    3  A    between atoms: C3_7  and  O3_8 
REMARK    4  A    between atoms: C4_10  and  O4_11 
REMARK    5  A    between atoms: C5_14  and  C6_15 
REMARK    6  A    between atoms: C6_15  and  O6_16 
REMARK    7  A    between atoms: O6_16  and  P1_17 
ROOT
HETATM    1  C1  UNL     1      12.168  -7.215  12.209  1.00  0.00     0.180 C 
HETATM    2  C2  UNL     1      10.952  -6.323  12.362  1.00  0.00     0.183 C 
HETATM    3  C3  UNL     1      11.300  -4.933  11.923  1.00  0.00     0.204 C 
HETATM    4  C4  UNL     1      12.534  -4.497  12.686  1.00  0.00     0.288 C 
HETATM    5  O5  UNL     1      13.588  -5.371  12.387  1.00  0.00    -0.349 OA
HETATM    6  C5  UNL     1      13.274  -6.589  13.024  1.00  0.00     0.180 C 
ENDROOT
BRANCH   6   7
HETATM    7  C6  UNL     1      14.426  -7.447  13.272  1.00  0.00     0.217 C 
BRANCH   7   8
HETATM    8  O6  UNL     1      14.794  -8.243  12.162  1.00  0.00    -0.280 OA
BRANCH   8   9
HETATM    9  P1  UNL     1      15.452  -9.561  12.577  1.00  0.00     0.422 P 
HETATM   10  O7  UNL     1      15.669  -8.955  14.106  1.00  0.00    -0.617 OA
HETATM   11  O8  UNL     1      16.683  -9.421  11.512  1.00  0.00    -0.617 OA
HETATM   12  O9  UNL     1      14.104 -10.424  12.191  1.00  0.00    -0.617 OA
ENDBRANCH   8   9
ENDBRANCH   7   8
ENDBRANCH   6   7
BRANCH   1  13
HETATM   13  O1  UNL     1      11.850  -8.452  12.740  1.00  0.00    -0.390 OA
ATOM     14  H1  UNL     1      11.987  -8.405  13.679  1.00  0.00     0.210 HD
ENDBRANCH   1  13
BRANCH   2  15
HETATM   15  O2  UNL     1       9.847  -6.838  11.694  1.00  0.00    -0.390 OA
ATOM     16  H2  UNL     1      10.092  -7.260  10.879  1.00  0.00     0.210 HD
ENDBRANCH   2  15
BRANCH   4  17
HETATM   17  O4  UNL     1      12.838  -3.189  12.399  1.00  0.00    -0.369 OA
ATOM     18  H4  UNL     1      13.533  -2.878  12.967  1.00  0.00     0.212 HD
ENDBRANCH   4  17
BRANCH   3  19
HETATM   19  O3  UNL     1      10.256  -4.052  12.207  1.00  0.00    -0.388 OA
ATOM     20  H3  UNL     1      10.168  -3.405  11.518  1.00  0.00     0.210 HD
ENDBRANCH   3  19
TORSDOF 7
ENDMDL
