MODEL 7
REMARK VINA RESULT: -7.541177833      2.189      5.292
REMARK  7 active torsions:
REMARK  status: ('A' for Active; 'I' for Inactive)
REMARK    1  A    between atoms: O1_1  and  C1_3 
REMARK    2  A    between atoms: C2_4  and  O2_5 
REMARK    3  A    between atoms: C3_7  and  O3_8 
REMARK    4  A    between atoms: C4_10  and  O4_11 
REMARK    5  A    between atoms: C5_14  and  C6_15 
REMARK    6  A    between atoms: C6_15  and  O6_16 
REMARK    7  A    between atoms: O6_16  and  P1_17 
ROOT
HETATM    1  C1  UNL     1      13.575  -7.880  12.543  1.00  0.00     0.180 C 
HETATM    2  C2  UNL     1      13.777  -9.152  13.340  1.00  0.00     0.183 C 
HETATM    3  C3  UNL     1      12.876 -10.223  12.802  1.00  0.00     0.204 C 
HETATM    4  C4  UNL     1      11.463  -9.677  12.782  1.00  0.00     0.288 C 
HETATM    5  O5  UNL     1      11.419  -8.552  11.949  1.00  0.00    -0.349 OA
HETATM    6  C5  UNL     1      12.108  -7.533  12.638  1.00  0.00     0.180 C 
ENDROOT
BRANCH   6   7
HETATM    7  C6  UNL     1      11.760  -6.182  12.213  1.00  0.00     0.217 C 
BRANCH   7   8
HETATM    8  O6  UNL     1      11.965  -5.200  13.209  1.00  0.00    -0.280 OA
BRANCH   8   9
HETATM    9  P1  UNL     1      12.145  -3.798  12.624  1.00  0.00     0.422 P 
HETATM   10  O7  UNL     1      10.821  -4.048  11.655  1.00  0.00    -0.617 OA
HETATM   11  O8  UNL     1      13.622  -4.113  12.004  1.00  0.00    -0.617 OA
HETATM   12  O9  UNL     1      11.990  -3.095  14.106  1.00  0.00    -0.617 OA
ENDBRANCH   8   9
ENDBRANCH   7   8
ENDBRANCH   6   7
BRANCH   1  13
HETATM   13  O1  UNL     1      14.323  -6.885  13.145  1.00  0.00    -0.390 OA
ATOM     14  H1  UNL     1      14.302  -6.125  12.575  1.00  0.00     0.210 HD
ENDBRANCH   1  13
BRANCH   2  15
HETATM   15  O2  UNL     1      15.113  -9.537  13.369  1.00  0.00    -0.390 OA
ATOM     16  H2  UNL     1      15.283 -10.173  14.054  1.00  0.00     0.210 HD
ENDBRANCH   2  15
BRANCH   4  17
HETATM   17  O4  UNL     1      10.578 -10.653  12.393  1.00  0.00    -0.369 OA
ATOM     18  H4  UNL     1      10.232 -10.461  11.529  1.00  0.00     0.212 HD
ENDBRANCH   4  17
BRANCH   3  19
HETATM   19  O3  UNL     1      12.915 -11.354  13.616  1.00  0.00    -0.388 OA
ATOM     20  H3  UNL     1      12.391 -11.223  14.396  1.00  0.00     0.210 HD
ENDBRANCH   3  19
TORSDOF 7
ENDMDL
