MODEL 5
REMARK VINA RESULT: -7.599795596      2.193      5.315
REMARK  7 active torsions:
REMARK  status: ('A' for Active; 'I' for Inactive)
REMARK    1  A    between atoms: O1_1  and  C1_3 
REMARK    2  A    between atoms: C2_4  and  O2_5 
REMARK    3  A    between atoms: C3_7  and  O3_8 
REMARK    4  A    between atoms: C4_10  and  O4_11 
REMARK    5  A    between atoms: C5_14  and  C6_15 
REMARK    6  A    between atoms: C6_15  and  O6_16 
REMARK    7  A    between atoms: O6_16  and  P1_17 
ROOT
HETATM    1  C1  UNL     1      13.607  -7.902  12.542  1.00  0.00     0.180 C 
HETATM    2  C2  UNL     1      13.807  -9.175  13.340  1.00  0.00     0.183 C 
HETATM    3  C3  UNL     1      12.904 -10.244  12.801  1.00  0.00     0.204 C 
HETATM    4  C4  UNL     1      11.492  -9.697  12.780  1.00  0.00     0.288 C 
HETATM    5  O5  UNL     1      11.451  -8.571  11.947  1.00  0.00    -0.349 OA
HETATM    6  C5  UNL     1      12.141  -7.553  12.637  1.00  0.00     0.180 C 
ENDROOT
BRANCH   6   7
HETATM    7  C6  UNL     1      11.795  -6.202  12.211  1.00  0.00     0.217 C 
BRANCH   7   8
HETATM    8  O6  UNL     1      12.011  -5.219  13.205  1.00  0.00    -0.280 OA
BRANCH   8   9
HETATM    9  P1  UNL     1      12.107  -3.807  12.622  1.00  0.00     0.422 P 
HETATM   10  O7  UNL     1      13.629  -4.158  12.060  1.00  0.00    -0.617 OA
HETATM   11  O8  UNL     1      11.974  -3.068  14.073  1.00  0.00    -0.617 OA
HETATM   12  O9  UNL     1      10.779  -4.043  11.676  1.00  0.00    -0.617 OA
ENDBRANCH   8   9
ENDBRANCH   7   8
ENDBRANCH   6   7
BRANCH   1  13
HETATM   13  O1  UNL     1      14.357  -6.909  13.145  1.00  0.00    -0.390 OA
ATOM     14  H1  UNL     1      14.248  -6.116  12.632  1.00  0.00     0.210 HD
ENDBRANCH   1  13
BRANCH   2  15
HETATM   15  O2  UNL     1      15.142  -9.562  13.369  1.00  0.00    -0.390 OA
ATOM     16  H2  UNL     1      15.726  -8.826  13.231  1.00  0.00     0.210 HD
ENDBRANCH   2  15
BRANCH   4  17
HETATM   17  O4  UNL     1      10.606 -10.671  12.391  1.00  0.00    -0.369 OA
ATOM     18  H4  UNL     1      10.486 -11.306  13.087  1.00  0.00     0.212 HD
ENDBRANCH   4  17
BRANCH   3  19
HETATM   19  O3  UNL     1      12.941 -11.376  13.615  1.00  0.00    -0.388 OA
ATOM     20  H3  UNL     1      13.070 -12.159  13.094  1.00  0.00     0.210 HD
ENDBRANCH   3  19
TORSDOF 7
ENDMDL
