MODEL 2
REMARK VINA RESULT: -8.026673261      2.180      4.016
REMARK  7 active torsions:
REMARK  status: ('A' for Active; 'I' for Inactive)
REMARK    1  A    between atoms: O1_1  and  C1_3 
REMARK    2  A    between atoms: C2_4  and  O2_5 
REMARK    3  A    between atoms: C3_7  and  O3_8 
REMARK    4  A    between atoms: C4_10  and  O4_11 
REMARK    5  A    between atoms: C5_14  and  C6_15 
REMARK    6  A    between atoms: C6_15  and  O6_16 
REMARK    7  A    between atoms: O6_16  and  P1_17 
ROOT
HETATM    1  C1  UNL     1      12.910  -9.521  12.723  1.00  0.00     0.180 C 
HETATM    2  C2  UNL     1      11.439  -9.414  13.073  1.00  0.00     0.183 C 
HETATM    3  C3  UNL     1      10.767  -8.484  12.108  1.00  0.00     0.204 C 
HETATM    4  C4  UNL     1      11.538  -7.180  12.103  1.00  0.00     0.288 C 
HETATM    5  O5  UNL     1      12.854  -7.428  11.690  1.00  0.00    -0.349 OA
HETATM    6  C5  UNL     1      13.470  -8.119  12.754  1.00  0.00     0.180 C 
ENDROOT
BRANCH   6   7
HETATM    7  C6  UNL     1      14.925  -8.030  12.761  1.00  0.00     0.217 C 
BRANCH   7   8
HETATM    8  O6  UNL     1      15.549  -8.816  11.765  1.00  0.00    -0.280 OA
BRANCH   8   9
HETATM    9  P1  UNL     1      16.752  -9.596  12.300  1.00  0.00     0.422 P 
HETATM   10  O7  UNL     1      16.009 -11.014  11.863  1.00  0.00    -0.617 OA
HETATM   11  O8  UNL     1      16.565  -9.070  13.835  1.00  0.00    -0.617 OA
HETATM   12  O9  UNL     1      17.783  -8.827  11.270  1.00  0.00    -0.617 OA
ENDBRANCH   8   9
ENDBRANCH   7   8
ENDBRANCH   6   7
BRANCH   1  13
HETATM   13  O1  UNL     1      13.519 -10.281  13.704  1.00  0.00    -0.390 OA
ATOM     14  H1  UNL     1      13.080 -11.123  13.730  1.00  0.00     0.210 HD
ENDBRANCH   1  13
BRANCH   2  15
HETATM   15  O2  UNL     1      10.830 -10.662  13.129  1.00  0.00    -0.390 OA
ATOM     16  H2  UNL     1      10.793 -10.997  14.018  1.00  0.00     0.210 HD
ENDBRANCH   2  15
BRANCH   4  17
HETATM   17  O4  UNL     1      10.906  -6.252  11.311  1.00  0.00    -0.369 OA
ATOM     18  H4  UNL     1       9.976  -6.439  11.261  1.00  0.00     0.212 HD
ENDBRANCH   4  17
BRANCH   3  19
HETATM   19  O3  UNL     1       9.453  -8.233  12.500  1.00  0.00    -0.388 OA
ATOM     20  H3  UNL     1       8.881  -8.189  11.744  1.00  0.00     0.210 HD
ENDBRANCH   3  19
TORSDOF 7
ENDMDL
