MODEL 4
REMARK VINA RESULT: -7.985432901      2.176      3.824
REMARK  7 active torsions:
REMARK  status: ('A' for Active; 'I' for Inactive)
REMARK    1  A    between atoms: O1_1  and  C1_3 
REMARK    2  A    between atoms: C2_4  and  O2_5 
REMARK    3  A    between atoms: C3_7  and  O3_8 
REMARK    4  A    between atoms: C4_10  and  O4_11 
REMARK    5  A    between atoms: C5_14  and  C6_15 
REMARK    6  A    between atoms: C6_15  and  O6_16 
REMARK    7  A    between atoms: O6_16  and  P1_17 
ROOT
HETATM    1  C1  UNL     1      12.917  -9.526  12.729  1.00  0.00     0.180 C 
HETATM    2  C2  UNL     1      11.444  -9.417  13.070  1.00  0.00     0.183 C 
HETATM    3  C3  UNL     1      10.782  -8.477  12.108  1.00  0.00     0.204 C 
HETATM    4  C4  UNL     1      11.557  -7.176  12.120  1.00  0.00     0.288 C 
HETATM    5  O5  UNL     1      12.874  -7.424  11.714  1.00  0.00    -0.349 OA
HETATM    6  C5  UNL     1      13.481  -8.126  12.776  1.00  0.00     0.180 C 
ENDROOT
BRANCH   6   7
HETATM    7  C6  UNL     1      14.936  -8.042  12.793  1.00  0.00     0.217 C 
BRANCH   7   8
HETATM    8  O6  UNL     1      15.562  -8.777  11.759  1.00  0.00    -0.280 OA
BRANCH   8   9
HETATM    9  P1  UNL     1      16.753  -9.597  12.259  1.00  0.00     0.422 P 
HETATM   10  O7  UNL     1      16.516  -8.985  13.783  1.00  0.00    -0.617 OA
HETATM   11  O8  UNL     1      17.832  -8.849  11.288  1.00  0.00    -0.617 OA
HETATM   12  O9  UNL     1      16.048 -11.012  11.796  1.00  0.00    -0.617 OA
ENDBRANCH   8   9
ENDBRANCH   7   8
ENDBRANCH   6   7
BRANCH   1  13
HETATM   13  O1  UNL     1      13.517 -10.297  13.708  1.00  0.00    -0.390 OA
ATOM     14  H1  UNL     1      13.964  -9.707  14.304  1.00  0.00     0.210 HD
ENDBRANCH   1  13
BRANCH   2  15
HETATM   15  O2  UNL     1      10.830 -10.665  13.112  1.00  0.00    -0.390 OA
ATOM     16  H2  UNL     1      10.974 -11.101  13.944  1.00  0.00     0.210 HD
ENDBRANCH   2  15
BRANCH   4  17
HETATM   17  O4  UNL     1      10.932  -6.239  11.332  1.00  0.00    -0.369 OA
ATOM     18  H4  UNL     1      10.287  -5.759  11.837  1.00  0.00     0.212 HD
ENDBRANCH   4  17
BRANCH   3  19
HETATM   19  O3  UNL     1       9.465  -8.226  12.494  1.00  0.00    -0.388 OA
ATOM     20  H3  UNL     1       9.191  -7.364  12.206  1.00  0.00     0.210 HD
ENDBRANCH   3  19
TORSDOF 7
ENDMDL
