MODEL 18
REMARK VINA RESULT: -8.874814459      4.496      6.483
REMARK  5 active torsions:
REMARK  status: ('A' for Active; 'I' for Inactive)
REMARK    1  A    between atoms: C2_2  and  O1_3 
REMARK    2  A    between atoms: C2_2  and  C16_26 
REMARK    3  A    between atoms: O1_3  and  C3_4 
REMARK    4  A    between atoms: C5_6  and  C6_7 
REMARK    5  A    between atoms: N2_11  and  C8_12 
ROOT
HETATM    1  C3  UNL     1      21.214  83.466   3.267  1.00  0.00     0.111 A 
HETATM    2  C4  UNL     1      20.062  82.718   3.255  1.00  0.00     0.054 A 
HETATM    3  C5  UNL     1      19.751  81.990   2.137  1.00  0.00    -0.005 A 
HETATM    4  C14 UNL     1      20.638  82.057   1.050  1.00  0.00     0.101 A 
HETATM    5  N4  UNL     1      21.734  82.783   1.078  1.00  0.00    -0.351 N 
ATOM      6  H4  UNL     1      22.343  82.798   0.259  1.00  0.00     0.166 HD
HETATM    7  C15 UNL     1      22.062  83.488   2.133  1.00  0.00     0.149 A 
HETATM    8  N5  UNL     1      23.238  84.273   2.147  1.00  0.00    -0.080 NA
ENDROOT
BRANCH   3   9
HETATM    9  C6  UNL     1      18.589  81.120   2.029  1.00  0.00     0.009 A 
HETATM   10  C7  UNL     1      17.735  80.709   3.032  1.00  0.00     0.121 A 
HETATM   11  N1  UNL     1      16.841  79.856   2.489  1.00  0.00    -0.309 N 
HETATM   12  N2  UNL     1      17.082  79.708   1.203  1.00  0.00    -0.298 N 
ATOM     13  H1  UNL     1      16.089  79.394   3.000  1.00  0.00     0.186 HD
HETATM   14  C13 UNL     1      18.136  80.468   0.902  1.00  0.00     0.124 A 
BRANCH  12  15
HETATM   15  C8  UNL     1      16.343  78.821   0.333  1.00  0.00     0.110 C 
HETATM   16  C9  UNL     1      17.118  77.503   0.287  1.00  0.00     0.055 C 
HETATM   17  C10 UNL     1      16.646  76.626  -0.816  1.00  0.00     0.234 C 
HETATM   18  N3  UNL     1      16.632  77.261  -2.102  1.00  0.00    -0.075 N 
HETATM   19  C11 UNL     1      17.054  78.627  -2.026  1.00  0.00     0.234 C 
ATOM     20  H32 UNL     1      17.186  76.739  -2.780  1.00  0.00     0.277 HD
ATOM     21  H31 UNL     1      15.718  77.180  -2.546  1.00  0.00     0.277 HD
HETATM   22  C12 UNL     1      16.140  79.338  -1.059  1.00  0.00     0.055 C 
ENDBRANCH  12  15
ENDBRANCH   3   9
BRANCH   1  23
HETATM   23  O1  UNL     1      21.632  84.207   4.295  1.00  0.00    -0.338 OA
BRANCH  23  24
HETATM   24  C2  UNL     1      21.024  85.346   4.864  1.00  0.00     0.161 C 
HETATM   25  C1  UNL     1      22.108  86.433   4.944  1.00  0.00     0.045 C 
BRANCH  24  26
HETATM   26  C16 UNL     1      20.676  84.906   6.252  1.00  0.00     0.017 A 
HETATM   27  C17 UNL     1      19.338  84.616   6.497  1.00  0.00     0.044 A 
HETATM   28 CL1  UNL     1      18.137  84.972   5.273  1.00  0.00    -0.084 Cl
HETATM   29  C18 UNL     1      18.980  84.094   7.710  1.00  0.00     0.028 A 
HETATM   30  C19 UNL     1      19.914  83.853   8.680  1.00  0.00     0.046 A 
HETATM   31  C20 UNL     1      21.243  84.148   8.421  1.00  0.00     0.138 A 
HETATM   32  F1  UNL     1      22.210  83.927   9.341  1.00  0.00    -0.204 F 
HETATM   33  C21 UNL     1      21.640  84.686   7.181  1.00  0.00     0.083 A 
HETATM   34 CL2  UNL     1      23.364  84.978   6.931  1.00  0.00    -0.080 Cl
ENDBRANCH  24  26
ENDBRANCH  23  24
ENDBRANCH   1  23
TORSDOF 5
ENDMDL
