MODEL 1
REMARK VINA RESULT: -10.425319820      0.000      0.000
REMARK  5 active torsions:
REMARK  status: ('A' for Active; 'I' for Inactive)
REMARK    1  A    between atoms: C2_2  and  O1_3 
REMARK    2  A    between atoms: C2_2  and  C16_26 
REMARK    3  A    between atoms: O1_3  and  C3_4 
REMARK    4  A    between atoms: C5_6  and  C6_7 
REMARK    5  A    between atoms: N2_11  and  C8_12 
ROOT
HETATM    1  C3  UNL     1      21.213  85.190   6.523  1.00  0.00     0.111 A 
HETATM    2  C4  UNL     1      21.405  84.993   5.177  1.00  0.00     0.054 A 
HETATM    3  C5  UNL     1      22.664  84.704   4.719  1.00  0.00    -0.005 A 
HETATM    4  C14 UNL     1      23.700  84.633   5.665  1.00  0.00     0.101 A 
HETATM    5  N4  UNL     1      23.498  84.829   6.949  1.00  0.00    -0.351 N 
ATOM      6  H4  UNL     1      24.286  84.767   7.593  1.00  0.00     0.166 HD
HETATM    7  C15 UNL     1      22.306  85.103   7.420  1.00  0.00     0.149 A 
HETATM    8  N5  UNL     1      22.102  85.323   8.802  1.00  0.00    -0.080 NA
ENDROOT
BRANCH   3   9
HETATM    9  C6  UNL     1      22.979  84.424   3.325  1.00  0.00     0.009 A 
HETATM   10  C7  UNL     1      22.118  84.042   2.317  1.00  0.00     0.121 A 
HETATM   11  N1  UNL     1      22.854  83.825   1.206  1.00  0.00    -0.309 N 
HETATM   12  N2  UNL     1      24.127  84.049   1.457  1.00  0.00    -0.298 N 
ATOM     13  H1  UNL     1      22.478  83.531   0.304  1.00  0.00     0.186 HD
HETATM   14  C13 UNL     1      24.225  84.415   2.736  1.00  0.00     0.124 A 
BRANCH  12  15
HETATM   15  C8  UNL     1      25.192  83.857   0.498  1.00  0.00     0.110 C 
HETATM   16  C9  UNL     1      24.525  83.552  -0.844  1.00  0.00     0.055 C 
HETATM   17  C10 UNL     1      25.499  83.018  -1.832  1.00  0.00     0.234 C 
HETATM   18  N3  UNL     1      26.251  81.891  -1.361  1.00  0.00    -0.075 N 
HETATM   19  C11 UNL     1      25.910  81.549  -0.013  1.00  0.00     0.234 C 
ATOM     20  H32 UNL     1      26.150  81.091  -1.984  1.00  0.00     0.277 HD
ATOM     21  H31 UNL     1      27.254  82.046  -1.461  1.00  0.00     0.277 HD
HETATM   22  C12 UNL     1      26.155  82.763   0.847  1.00  0.00     0.055 C 
ENDBRANCH  12  15
ENDBRANCH   3   9
BRANCH   1  23
HETATM   23  O1  UNL     1      20.039  85.464   7.093  1.00  0.00    -0.338 OA
BRANCH  23  24
HETATM   24  C2  UNL     1      18.776  85.613   6.480  1.00  0.00     0.161 C 
HETATM   25  C1  UNL     1      17.875  86.335   7.493  1.00  0.00     0.045 C 
BRANCH  24  26
HETATM   26  C16 UNL     1      18.293  84.205   6.320  1.00  0.00     0.017 A 
HETATM   27  C17 UNL     1      18.105  83.755   5.016  1.00  0.00     0.044 A 
HETATM   28 CL1  UNL     1      18.237  84.884   3.684  1.00  0.00    -0.084 Cl
HETATM   29  C18 UNL     1      17.783  82.443   4.805  1.00  0.00     0.028 A 
HETATM   30  C19 UNL     1      17.642  81.571   5.849  1.00  0.00     0.046 A 
HETATM   31  C20 UNL     1      17.830  82.035   7.141  1.00  0.00     0.138 A 
HETATM   32  F1  UNL     1      17.709  81.217   8.213  1.00  0.00    -0.204 F 
HETATM   33  C21 UNL     1      18.164  83.381   7.389  1.00  0.00     0.083 A 
HETATM   34 CL2  UNL     1      18.435  83.860   9.068  1.00  0.00    -0.080 Cl
ENDBRANCH  24  26
ENDBRANCH  23  24
ENDBRANCH   1  23
TORSDOF 5
ENDMDL
