MODEL 12
REMARK VINA RESULT: -9.103283212      3.689      5.840
REMARK  5 active torsions:
REMARK  status: ('A' for Active; 'I' for Inactive)
REMARK    1  A    between atoms: C2_2  and  O1_3 
REMARK    2  A    between atoms: C2_2  and  C16_26 
REMARK    3  A    between atoms: O1_3  and  C3_4 
REMARK    4  A    between atoms: C5_6  and  C6_7 
REMARK    5  A    between atoms: N2_11  and  C8_12 
ROOT
HETATM    1  C3  UNL     1      18.550  82.711   6.361  1.00  0.00     0.111 A 
HETATM    2  C4  UNL     1      18.702  82.378   5.037  1.00  0.00     0.054 A 
HETATM    3  C5  UNL     1      17.878  81.430   4.490  1.00  0.00    -0.005 A 
HETATM    4  C14 UNL     1      16.916  80.841   5.328  1.00  0.00     0.101 A 
HETATM    5  N4  UNL     1      16.789  81.171   6.595  1.00  0.00    -0.351 N 
ATOM      6  H4  UNL     1      16.075  80.711   7.160  1.00  0.00     0.166 HD
HETATM    7  C15 UNL     1      17.558  82.076   7.148  1.00  0.00     0.149 A 
HETATM    8  N5  UNL     1      17.418  82.414   8.514  1.00  0.00    -0.080 NA
ENDROOT
BRANCH   3   9
HETATM    9  C6  UNL     1      17.910  81.034   3.089  1.00  0.00     0.009 A 
HETATM   10  C7  UNL     1      17.325  79.931   2.501  1.00  0.00     0.121 A 
HETATM   11  N1  UNL     1      17.672  79.927   1.196  1.00  0.00    -0.309 N 
HETATM   12  N2  UNL     1      18.441  80.962   0.931  1.00  0.00    -0.298 N 
ATOM     13  H1  UNL     1      17.381  79.224   0.517  1.00  0.00     0.186 HD
HETATM   14  C13 UNL     1      18.596  81.648   2.063  1.00  0.00     0.124 A 
BRANCH  12  15
HETATM   15  C8  UNL     1      19.033  81.226  -0.362  1.00  0.00     0.110 C 
HETATM   16  C9  UNL     1      20.289  82.063  -0.108  1.00  0.00     0.055 C 
HETATM   17  C10 UNL     1      20.806  82.671  -1.362  1.00  0.00     0.234 C 
HETATM   18  N3  UNL     1      19.826  83.419  -2.095  1.00  0.00    -0.075 N 
HETATM   19  C11 UNL     1      18.544  83.385  -1.460  1.00  0.00     0.234 C 
ATOM     20  H32 UNL     1      20.135  84.377  -2.256  1.00  0.00     0.277 HD
ATOM     21  H31 UNL     1      19.769  83.105  -3.064  1.00  0.00     0.277 HD
HETATM   22  C12 UNL     1      18.134  81.939  -1.326  1.00  0.00     0.055 C 
ENDBRANCH  12  15
ENDBRANCH   3   9
BRANCH   1  23
HETATM   23  O1  UNL     1      19.279  83.624   7.006  1.00  0.00    -0.338 OA
BRANCH  23  24
HETATM   24  C2  UNL     1      19.436  84.995   6.710  1.00  0.00     0.161 C 
HETATM   25  C1  UNL     1      18.497  85.304   5.533  1.00  0.00     0.045 C 
BRANCH  24  26
HETATM   26  C16 UNL     1      20.853  85.094   6.237  1.00  0.00     0.017 A 
HETATM   27  C17 UNL     1      21.844  84.985   7.208  1.00  0.00     0.044 A 
HETATM   28 CL1  UNL     1      21.396  84.950   8.900  1.00  0.00    -0.084 Cl
HETATM   29  C18 UNL     1      23.155  84.946   6.821  1.00  0.00     0.028 A 
HETATM   30  C19 UNL     1      23.506  85.014   5.501  1.00  0.00     0.046 A 
HETATM   31  C20 UNL     1      22.508  85.124   4.546  1.00  0.00     0.138 A 
HETATM   32  F1  UNL     1      22.795  85.189   3.225  1.00  0.00    -0.204 F 
HETATM   33  C21 UNL     1      21.149  85.165   4.915  1.00  0.00     0.083 A 
HETATM   34 CL2  UNL     1      19.952  85.253   3.619  1.00  0.00    -0.080 Cl
ENDBRANCH  24  26
ENDBRANCH  23  24
ENDBRANCH   1  23
TORSDOF 5
ENDMDL
