MODEL 4
REMARK VINA RESULT: -9.741521134      0.815      1.220
REMARK  5 active torsions:
REMARK  status: ('A' for Active; 'I' for Inactive)
REMARK    1  A    between atoms: C2_2  and  O1_3 
REMARK    2  A    between atoms: C2_2  and  C16_26 
REMARK    3  A    between atoms: O1_3  and  C3_4 
REMARK    4  A    between atoms: C5_6  and  C6_7 
REMARK    5  A    between atoms: N2_11  and  C8_12 
ROOT
HETATM    1  C3  UNL     1      21.348  85.110   6.196  1.00  0.00     0.111 A 
HETATM    2  C4  UNL     1      21.451  84.862   4.848  1.00  0.00     0.054 A 
HETATM    3  C5  UNL     1      22.674  84.536   4.323  1.00  0.00    -0.005 A 
HETATM    4  C14 UNL     1      23.767  84.479   5.204  1.00  0.00     0.101 A 
HETATM    5  N4  UNL     1      23.649  84.724   6.491  1.00  0.00    -0.351 N 
ATOM      6  H4  UNL     1      24.475  84.671   7.086  1.00  0.00     0.166 HD
HETATM    7  C15 UNL     1      22.493  85.036   7.025  1.00  0.00     0.149 A 
HETATM    8  N5  UNL     1      22.381  85.308   8.409  1.00  0.00    -0.080 NA
ENDROOT
BRANCH   3   9
HETATM    9  C6  UNL     1      22.896  84.201   2.924  1.00  0.00     0.009 A 
HETATM   10  C7  UNL     1      21.956  83.897   1.960  1.00  0.00     0.121 A 
HETATM   11  N1  UNL     1      22.615  83.585   0.824  1.00  0.00    -0.309 N 
HETATM   12  N2  UNL     1      23.914  83.676   1.017  1.00  0.00    -0.298 N 
ATOM     13  H1  UNL     1      22.171  83.318  -0.055  1.00  0.00     0.186 HD
HETATM   14  C13 UNL     1      24.107  84.050   2.282  1.00  0.00     0.124 A 
BRANCH  12  15
HETATM   15  C8  UNL     1      24.910  83.356   0.019  1.00  0.00     0.110 C 
HETATM   16  C9  UNL     1      26.238  83.190   0.760  1.00  0.00     0.055 C 
HETATM   17  C10 UNL     1      27.392  83.182  -0.177  1.00  0.00     0.234 C 
HETATM   18  N3  UNL     1      27.433  84.309  -1.064  1.00  0.00    -0.075 N 
HETATM   19  C11 UNL     1      26.319  85.185  -0.863  1.00  0.00     0.234 C 
ATOM     20  H32 UNL     1      28.318  84.810  -0.986  1.00  0.00     0.277 HD
ATOM     21  H31 UNL     1      27.501  84.013  -2.037  1.00  0.00     0.277 HD
HETATM   22  C12 UNL     1      25.059  84.381  -1.065  1.00  0.00     0.055 C 
ENDBRANCH  12  15
ENDBRANCH   3   9
BRANCH   1  23
HETATM   23  O1  UNL     1      20.216  85.425   6.828  1.00  0.00    -0.338 OA
BRANCH  23  24
HETATM   24  C2  UNL     1      18.923  85.592   6.287  1.00  0.00     0.161 C 
HETATM   25  C1  UNL     1      18.107  86.376   7.327  1.00  0.00     0.045 C 
BRANCH  24  26
HETATM   26  C16 UNL     1      18.390  84.195   6.207  1.00  0.00     0.017 A 
HETATM   27  C17 UNL     1      18.125  83.702   4.933  1.00  0.00     0.044 A 
HETATM   28 CL1  UNL     1      18.225  84.773   3.552  1.00  0.00    -0.084 Cl
HETATM   29  C18 UNL     1      17.753  82.393   4.790  1.00  0.00     0.028 A 
HETATM   30  C19 UNL     1      17.637  81.567   5.874  1.00  0.00     0.046 A 
HETATM   31  C20 UNL     1      17.903  82.075   7.136  1.00  0.00     0.138 A 
HETATM   32  F1  UNL     1      17.810  81.303   8.244  1.00  0.00    -0.204 F 
HETATM   33  C21 UNL     1      18.289  83.418   7.313  1.00  0.00     0.083 A 
HETATM   34 CL2  UNL     1      18.656  83.952   8.956  1.00  0.00    -0.080 Cl
ENDBRANCH  24  26
ENDBRANCH  23  24
ENDBRANCH   1  23
TORSDOF 5
ENDMDL
