MODEL 16
REMARK VINA RESULT: -8.988369887      1.259      1.686
REMARK  5 active torsions:
REMARK  status: ('A' for Active; 'I' for Inactive)
REMARK    1  A    between atoms: C2_2  and  O1_3 
REMARK    2  A    between atoms: C2_2  and  C16_26 
REMARK    3  A    between atoms: O1_3  and  C3_4 
REMARK    4  A    between atoms: C5_6  and  C6_7 
REMARK    5  A    between atoms: N2_11  and  C8_12 
ROOT
HETATM    1  C3  UNL     1      21.931  84.851   5.457  1.00  0.00     0.111 A 
HETATM    2  C4  UNL     1      21.732  84.544   4.132  1.00  0.00     0.054 A 
HETATM    3  C5  UNL     1      22.800  84.139   3.375  1.00  0.00    -0.005 A 
HETATM    4  C14 UNL     1      24.054  84.067   4.004  1.00  0.00     0.101 A 
HETATM    5  N4  UNL     1      24.225  84.369   5.273  1.00  0.00    -0.351 N 
ATOM      6  H4  UNL     1      25.157  84.301   5.680  1.00  0.00     0.166 HD
HETATM    7  C15 UNL     1      23.224  84.756   6.025  1.00  0.00     0.149 A 
HETATM    8  N5  UNL     1      23.423  85.089   7.386  1.00  0.00    -0.080 NA
ENDROOT
BRANCH   3   9
HETATM    9  C6  UNL     1      22.702  83.738   1.979  1.00  0.00     0.009 A 
HETATM   10  C7  UNL     1      21.777  82.895   1.397  1.00  0.00     0.121 A 
HETATM   11  N1  UNL     1      22.108  82.754   0.096  1.00  0.00    -0.309 N 
HETATM   12  N2  UNL     1      23.187  83.461  -0.174  1.00  0.00    -0.298 N 
ATOM     13  H1  UNL     1      21.598  82.185  -0.579  1.00  0.00     0.186 HD
HETATM   14  C13 UNL     1      23.562  84.066   0.953  1.00  0.00     0.124 A 
BRANCH  12  15
HETATM   15  C8  UNL     1      23.840  83.489  -1.463  1.00  0.00     0.110 C 
HETATM   16  C9  UNL     1      24.997  82.490  -1.392  1.00  0.00     0.055 C 
HETATM   17  C10 UNL     1      25.939  82.658  -2.530  1.00  0.00     0.234 C 
HETATM   18  N3  UNL     1      26.423  83.998  -2.694  1.00  0.00    -0.075 N 
HETATM   19  C11 UNL     1      25.857  84.891  -1.728  1.00  0.00     0.234 C 
ATOM     20  H32 UNL     1      27.442  84.030  -2.676  1.00  0.00     0.277 HD
ATOM     21  H31 UNL     1      26.269  84.335  -3.644  1.00  0.00     0.277 HD
HETATM   22  C12 UNL     1      24.357  84.835  -1.872  1.00  0.00     0.055 C 
ENDBRANCH  12  15
ENDBRANCH   3   9
BRANCH   1  23
HETATM   23  O1  UNL     1      20.974  85.245   6.300  1.00  0.00    -0.338 OA
BRANCH  23  24
HETATM   24  C2  UNL     1      19.642  85.612   6.011  1.00  0.00     0.161 C 
HETATM   25  C1  UNL     1      19.173  86.517   7.160  1.00  0.00     0.045 C 
BRANCH  24  26
HETATM   26  C16 UNL     1      18.895  84.316   6.079  1.00  0.00     0.017 A 
HETATM   27  C17 UNL     1      18.349  83.848   4.888  1.00  0.00     0.044 A 
HETATM   28 CL1  UNL     1      18.379  84.866   3.463  1.00  0.00    -0.084 Cl
HETATM   29  C18 UNL     1      17.762  82.613   4.864  1.00  0.00     0.028 A 
HETATM   30  C19 UNL     1      17.703  81.836   5.988  1.00  0.00     0.046 A 
HETATM   31  C20 UNL     1      18.251  82.316   7.167  1.00  0.00     0.138 A 
HETATM   32  F1  UNL     1      18.226  81.589   8.308  1.00  0.00    -0.204 F 
HETATM   33  C21 UNL     1      18.862  83.584   7.220  1.00  0.00     0.083 A 
HETATM   34 CL2  UNL     1      19.577  84.082   8.757  1.00  0.00    -0.080 Cl
ENDBRANCH  24  26
ENDBRANCH  23  24
ENDBRANCH   1  23
TORSDOF 5
ENDMDL
