MODEL 6
REMARK VINA RESULT: -9.386985289      4.177      6.717
REMARK  5 active torsions:
REMARK  status: ('A' for Active; 'I' for Inactive)
REMARK    1  A    between atoms: C2_2  and  O1_3 
REMARK    2  A    between atoms: C2_2  and  C16_26 
REMARK    3  A    between atoms: O1_3  and  C3_4 
REMARK    4  A    between atoms: C5_6  and  C6_7 
REMARK    5  A    between atoms: N2_11  and  C8_12 
ROOT
HETATM    1  C3  UNL     1      18.663  83.207   6.910  1.00  0.00     0.111 A 
HETATM    2  C4  UNL     1      18.749  82.733   5.624  1.00  0.00     0.054 A 
HETATM    3  C5  UNL     1      17.953  81.684   5.246  1.00  0.00    -0.005 A 
HETATM    4  C14 UNL     1      17.089  81.142   6.212  1.00  0.00     0.101 A 
HETATM    5  N4  UNL     1      17.024  81.606   7.440  1.00  0.00    -0.351 N 
ATOM      6  H4  UNL     1      16.379  81.175   8.103  1.00  0.00     0.166 HD
HETATM    7  C15 UNL     1      17.768  82.611   7.832  1.00  0.00     0.149 A 
HETATM    8  N5  UNL     1      17.697  83.095   9.159  1.00  0.00    -0.080 NA
ENDROOT
BRANCH   3   9
HETATM    9  C6  UNL     1      17.918  81.132   3.899  1.00  0.00     0.009 A 
HETATM   10  C7  UNL     1      18.833  81.309   2.881  1.00  0.00     0.121 A 
HETATM   11  N1  UNL     1      18.364  80.671   1.788  1.00  0.00    -0.309 N 
HETATM   12  N2  UNL     1      17.207  80.102   2.060  1.00  0.00    -0.298 N 
ATOM     13  H1  UNL     1      18.835  80.634   0.885  1.00  0.00     0.186 HD
HETATM   14  C13 UNL     1      16.920  80.367   3.335  1.00  0.00     0.124 A 
BRANCH  12  15
HETATM   15  C8  UNL     1      16.407  79.383   1.094  1.00  0.00     0.110 C 
HETATM   16  C9  UNL     1      17.112  78.048   0.845  1.00  0.00     0.055 C 
HETATM   17  C10 UNL     1      16.574  77.359  -0.357  1.00  0.00     0.234 C 
HETATM   18  N3  UNL     1      16.568  78.170  -1.541  1.00  0.00    -0.075 N 
HETATM   19  C11 UNL     1      17.061  79.489  -1.286  1.00  0.00     0.234 C 
ATOM     20  H32 UNL     1      17.082  77.722  -2.300  1.00  0.00     0.277 HD
ATOM     21  H31 UNL     1      15.643  78.196  -1.968  1.00  0.00     0.277 HD
HETATM   22  C12 UNL     1      16.204  80.100  -0.206  1.00  0.00     0.055 C 
ENDBRANCH  12  15
ENDBRANCH   3   9
BRANCH   1  23
HETATM   23  O1  UNL     1      19.372  84.227   7.396  1.00  0.00    -0.338 OA
BRANCH  23  24
HETATM   24  C2  UNL     1      19.619  85.487   6.808  1.00  0.00     0.161 C 
HETATM   25  C1  UNL     1      18.627  85.634   5.644  1.00  0.00     0.045 C 
BRANCH  24  26
HETATM   26  C16 UNL     1      21.003  85.352   6.251  1.00  0.00     0.017 A 
HETATM   27  C17 UNL     1      22.024  85.120   7.167  1.00  0.00     0.044 A 
HETATM   28 CL1  UNL     1      21.683  85.205   8.883  1.00  0.00    -0.084 Cl
HETATM   29  C18 UNL     1      23.287  84.867   6.707  1.00  0.00     0.028 A 
HETATM   30  C19 UNL     1      23.560  84.840   5.368  1.00  0.00     0.046 A 
HETATM   31  C20 UNL     1      22.533  85.074   4.468  1.00  0.00     0.138 A 
HETATM   32  F1  UNL     1      22.743  85.055   3.131  1.00  0.00    -0.204 F 
HETATM   33  C21 UNL     1      21.222  85.336   4.913  1.00  0.00     0.083 A 
HETATM   34 CL2  UNL     1      19.973  85.569   3.685  1.00  0.00    -0.080 Cl
ENDBRANCH  24  26
ENDBRANCH  23  24
ENDBRANCH   1  23
TORSDOF 5
ENDMDL
