MODEL 3
REMARK VINA RESULT: -10.003105202      0.789      1.824
REMARK  5 active torsions:
REMARK  status: ('A' for Active; 'I' for Inactive)
REMARK    1  A    between atoms: C2_2  and  O1_3 
REMARK    2  A    between atoms: C2_2  and  C16_26 
REMARK    3  A    between atoms: O1_3  and  C3_4 
REMARK    4  A    between atoms: C5_6  and  C6_7 
REMARK    5  A    between atoms: N2_11  and  C8_12 
ROOT
HETATM    1  C3  UNL     1      21.254  85.159   6.475  1.00  0.00     0.111 A 
HETATM    2  C4  UNL     1      21.432  84.952   5.128  1.00  0.00     0.054 A 
HETATM    3  C5  UNL     1      22.691  84.693   4.655  1.00  0.00    -0.005 A 
HETATM    4  C14 UNL     1      23.743  84.660   5.586  1.00  0.00     0.101 A 
HETATM    5  N4  UNL     1      23.553  84.864   6.871  1.00  0.00    -0.351 N 
ATOM      6  H4  UNL     1      24.352  84.831   7.504  1.00  0.00     0.166 HD
HETATM    7  C15 UNL     1      22.361  85.111   7.356  1.00  0.00     0.149 A 
HETATM    8  N5  UNL     1      22.172  85.340   8.739  1.00  0.00    -0.080 NA
ENDROOT
BRANCH   3   9
HETATM    9  C6  UNL     1      22.993  84.406   3.260  1.00  0.00     0.009 A 
HETATM   10  C7  UNL     1      22.121  84.037   2.257  1.00  0.00     0.121 A 
HETATM   11  N1  UNL     1      22.846  83.808   1.142  1.00  0.00    -0.309 N 
HETATM   12  N2  UNL     1      24.124  84.012   1.386  1.00  0.00    -0.298 N 
ATOM     13  H1  UNL     1      22.461  83.519   0.242  1.00  0.00     0.186 HD
HETATM   14  C13 UNL     1      24.236  84.377   2.663  1.00  0.00     0.124 A 
BRANCH  12  15
HETATM   15  C8  UNL     1      25.181  83.802   0.421  1.00  0.00     0.110 C 
HETATM   16  C9  UNL     1      24.507  83.364  -0.881  1.00  0.00     0.055 C 
HETATM   17  C10 UNL     1      25.489  82.807  -1.848  1.00  0.00     0.234 C 
HETATM   18  N3  UNL     1      26.306  81.757  -1.311  1.00  0.00    -0.075 N 
HETATM   19  C11 UNL     1      26.006  81.500   0.065  1.00  0.00     0.234 C 
ATOM     20  H32 UNL     1      26.235  80.908  -1.871  1.00  0.00     0.277 HD
ATOM     21  H31 UNL     1      27.298  81.954  -1.444  1.00  0.00     0.277 HD
HETATM   22  C12 UNL     1      26.205  82.786   0.828  1.00  0.00     0.055 C 
ENDBRANCH  12  15
ENDBRANCH   3   9
BRANCH   1  23
HETATM   23  O1  UNL     1      20.081  85.407   7.060  1.00  0.00    -0.338 OA
BRANCH  23  24
HETATM   24  C2  UNL     1      18.792  85.402   6.484  1.00  0.00     0.161 C 
HETATM   25  C1  UNL     1      17.877  86.181   7.441  1.00  0.00     0.045 C 
BRANCH  24  26
HETATM   26  C16 UNL     1      18.400  83.957   6.509  1.00  0.00     0.017 A 
HETATM   27  C17 UNL     1      18.271  83.367   7.762  1.00  0.00     0.044 A 
HETATM   28 CL1  UNL     1      18.762  84.253   9.190  1.00  0.00    -0.084 Cl
HETATM   29  C18 UNL     1      17.797  82.087   7.851  1.00  0.00     0.028 A 
HETATM   30  C19 UNL     1      17.451  81.381   6.732  1.00  0.00     0.046 A 
HETATM   31  C20 UNL     1      17.587  81.982   5.490  1.00  0.00     0.138 A 
HETATM   32  F1  UNL     1      17.255  81.334   4.349  1.00  0.00    -0.204 F 
HETATM   33  C21 UNL     1      18.071  83.300   5.369  1.00  0.00     0.083 A 
HETATM   34 CL2  UNL     1      18.155  83.993   3.747  1.00  0.00    -0.080 Cl
ENDBRANCH  24  26
ENDBRANCH  23  24
ENDBRANCH   1  23
TORSDOF 5
ENDMDL
