MODEL 2
REMARK VINA RESULT: -10.220135926      1.413      1.796
REMARK  5 active torsions:
REMARK  status: ('A' for Active; 'I' for Inactive)
REMARK    1  A    between atoms: C2_2  and  O1_3 
REMARK    2  A    between atoms: C2_2  and  C16_26 
REMARK    3  A    between atoms: O1_3  and  C3_4 
REMARK    4  A    between atoms: C5_6  and  C6_7 
REMARK    5  A    between atoms: N2_11  and  C8_12 
ROOT
HETATM    1  C3  UNL     1      21.183  85.209   6.639  1.00  0.00     0.111 A 
HETATM    2  C4  UNL     1      21.438  84.982   5.308  1.00  0.00     0.054 A 
HETATM    3  C5  UNL     1      22.721  84.705   4.914  1.00  0.00    -0.005 A 
HETATM    4  C14 UNL     1      23.715  84.677   5.907  1.00  0.00     0.101 A 
HETATM    5  N4  UNL     1      23.452  84.901   7.175  1.00  0.00    -0.351 N 
ATOM      6  H4  UNL     1      24.212  84.870   7.855  1.00  0.00     0.166 HD
HETATM    7  C15 UNL     1      22.235  85.165   7.585  1.00  0.00     0.149 A 
HETATM    8  N5  UNL     1      21.966  85.415   8.951  1.00  0.00    -0.080 NA
ENDROOT
BRANCH   3   9
HETATM    9  C6  UNL     1      23.103  84.396   3.543  1.00  0.00     0.009 A 
HETATM   10  C7  UNL     1      24.167  84.895   2.821  1.00  0.00     0.121 A 
HETATM   11  N1  UNL     1      24.094  84.385   1.573  1.00  0.00    -0.309 N 
HETATM   12  N2  UNL     1      23.047  83.593   1.470  1.00  0.00    -0.298 N 
ATOM     13  H1  UNL     1      24.754  84.583   0.821  1.00  0.00     0.186 HD
HETATM   14  C13 UNL     1      22.433  83.584   2.653  1.00  0.00     0.124 A 
BRANCH  12  15
HETATM   15  C8  UNL     1      22.647  82.928   0.250  1.00  0.00     0.110 C 
HETATM   16  C9  UNL     1      21.332  82.206   0.554  1.00  0.00     0.055 C 
HETATM   17  C10 UNL     1      20.986  81.227  -0.509  1.00  0.00     0.234 C 
HETATM   18  N3  UNL     1      22.032  80.291  -0.806  1.00  0.00    -0.075 N 
HETATM   19  C11 UNL     1      23.204  80.536  -0.020  1.00  0.00     0.234 C 
ATOM     20  H32 UNL     1      21.710  79.329  -0.703  1.00  0.00     0.277 HD
ATOM     21  H31 UNL     1      22.250  80.281  -1.802  1.00  0.00     0.277 HD
HETATM   22  C12 UNL     1      23.650  81.952  -0.286  1.00  0.00     0.055 C 
ENDBRANCH  12  15
ENDBRANCH   3   9
BRANCH   1  23
HETATM   23  O1  UNL     1      19.979  85.476   7.150  1.00  0.00    -0.338 OA
BRANCH  23  24
HETATM   24  C2  UNL     1      18.748  85.617   6.474  1.00  0.00     0.161 C 
HETATM   25  C1  UNL     1      17.800  86.356   7.431  1.00  0.00     0.045 C 
BRANCH  24  26
HETATM   26  C16 UNL     1      18.270  84.208   6.311  1.00  0.00     0.017 A 
HETATM   27  C17 UNL     1      18.111  83.750   5.006  1.00  0.00     0.044 A 
HETATM   28 CL1  UNL     1      18.270  84.871   3.671  1.00  0.00    -0.084 Cl
HETATM   29  C18 UNL     1      17.796  82.436   4.795  1.00  0.00     0.028 A 
HETATM   30  C19 UNL     1      17.633  81.570   5.841  1.00  0.00     0.046 A 
HETATM   31  C20 UNL     1      17.793  82.042   7.135  1.00  0.00     0.138 A 
HETATM   32  F1  UNL     1      17.649  81.229   8.208  1.00  0.00    -0.204 F 
HETATM   33  C21 UNL     1      18.119  83.389   7.382  1.00  0.00     0.083 A 
HETATM   34 CL2  UNL     1      18.353  83.878   9.063  1.00  0.00    -0.080 Cl
ENDBRANCH  24  26
ENDBRANCH  23  24
ENDBRANCH   1  23
TORSDOF 5
ENDMDL
