MODEL 9
REMARK VINA RESULT: -8.022976696      2.845      6.978
REMARK  5 active torsions:
REMARK  status: ('A' for Active; 'I' for Inactive)
REMARK    1  A    between atoms: C1_2  and  C2_4 
REMARK    2  A    between atoms: N2_7  and  C5_8 
REMARK    3  A    between atoms: C5_8  and  O2_9 
REMARK    4  A    between atoms: O2_9  and  C6_10 
REMARK    5  A    between atoms: C6_10  and  N3_11 
ROOT
HETATM    1  C2  UNL     1      30.302  22.433  11.261  1.00  0.00     0.031 A 
HETATM    2  C3  UNL     1      30.969  23.357  10.507  1.00  0.00     0.034 A 
HETATM    3  C4  UNL     1      31.637  22.994   9.346  1.00  0.00     0.093 A 
HETATM    4  N2  UNL     1      31.636  21.717   8.943  1.00  0.00    -0.345 N 
HETATM    5  C12 UNL     1      30.988  20.805   9.672  1.00  0.00     0.093 A 
HETATM    6  C13 UNL     1      30.309  21.116  10.835  1.00  0.00     0.034 A 
ENDROOT
BRANCH   4   7
HETATM    7  C5  UNL     1      32.316  21.272   7.737  1.00  0.00     0.299 C 
BRANCH   7   8
HETATM    8  O2  UNL     1      33.616  21.702   7.678  1.00  0.00    -0.352 OA
BRANCH   8   9
HETATM    9  C6  UNL     1      34.467  20.706   8.113  1.00  0.00     0.299 C 
BRANCH   9  10
HETATM   10  N3  UNL     1      35.453  21.145   9.086  1.00  0.00    -0.345 N 
HETATM   11  C7  UNL     1      36.563  20.406   9.334  1.00  0.00     0.092 A 
HETATM   12  C8  UNL     1      37.531  20.748  10.243  1.00  0.00     0.017 A 
HETATM   13  C9  UNL     1      37.345  21.922  10.941  1.00  0.00     0.003 A 
HETATM   14  C10 UNL     1      36.203  22.685  10.688  1.00  0.00     0.017 A 
HETATM   15  C11 UNL     1      35.261  22.297   9.765  1.00  0.00     0.092 A 
ENDBRANCH   9  10
ENDBRANCH   8   9
ENDBRANCH   7   8
ENDBRANCH   4   7
BRANCH   1  16
HETATM   16  C1  UNL     1      29.599  22.819  12.487  1.00  0.00     0.265 C 
HETATM   17  N1  UNL     1      28.972  21.852  13.299  1.00  0.00    -0.057 NA
HETATM   18  O1  UNL     1      29.562  24.033  12.805  1.00  0.00    -0.271 OA
ENDBRANCH   1  16
TORSDOF 5
ENDMDL
