MODEL 12
REMARK VINA RESULT: -7.900734474      5.223      7.133
REMARK  5 active torsions:
REMARK  status: ('A' for Active; 'I' for Inactive)
REMARK    1  A    between atoms: C1_2  and  C2_4 
REMARK    2  A    between atoms: N2_7  and  C5_8 
REMARK    3  A    between atoms: C5_8  and  O2_9 
REMARK    4  A    between atoms: O2_9  and  C6_10 
REMARK    5  A    between atoms: C6_10  and  N3_11 
ROOT
HETATM    1  C2  UNL     1      29.010  17.576  12.020  1.00  0.00     0.031 A 
HETATM    2  C3  UNL     1      30.236  18.040  11.634  1.00  0.00     0.034 A 
HETATM    3  C4  UNL     1      30.493  19.400  11.539  1.00  0.00     0.093 A 
HETATM    4  N2  UNL     1      29.533  20.288  11.827  1.00  0.00    -0.345 N 
HETATM    5  C12 UNL     1      28.331  19.844  12.205  1.00  0.00     0.093 A 
HETATM    6  C13 UNL     1      28.025  18.502  12.315  1.00  0.00     0.034 A 
ENDROOT
BRANCH   4   7
HETATM    7  C5  UNL     1      29.739  21.725  11.747  1.00  0.00     0.299 C 
BRANCH   7   8
HETATM    8  O2  UNL     1      30.666  22.070  10.798  1.00  0.00    -0.352 OA
BRANCH   8   9
HETATM    9  C6  UNL     1      30.039  22.635   9.705  1.00  0.00     0.299 C 
BRANCH   9  10
HETATM   10  N3  UNL     1      30.855  22.677   8.504  1.00  0.00    -0.345 N 
HETATM   11  C7  UNL     1      30.344  22.314   7.302  1.00  0.00     0.092 A 
HETATM   12  C8  UNL     1      31.054  22.316   6.128  1.00  0.00     0.017 A 
HETATM   13  C9  UNL     1      32.371  22.716   6.196  1.00  0.00     0.003 A 
HETATM   14  C10 UNL     1      32.900  23.092   7.432  1.00  0.00     0.017 A 
HETATM   15  C11 UNL     1      32.145  23.072   8.581  1.00  0.00     0.092 A 
ENDBRANCH   9  10
ENDBRANCH   8   9
ENDBRANCH   7   8
ENDBRANCH   4   7
BRANCH   1  16
HETATM   16  C1  UNL     1      28.740  16.138  12.119  1.00  0.00     0.265 C 
HETATM   17  N1  UNL     1      28.051  15.457  11.095  1.00  0.00    -0.057 NA
HETATM   18  O1  UNL     1      29.135  15.519  13.138  1.00  0.00    -0.271 OA
ENDBRANCH   1  16
TORSDOF 5
ENDMDL
