MODEL 7
REMARK VINA RESULT: -8.457344742      1.646      2.356
REMARK  5 active torsions:
REMARK  status: ('A' for Active; 'I' for Inactive)
REMARK    1  A    between atoms: C1_2  and  C2_4 
REMARK    2  A    between atoms: N2_7  and  C5_8 
REMARK    3  A    between atoms: C5_8  and  O2_9 
REMARK    4  A    between atoms: O2_9  and  C6_10 
REMARK    5  A    between atoms: C6_10  and  N3_11 
ROOT
HETATM    1  C2  UNL     1      37.792  20.309  10.217  1.00  0.00     0.031 A 
HETATM    2  C3  UNL     1      37.623  21.494  10.874  1.00  0.00     0.034 A 
HETATM    3  C4  UNL     1      36.520  22.301  10.632  1.00  0.00     0.093 A 
HETATM    4  N2  UNL     1      35.595  21.923   9.740  1.00  0.00    -0.345 N 
HETATM    5  C12 UNL     1      35.751  20.766   9.092  1.00  0.00     0.093 A 
HETATM    6  C13 UNL     1      36.830  19.928   9.297  1.00  0.00     0.034 A 
ENDROOT
BRANCH   4   7
HETATM    7  C5  UNL     1      34.417  22.723   9.442  1.00  0.00     0.299 C 
BRANCH   7   8
HETATM    8  O2  UNL     1      33.825  22.363   8.259  1.00  0.00    -0.352 OA
BRANCH   8   9
HETATM    9  C6  UNL     1      32.545  22.876   8.193  1.00  0.00     0.299 C 
BRANCH   9  10
HETATM   10  N3  UNL     1      31.619  22.297   9.151  1.00  0.00    -0.345 N 
HETATM   11  C7  UNL     1      30.884  23.087   9.972  1.00  0.00     0.092 A 
HETATM   12  C8  UNL     1      29.999  22.616  10.909  1.00  0.00     0.017 A 
HETATM   13  C9  UNL     1      29.863  21.248  11.006  1.00  0.00     0.003 A 
HETATM   14  C10 UNL     1      30.618  20.432  10.161  1.00  0.00     0.017 A 
HETATM   15  C11 UNL     1      31.493  20.955   9.238  1.00  0.00     0.092 A 
ENDBRANCH   9  10
ENDBRANCH   8   9
ENDBRANCH   7   8
ENDBRANCH   4   7
BRANCH   1  16
HETATM   16  C1  UNL     1      38.959  19.458  10.474  1.00  0.00     0.265 C 
HETATM   17  N1  UNL     1      38.804  18.125  10.906  1.00  0.00    -0.057 NA
HETATM   18  O1  UNL     1      40.106  19.941  10.303  1.00  0.00    -0.271 OA
ENDBRANCH   1  16
TORSDOF 5
ENDMDL
