MODEL 4
REMARK VINA RESULT: -8.490055976      1.686      2.342
REMARK  5 active torsions:
REMARK  status: ('A' for Active; 'I' for Inactive)
REMARK    1  A    between atoms: C1_2  and  C2_4 
REMARK    2  A    between atoms: N2_7  and  C5_8 
REMARK    3  A    between atoms: C5_8  and  O2_9 
REMARK    4  A    between atoms: O2_9  and  C6_10 
REMARK    5  A    between atoms: C6_10  and  N3_11 
ROOT
HETATM    1  C2  UNL     1      37.804  20.291  10.215  1.00  0.00     0.031 A 
HETATM    2  C3  UNL     1      37.633  21.477  10.872  1.00  0.00     0.034 A 
HETATM    3  C4  UNL     1      36.531  22.284  10.627  1.00  0.00     0.093 A 
HETATM    4  N2  UNL     1      35.608  21.907   9.732  1.00  0.00    -0.345 N 
HETATM    5  C12 UNL     1      35.767  20.750   9.084  1.00  0.00     0.093 A 
HETATM    6  C13 UNL     1      36.845  19.912   9.292  1.00  0.00     0.034 A 
ENDROOT
BRANCH   4   7
HETATM    7  C5  UNL     1      34.432  22.707   9.430  1.00  0.00     0.299 C 
BRANCH   7   8
HETATM    8  O2  UNL     1      33.778  22.274   8.306  1.00  0.00    -0.352 OA
BRANCH   8   9
HETATM    9  C6  UNL     1      32.508  22.813   8.257  1.00  0.00     0.299 C 
BRANCH   9  10
HETATM   10  N3  UNL     1      31.590  22.270   9.243  1.00  0.00    -0.345 N 
HETATM   11  C7  UNL     1      31.428  20.930   9.379  1.00  0.00     0.092 A 
HETATM   12  C8  UNL     1      30.574  20.343  10.278  1.00  0.00     0.017 A 
HETATM   13  C9  UNL     1      29.841  21.186  11.085  1.00  0.00     0.003 A 
HETATM   14  C10 UNL     1      30.006  22.565  10.948  1.00  0.00     0.017 A 
HETATM   15  C11 UNL     1      30.877  23.105  10.030  1.00  0.00     0.092 A 
ENDBRANCH   9  10
ENDBRANCH   8   9
ENDBRANCH   7   8
ENDBRANCH   4   7
BRANCH   1  16
HETATM   16  C1  UNL     1      38.970  19.441  10.475  1.00  0.00     0.265 C 
HETATM   17  N1  UNL     1      38.813  18.108  10.909  1.00  0.00    -0.057 NA
HETATM   18  O1  UNL     1      40.117  19.922  10.306  1.00  0.00    -0.271 OA
ENDBRANCH   1  16
TORSDOF 5
ENDMDL
