MODEL 6
REMARK VINA RESULT: -8.458219942      1.714      2.603
REMARK  5 active torsions:
REMARK  status: ('A' for Active; 'I' for Inactive)
REMARK    1  A    between atoms: C1_2  and  C2_4 
REMARK    2  A    between atoms: N2_7  and  C5_8 
REMARK    3  A    between atoms: C5_8  and  O2_9 
REMARK    4  A    between atoms: O2_9  and  C6_10 
REMARK    5  A    between atoms: C6_10  and  N3_11 
ROOT
HETATM    1  C2  UNL     1      37.785  20.269  10.189  1.00  0.00     0.031 A 
HETATM    2  C3  UNL     1      36.840  19.874   9.285  1.00  0.00     0.034 A 
HETATM    3  C4  UNL     1      35.725  20.656   9.021  1.00  0.00     0.093 A 
HETATM    4  N2  UNL     1      35.557  21.823   9.656  1.00  0.00    -0.345 N 
HETATM    5  C12 UNL     1      36.475  22.219  10.542  1.00  0.00     0.093 A 
HETATM    6  C13 UNL     1      37.602  21.477  10.840  1.00  0.00     0.034 A 
ENDROOT
BRANCH   4   7
HETATM    7  C5  UNL     1      34.411  22.688   9.424  1.00  0.00     0.299 C 
BRANCH   7   8
HETATM    8  O2  UNL     1      33.708  22.337   8.300  1.00  0.00    -0.352 OA
BRANCH   8   9
HETATM    9  C6  UNL     1      32.454  22.912   8.325  1.00  0.00     0.299 C 
BRANCH   9  10
HETATM   10  N3  UNL     1      31.549  22.330   9.301  1.00  0.00    -0.345 N 
HETATM   11  C7  UNL     1      31.402  20.985   9.398  1.00  0.00     0.092 A 
HETATM   12  C8  UNL     1      30.561  20.362  10.285  1.00  0.00     0.017 A 
HETATM   13  C9  UNL     1      29.827  21.172  11.123  1.00  0.00     0.003 A 
HETATM   14  C10 UNL     1      29.976  22.557  11.026  1.00  0.00     0.017 A 
HETATM   15  C11 UNL     1      30.834  23.133  10.119  1.00  0.00     0.092 A 
ENDBRANCH   9  10
ENDBRANCH   8   9
ENDBRANCH   7   8
ENDBRANCH   4   7
BRANCH   1  16
HETATM   16  C1  UNL     1      38.963  19.441  10.467  1.00  0.00     0.265 C 
HETATM   17  N1  UNL     1      38.825  18.115  10.927  1.00  0.00    -0.057 NA
HETATM   18  O1  UNL     1      40.103  19.935  10.289  1.00  0.00    -0.271 OA
ENDBRANCH   1  16
TORSDOF 5
ENDMDL
