MODEL 5
REMARK VINA RESULT: -8.470656040      1.699      2.650
REMARK  5 active torsions:
REMARK  status: ('A' for Active; 'I' for Inactive)
REMARK    1  A    between atoms: C1_2  and  C2_4 
REMARK    2  A    between atoms: N2_7  and  C5_8 
REMARK    3  A    between atoms: C5_8  and  O2_9 
REMARK    4  A    between atoms: O2_9  and  C6_10 
REMARK    5  A    between atoms: C6_10  and  N3_11 
ROOT
HETATM    1  C2  UNL     1      37.805  20.287  10.206  1.00  0.00     0.031 A 
HETATM    2  C3  UNL     1      36.863  19.902   9.295  1.00  0.00     0.034 A 
HETATM    3  C4  UNL     1      35.751  20.689   9.032  1.00  0.00     0.093 A 
HETATM    4  N2  UNL     1      35.584  21.852   9.675  1.00  0.00    -0.345 N 
HETATM    5  C12 UNL     1      36.499  22.238  10.568  1.00  0.00     0.093 A 
HETATM    6  C13 UNL     1      37.622  21.491  10.865  1.00  0.00     0.034 A 
ENDROOT
BRANCH   4   7
HETATM    7  C5  UNL     1      34.441  22.721   9.445  1.00  0.00     0.299 C 
BRANCH   7   8
HETATM    8  O2  UNL     1      33.735  22.373   8.323  1.00  0.00    -0.352 OA
BRANCH   8   9
HETATM    9  C6  UNL     1      32.480  22.949   8.353  1.00  0.00     0.299 C 
BRANCH   9  10
HETATM   10  N3  UNL     1      31.564  22.336   9.298  1.00  0.00    -0.345 N 
HETATM   11  C7  UNL     1      30.828  23.096  10.147  1.00  0.00     0.092 A 
HETATM   12  C8  UNL     1      29.952  22.591  11.074  1.00  0.00     0.017 A 
HETATM   13  C9  UNL     1      29.826  21.220  11.132  1.00  0.00     0.003 A 
HETATM   14  C10 UNL     1      30.583  20.435  10.260  1.00  0.00     0.017 A 
HETATM   15  C11 UNL     1      31.449  20.991   9.347  1.00  0.00     0.092 A 
ENDBRANCH   9  10
ENDBRANCH   8   9
ENDBRANCH   7   8
ENDBRANCH   4   7
BRANCH   1  16
HETATM   16  C1  UNL     1      38.979  19.454  10.483  1.00  0.00     0.265 C 
HETATM   17  N1  UNL     1      38.836  18.128  10.940  1.00  0.00    -0.057 NA
HETATM   18  O1  UNL     1      40.122  19.944  10.306  1.00  0.00    -0.271 OA
ENDBRANCH   1  16
TORSDOF 5
ENDMDL
