MODEL 3
REMARK VINA RESULT: -8.559088947      1.012      1.489
REMARK  5 active torsions:
REMARK  status: ('A' for Active; 'I' for Inactive)
REMARK    1  A    between atoms: C1_2  and  C2_4 
REMARK    2  A    between atoms: N2_7  and  C5_8 
REMARK    3  A    between atoms: C5_8  and  O2_9 
REMARK    4  A    between atoms: O2_9  and  C6_10 
REMARK    5  A    between atoms: C6_10  and  N3_11 
ROOT
HETATM    1  C2  UNL     1      38.285  20.416  10.692  1.00  0.00     0.031 A 
HETATM    2  C3  UNL     1      38.419  21.518  11.488  1.00  0.00     0.034 A 
HETATM    3  C4  UNL     1      37.474  22.534  11.478  1.00  0.00     0.093 A 
HETATM    4  N2  UNL     1      36.404  22.448  10.678  1.00  0.00    -0.345 N 
HETATM    5  C12 UNL     1      36.263  21.375   9.894  1.00  0.00     0.093 A 
HETATM    6  C13 UNL     1      37.175  20.338   9.868  1.00  0.00     0.034 A 
ENDROOT
BRANCH   4   7
HETATM    7  C5  UNL     1      35.379  23.477  10.620  1.00  0.00     0.299 C 
BRANCH   7   8
HETATM    8  O2  UNL     1      34.383  23.177   9.727  1.00  0.00    -0.352 OA
BRANCH   8   9
HETATM    9  C6  UNL     1      33.320  24.042   9.892  1.00  0.00     0.299 C 
BRANCH   9  10
HETATM   10  N3  UNL     1      32.019  23.441   9.655  1.00  0.00    -0.345 N 
HETATM   11  C7  UNL     1      31.685  22.965   8.429  1.00  0.00     0.092 A 
HETATM   12  C8  UNL     1      30.475  22.396   8.125  1.00  0.00     0.017 A 
HETATM   13  C9  UNL     1      29.551  22.310   9.145  1.00  0.00     0.003 A 
HETATM   14  C10 UNL     1      29.892  22.799  10.408  1.00  0.00     0.017 A 
HETATM   15  C11 UNL     1      31.121  23.361  10.661  1.00  0.00     0.092 A 
ENDBRANCH   9  10
ENDBRANCH   8   9
ENDBRANCH   7   8
ENDBRANCH   4   7
BRANCH   1  16
HETATM   16  C1  UNL     1      39.285  19.345  10.704  1.00  0.00     0.265 C 
HETATM   17  N1  UNL     1      38.924  18.018  11.017  1.00  0.00    -0.057 NA
HETATM   18  O1  UNL     1      40.477  19.629  10.429  1.00  0.00    -0.271 OA
ENDBRANCH   1  16
TORSDOF 5
ENDMDL
