MODEL 11
REMARK VINA RESULT: -7.970956197      5.530      7.359
REMARK  5 active torsions:
REMARK  status: ('A' for Active; 'I' for Inactive)
REMARK    1  A    between atoms: C1_2  and  C2_4 
REMARK    2  A    between atoms: N2_7  and  C5_8 
REMARK    3  A    between atoms: C5_8  and  O2_9 
REMARK    4  A    between atoms: O2_9  and  C6_10 
REMARK    5  A    between atoms: C6_10  and  N3_11 
ROOT
HETATM    1  C2  UNL     1      28.903  17.458  12.407  1.00  0.00     0.031 A 
HETATM    2  C3  UNL     1      29.853  18.106  11.671  1.00  0.00     0.034 A 
HETATM    3  C4  UNL     1      30.020  19.481  11.761  1.00  0.00     0.093 A 
HETATM    4  N2  UNL     1      29.243  20.200  12.582  1.00  0.00    -0.345 N 
HETATM    5  C12 UNL     1      28.310  19.575  13.306  1.00  0.00     0.093 A 
HETATM    6  C13 UNL     1      28.105  18.210  13.251  1.00  0.00     0.034 A 
ENDROOT
BRANCH   4   7
HETATM    7  C5  UNL     1      29.368  21.641  12.722  1.00  0.00     0.299 C 
BRANCH   7   8
HETATM    8  O2  UNL     1      30.503  22.130  12.128  1.00  0.00    -0.352 OA
BRANCH   8   9
HETATM    9  C6  UNL     1      30.179  23.132  11.235  1.00  0.00     0.299 C 
BRANCH   9  10
HETATM   10  N3  UNL     1      30.835  23.017   9.944  1.00  0.00    -0.345 N 
HETATM   11  C7  UNL     1      32.119  23.422   9.777  1.00  0.00     0.092 A 
HETATM   12  C8  UNL     1      32.801  23.356   8.589  1.00  0.00     0.017 A 
HETATM   13  C9  UNL     1      32.121  22.842   7.506  1.00  0.00     0.003 A 
HETATM   14  C10 UNL     1      30.799  22.424   7.675  1.00  0.00     0.017 A 
HETATM   15  C11 UNL     1      30.159  22.512   8.889  1.00  0.00     0.092 A 
ENDBRANCH   9  10
ENDBRANCH   8   9
ENDBRANCH   7   8
ENDBRANCH   4   7
BRANCH   1  16
HETATM   16  C1  UNL     1      28.727  16.005  12.309  1.00  0.00     0.265 C 
HETATM   17  N1  UNL     1      28.098  15.424  11.189  1.00  0.00    -0.057 NA
HETATM   18  O1  UNL     1      29.148  15.283  13.246  1.00  0.00    -0.271 OA
ENDBRANCH   1  16
TORSDOF 5
ENDMDL
