MODEL 9
REMARK VINA RESULT: -7.150683054      6.963     10.203
REMARK  8 active torsions:
REMARK  status: ('A' for Active; 'I' for Inactive)
REMARK    1  A    between atoms: N4_10  and  C5_11 
REMARK    2  A    between atoms: C6_13  and  C7_14 
REMARK    3  A    between atoms: C7_14  and  O2_15 
REMARK    4  A    between atoms: O2_15  and  P1_16 
REMARK    5  A    between atoms: P1_16  and  O5_19 
REMARK    6  A    between atoms: O5_19  and  P2_20 
REMARK    7  A    between atoms: C8_24  and  O9_25 
REMARK    8  A    between atoms: C9_27  and  O10_28 
ROOT
HETATM    1  C5  UNL     1      -7.254  26.910 -17.966  1.00  0.00     0.262 C 
HETATM    2  O1  UNL     1      -6.456  27.912 -18.515  1.00  0.00    -0.353 OA
HETATM    3  C6  UNL     1      -6.021  27.491 -19.738  1.00  0.00     0.180 C 
HETATM    4  C8  UNL     1      -7.058  26.574 -20.330  1.00  0.00     0.182 C 
HETATM    5  C9  UNL     1      -7.964  26.320 -19.142  1.00  0.00     0.198 C 
ENDROOT
BRANCH   1   6
HETATM    6  N4  UNL     1      -8.165  27.589 -17.047  1.00  0.00    -0.297 N 
HETATM    7  C2  UNL     1      -7.939  27.734 -15.717  1.00  0.00     0.146 A 
HETATM    8  N2  UNL     1      -6.921  27.340 -14.928  1.00  0.00    -0.314 N 
HETATM    9  C3  UNL     1      -9.032  28.427 -15.223  1.00  0.00     0.146 A 
HETATM   10  C1  UNL     1      -6.980  27.632 -13.632  1.00  0.00     0.196 A 
ATOM     11  H2  UNL     1      -6.127  26.830 -15.314  1.00  0.00     0.170 HD
HETATM   12  N1  UNL     1      -5.918  27.226 -12.784  1.00  0.00    -0.063 NA
HETATM   13  N5  UNL     1      -8.023  28.305 -13.104  1.00  0.00    -0.295 N 
HETATM   14  C10 UNL     1      -9.055  28.713 -13.869  1.00  0.00     0.278 A 
ATOM     15  H5  UNL     1      -8.030  28.511 -12.105  1.00  0.00     0.171 HD
HETATM   16  O11 UNL     1     -10.043  29.350 -13.367  1.00  0.00    -0.265 OA
HETATM   17  N3  UNL     1      -9.901  28.697 -16.232  1.00  0.00    -0.345 N 
HETATM   18  C4  UNL     1      -9.352  28.174 -17.343  1.00  0.00     0.188 A 
ATOM     19  H3  UNL     1     -10.789  29.194 -16.161  1.00  0.00     0.167 HD
ENDBRANCH   1   6
BRANCH   5  20
HETATM   20  O10 UNL     1      -8.083  24.917 -19.043  1.00  0.00    -0.388 OA
ATOM     21  H10 UNL     1      -8.989  24.636 -19.008  1.00  0.00     0.210 HD
ENDBRANCH   5  20
BRANCH   3  22
HETATM   22  C7  UNL     1      -5.792  28.617 -20.707  1.00  0.00     0.216 C 
BRANCH  22  23
HETATM   23  O2  UNL     1      -5.552  28.057 -21.960  1.00  0.00    -0.287 OA
BRANCH  23  24
HETATM   24  P1  UNL     1      -5.739  28.902 -23.240  1.00  0.00     0.418 P 
HETATM   25  O3  UNL     1      -4.449  29.831 -22.797  1.00  0.00    -0.624 OA
HETATM   26  O4  UNL     1      -5.424  27.491 -24.104  1.00  0.00    -0.624 OA
BRANCH  24  27
HETATM   27  O5  UNL     1      -5.783  29.620 -24.599  1.00  0.00    -0.173 OA
BRANCH  27  28
HETATM   28  P2  UNL     1      -6.890  30.394 -25.335  1.00  0.00     0.431 P 
HETATM   29  O6  UNL     1      -8.027  31.326 -25.827  1.00  0.00    -0.616 OA
HETATM   30  O7  UNL     1      -7.824  30.080 -23.986  1.00  0.00    -0.616 OA
HETATM   31  O8  UNL     1      -7.001  29.331 -26.565  1.00  0.00    -0.616 OA
ENDBRANCH  27  28
ENDBRANCH  24  27
ENDBRANCH  23  24
ENDBRANCH  22  23
ENDBRANCH   3  22
BRANCH   4  32
HETATM   32  O9  UNL     1      -6.394  25.414 -20.739  1.00  0.00    -0.390 OA
ATOM     33  H9  UNL     1      -5.478  25.640 -20.847  1.00  0.00     0.210 HD
ENDBRANCH   4  32
TORSDOF 8
ENDMDL
