MODEL 5
REMARK VINA RESULT: -7.254273703      7.969     11.307
REMARK  8 active torsions:
REMARK  status: ('A' for Active; 'I' for Inactive)
REMARK    1  A    between atoms: N4_10  and  C5_11 
REMARK    2  A    between atoms: C6_13  and  C7_14 
REMARK    3  A    between atoms: C7_14  and  O2_15 
REMARK    4  A    between atoms: O2_15  and  P1_16 
REMARK    5  A    between atoms: P1_16  and  O5_19 
REMARK    6  A    between atoms: O5_19  and  P2_20 
REMARK    7  A    between atoms: C8_24  and  O9_25 
REMARK    8  A    between atoms: C9_27  and  O10_28 
ROOT
HETATM    1  C5  UNL     1      -7.933  28.679 -16.735  1.00  0.00     0.262 C 
HETATM    2  O1  UNL     1      -8.399  27.912 -17.802  1.00  0.00    -0.353 OA
HETATM    3  C6  UNL     1      -7.344  27.230 -18.333  1.00  0.00     0.180 C 
HETATM    4  C8  UNL     1      -6.347  26.956 -17.239  1.00  0.00     0.182 C 
HETATM    5  C9  UNL     1      -6.861  27.838 -16.119  1.00  0.00     0.198 C 
ENDROOT
BRANCH   1   6
HETATM    6  N4  UNL     1      -9.079  28.861 -15.848  1.00  0.00    -0.297 N 
HETATM    7  C2  UNL     1      -9.148  29.802 -14.873  1.00  0.00     0.146 A 
HETATM    8  N2  UNL     1      -8.278  30.748 -14.471  1.00  0.00    -0.314 N 
HETATM    9  C3  UNL     1     -10.387  29.634 -14.275  1.00  0.00     0.146 A 
HETATM   10  C1  UNL     1      -8.632  31.542 -13.465  1.00  0.00     0.196 A 
ATOM     11  H2  UNL     1      -7.371  30.852 -14.926  1.00  0.00     0.170 HD
HETATM   12  N1  UNL     1      -7.730  32.545 -13.027  1.00  0.00    -0.063 NA
HETATM   13  N5  UNL     1      -9.827  31.419 -12.851  1.00  0.00    -0.295 N 
HETATM   14  C10 UNL     1     -10.718  30.482 -13.232  1.00  0.00     0.278 A 
ATOM     15  H5  UNL     1     -10.062  32.048 -12.084  1.00  0.00     0.171 HD
HETATM   16  O11 UNL     1     -11.849  30.365 -12.649  1.00  0.00    -0.265 OA
HETATM   17  N3  UNL     1     -11.054  28.615 -14.875  1.00  0.00    -0.345 N 
HETATM   18  C4  UNL     1     -10.236  28.152 -15.838  1.00  0.00     0.188 A 
ATOM     19  H3  UNL     1     -11.986  28.270 -14.643  1.00  0.00     0.167 HD
ENDBRANCH   1   6
BRANCH   5  20
HETATM   20  O10 UNL     1      -5.756  28.609 -15.699  1.00  0.00    -0.388 OA
ATOM     21  H10 UNL     1      -5.763  29.480 -16.076  1.00  0.00     0.210 HD
ENDBRANCH   5  20
BRANCH   3  22
HETATM   22  C7  UNL     1      -7.734  25.914 -18.944  1.00  0.00     0.216 C 
BRANCH  22  23
HETATM   23  O2  UNL     1      -7.882  26.109 -20.316  1.00  0.00    -0.287 OA
BRANCH  23  24
HETATM   24  P1  UNL     1      -6.721  26.698 -21.149  1.00  0.00     0.418 P 
HETATM   25  O3  UNL     1      -6.060  25.190 -21.263  1.00  0.00    -0.624 OA
HETATM   26  O4  UNL     1      -7.884  27.128 -22.290  1.00  0.00    -0.624 OA
BRANCH  24  27
HETATM   27  O5  UNL     1      -5.675  27.226 -22.145  1.00  0.00    -0.173 OA
BRANCH  27  28
HETATM   28  P2  UNL     1      -4.628  28.349 -22.059  1.00  0.00     0.431 P 
HETATM   29  O6  UNL     1      -3.416  29.286 -21.819  1.00  0.00    -0.616 OA
HETATM   30  O7  UNL     1      -4.638  28.055 -20.415  1.00  0.00    -0.616 OA
HETATM   31  O8  UNL     1      -5.634  29.511 -22.601  1.00  0.00    -0.616 OA
ENDBRANCH  27  28
ENDBRANCH  24  27
ENDBRANCH  23  24
ENDBRANCH  22  23
ENDBRANCH   3  22
BRANCH   4  32
HETATM   32  O9  UNL     1      -5.099  27.379 -17.706  1.00  0.00    -0.390 OA
ATOM     33  H9  UNL     1      -4.452  27.089 -17.073  1.00  0.00     0.210 HD
ENDBRANCH   4  32
TORSDOF 8
ENDMDL
