MODEL 1
REMARK VINA RESULT: -8.755255019      0.000      0.000
REMARK  8 active torsions:
REMARK  status: ('A' for Active; 'I' for Inactive)
REMARK    1  A    between atoms: N4_10  and  C5_11 
REMARK    2  A    between atoms: C6_13  and  C7_14 
REMARK    3  A    between atoms: C7_14  and  O2_15 
REMARK    4  A    between atoms: O2_15  and  P1_16 
REMARK    5  A    between atoms: P1_16  and  O5_19 
REMARK    6  A    between atoms: O5_19  and  P2_20 
REMARK    7  A    between atoms: C8_24  and  O9_25 
REMARK    8  A    between atoms: C9_27  and  O10_28 
ROOT
HETATM    1  C5  UNL     1      -4.297  24.011 -24.929  1.00  0.00     0.262 C 
HETATM    2  O1  UNL     1      -4.614  24.366 -23.619  1.00  0.00    -0.353 OA
HETATM    3  C6  UNL     1      -3.765  25.360 -23.226  1.00  0.00     0.180 C 
HETATM    4  C8  UNL     1      -3.376  26.167 -24.435  1.00  0.00     0.182 C 
HETATM    5  C9  UNL     1      -3.885  25.298 -25.568  1.00  0.00     0.198 C 
ENDROOT
BRANCH   1   6
HETATM    6  N4  UNL     1      -5.528  23.471 -25.501  1.00  0.00    -0.297 N 
HETATM    7  C2  UNL     1      -5.568  22.502 -26.450  1.00  0.00     0.146 A 
HETATM    8  N2  UNL     1      -4.594  21.820 -27.082  1.00  0.00    -0.314 N 
HETATM    9  C3  UNL     1      -6.911  22.286 -26.711  1.00  0.00     0.146 A 
HETATM   10  C1  UNL     1      -4.946  20.909 -27.985  1.00  0.00     0.196 A 
ATOM     11  H2  UNL     1      -3.611  21.996 -26.873  1.00  0.00     0.170 HD
HETATM   12  N1  UNL     1      -3.936  20.179 -28.661  1.00  0.00    -0.063 NA
HETATM   13  N5  UNL     1      -6.241  20.662 -28.273  1.00  0.00    -0.295 N 
HETATM   14  C10 UNL     1      -7.237  21.329 -27.657  1.00  0.00     0.278 A 
ATOM     15  H5  UNL     1      -6.471  19.956 -28.971  1.00  0.00     0.171 HD
HETATM   16  O11 UNL     1      -8.463  21.095 -27.932  1.00  0.00    -0.265 OA
HETATM   17  N3  UNL     1      -7.668  23.105 -25.937  1.00  0.00    -0.345 N 
HETATM   18  C4  UNL     1      -6.803  23.826 -25.202  1.00  0.00     0.188 A 
ATOM     19  H3  UNL     1      -8.687  23.163 -25.918  1.00  0.00     0.167 HD
ENDBRANCH   1   6
BRANCH   5  20
HETATM   20  O10 UNL     1      -2.792  25.130 -26.444  1.00  0.00    -0.388 OA
ATOM     21  H10 UNL     1      -2.915  24.396 -27.034  1.00  0.00     0.210 HD
ENDBRANCH   5  20
BRANCH   3  22
HETATM   22  C7  UNL     1      -4.373  26.296 -22.220  1.00  0.00     0.216 C 
BRANCH  22  23
HETATM   23  O2  UNL     1      -5.750  26.310 -22.430  1.00  0.00    -0.287 OA
BRANCH  23  24
HETATM   24  P1  UNL     1      -6.721  26.331 -21.228  1.00  0.00     0.418 P 
HETATM   25  O3  UNL     1      -5.669  27.310 -20.416  1.00  0.00    -0.624 OA
HETATM   26  O4  UNL     1      -7.832  27.065 -22.259  1.00  0.00    -0.624 OA
BRANCH  24  27
HETATM   27  O5  UNL     1      -7.760  26.529 -20.111  1.00  0.00    -0.173 OA
BRANCH  27  28
HETATM   28  P2  UNL     1      -7.673  26.437 -18.579  1.00  0.00     0.431 P 
HETATM   29  O6  UNL     1      -7.416  26.110 -17.085  1.00  0.00    -0.616 OA
HETATM   30  O7  UNL     1      -8.120  24.840 -18.780  1.00  0.00    -0.616 OA
HETATM   31  O8  UNL     1      -8.874  27.505 -18.312  1.00  0.00    -0.616 OA
ENDBRANCH  27  28
ENDBRANCH  24  27
ENDBRANCH  23  24
ENDBRANCH  22  23
ENDBRANCH   3  22
BRANCH   4  32
HETATM   32  O9  UNL     1      -1.981  26.261 -24.434  1.00  0.00    -0.390 OA
ATOM     33  H9  UNL     1      -1.698  26.212 -25.340  1.00  0.00     0.210 HD
ENDBRANCH   4  32
TORSDOF 8
ENDMDL
