MODEL 8
REMARK VINA RESULT: -7.168507271      1.718      2.095
REMARK  8 active torsions:
REMARK  status: ('A' for Active; 'I' for Inactive)
REMARK    1  A    between atoms: N4_10  and  C5_11 
REMARK    2  A    between atoms: C6_13  and  C7_14 
REMARK    3  A    between atoms: C7_14  and  O2_15 
REMARK    4  A    between atoms: O2_15  and  P1_16 
REMARK    5  A    between atoms: P1_16  and  O5_19 
REMARK    6  A    between atoms: O5_19  and  P2_20 
REMARK    7  A    between atoms: C8_24  and  O9_25 
REMARK    8  A    between atoms: C9_27  and  O10_28 
ROOT
HETATM    1  C5  UNL     1      -4.009  25.216 -25.729  1.00  0.00     0.262 C 
HETATM    2  O1  UNL     1      -3.836  25.097 -24.351  1.00  0.00    -0.353 OA
HETATM    3  C6  UNL     1      -3.902  26.345 -23.801  1.00  0.00     0.180 C 
HETATM    4  C8  UNL     1      -4.813  27.196 -24.645  1.00  0.00     0.182 C 
HETATM    5  C9  UNL     1      -4.988  26.336 -25.881  1.00  0.00     0.198 C 
ENDROOT
BRANCH   1   6
HETATM    6  N4  UNL     1      -4.554  23.935 -26.171  1.00  0.00    -0.297 N 
HETATM    7  C2  UNL     1      -3.823  22.960 -26.769  1.00  0.00     0.146 A 
HETATM    8  N2  UNL     1      -2.519  22.887 -27.100  1.00  0.00    -0.314 N 
HETATM    9  C3  UNL     1      -4.710  21.927 -27.023  1.00  0.00     0.146 A 
HETATM   10  C1  UNL     1      -2.081  21.779 -27.690  1.00  0.00     0.196 A 
ATOM     11  H2  UNL     1      -1.885  23.661 -26.903  1.00  0.00     0.170 HD
HETATM   12  N1  UNL     1      -0.712  21.682 -28.047  1.00  0.00    -0.063 NA
HETATM   13  N5  UNL     1      -2.906  20.745 -27.958  1.00  0.00    -0.295 N 
HETATM   14  C10 UNL     1      -4.214  20.790 -27.638  1.00  0.00     0.278 A 
ATOM     15  H5  UNL     1      -2.531  19.912 -28.411  1.00  0.00     0.171 HD
HETATM   16  O11 UNL     1      -4.994  19.811 -27.893  1.00  0.00    -0.265 OA
HETATM   17  N3  UNL     1      -5.950  22.267 -26.588  1.00  0.00    -0.345 N 
HETATM   18  C4  UNL     1      -5.836  23.503 -26.069  1.00  0.00     0.188 A 
ATOM     19  H3  UNL     1      -6.797  21.701 -26.644  1.00  0.00     0.167 HD
ENDBRANCH   1   6
BRANCH   5  20
HETATM   20  O10 UNL     1      -4.677  27.170 -26.976  1.00  0.00    -0.388 OA
ATOM     21  H10 UNL     1      -5.270  27.908 -27.044  1.00  0.00     0.210 HD
ENDBRANCH   5  20
BRANCH   3  22
HETATM   22  C7  UNL     1      -4.436  26.347 -22.396  1.00  0.00     0.216 C 
BRANCH  22  23
HETATM   23  O2  UNL     1      -5.667  26.999 -22.411  1.00  0.00    -0.287 OA
BRANCH  23  24
HETATM   24  P1  UNL     1      -6.678  26.781 -21.263  1.00  0.00     0.418 P 
HETATM   25  O3  UNL     1      -7.912  27.117 -22.308  1.00  0.00    -0.624 OA
HETATM   26  O4  UNL     1      -6.120  25.194 -21.200  1.00  0.00    -0.624 OA
BRANCH  24  27
HETATM   27  O5  UNL     1      -7.703  26.370 -20.193  1.00  0.00    -0.173 OA
BRANCH  27  28
HETATM   28  P2  UNL     1      -7.639  26.309 -18.657  1.00  0.00     0.431 P 
HETATM   29  O6  UNL     1      -7.422  26.000 -17.154  1.00  0.00    -0.616 OA
HETATM   30  O7  UNL     1      -8.197  24.743 -18.828  1.00  0.00    -0.616 OA
HETATM   31  O8  UNL     1      -8.764  27.465 -18.430  1.00  0.00    -0.616 OA
ENDBRANCH  27  28
ENDBRANCH  24  27
ENDBRANCH  23  24
ENDBRANCH  22  23
ENDBRANCH   3  22
BRANCH   4  32
HETATM   32  O9  UNL     1      -4.124  28.380 -24.925  1.00  0.00    -0.390 OA
ATOM     33  H9  UNL     1      -3.664  28.248 -25.746  1.00  0.00     0.210 HD
ENDBRANCH   4  32
TORSDOF 8
ENDMDL
