MODEL 7
REMARK VINA RESULT: -7.191097034      4.195      6.812
REMARK  8 active torsions:
REMARK  status: ('A' for Active; 'I' for Inactive)
REMARK    1  A    between atoms: N4_10  and  C5_11 
REMARK    2  A    between atoms: C6_13  and  C7_14 
REMARK    3  A    between atoms: C7_14  and  O2_15 
REMARK    4  A    between atoms: O2_15  and  P1_16 
REMARK    5  A    between atoms: P1_16  and  O5_19 
REMARK    6  A    between atoms: O5_19  and  P2_20 
REMARK    7  A    between atoms: C8_24  and  O9_25 
REMARK    8  A    between atoms: C9_27  and  O10_28 
ROOT
HETATM    1  C5  UNL     1      -6.318  26.360 -19.745  1.00  0.00     0.262 C 
HETATM    2  O1  UNL     1      -7.628  26.746 -19.461  1.00  0.00    -0.353 OA
HETATM    3  C6  UNL     1      -7.734  26.950 -18.116  1.00  0.00     0.180 C 
HETATM    4  C8  UNL     1      -6.400  27.411 -17.593  1.00  0.00     0.182 C 
HETATM    5  C9  UNL     1      -5.489  27.138 -18.774  1.00  0.00     0.198 C 
ENDROOT
BRANCH   1   6
HETATM    6  N4  UNL     1      -6.080  26.760 -21.129  1.00  0.00    -0.297 N 
HETATM    7  C2  UNL     1      -5.273  26.089 -21.989  1.00  0.00     0.146 A 
HETATM    8  N2  UNL     1      -4.530  24.976 -21.844  1.00  0.00    -0.314 N 
HETATM    9  C3  UNL     1      -5.325  26.794 -23.181  1.00  0.00     0.146 A 
HETATM   10  C1  UNL     1      -3.827  24.547 -22.888  1.00  0.00     0.196 A 
ATOM     11  H2  UNL     1      -4.507  24.474 -20.956  1.00  0.00     0.170 HD
HETATM   12  N1  UNL     1      -3.038  23.376 -22.756  1.00  0.00    -0.063 NA
HETATM   13  N5  UNL     1      -3.846  25.198 -24.070  1.00  0.00    -0.295 N 
HETATM   14  C10 UNL     1      -4.580  26.315 -24.244  1.00  0.00     0.278 A 
ATOM     15  H5  UNL     1      -3.293  24.837 -24.847  1.00  0.00     0.171 HD
HETATM   16  O11 UNL     1      -4.595  26.931 -25.364  1.00  0.00    -0.265 OA
HETATM   17  N3  UNL     1      -6.146  27.867 -23.047  1.00  0.00    -0.345 N 
HETATM   18  C4  UNL     1      -6.599  27.831 -21.781  1.00  0.00     0.188 A 
ATOM     19  H3  UNL     1      -6.372  28.560 -23.760  1.00  0.00     0.167 HD
ENDBRANCH   1   6
BRANCH   5  20
HETATM   20  O10 UNL     1      -4.415  26.378 -18.264  1.00  0.00    -0.388 OA
ATOM     21  H10 UNL     1      -3.953  26.833 -17.570  1.00  0.00     0.210 HD
ENDBRANCH   5  20
BRANCH   3  22
HETATM   22  C7  UNL     1      -8.757  27.988 -17.752  1.00  0.00     0.216 C 
BRANCH  22  23
HETATM   23  O2  UNL     1      -8.338  28.603 -16.574  1.00  0.00    -0.287 OA
BRANCH  23  24
HETATM   24  P1  UNL     1      -9.183  29.730 -15.939  1.00  0.00     0.418 P 
HETATM   25  O3  UNL     1      -9.552  30.283 -17.451  1.00  0.00    -0.624 OA
HETATM   26  O4  UNL     1     -10.153  28.512 -15.297  1.00  0.00    -0.624 OA
BRANCH  24  27
HETATM   27  O5  UNL     1     -10.188  30.727 -15.336  1.00  0.00    -0.173 OA
BRANCH  27  28
HETATM   28  P2  UNL     1     -11.097  30.669 -14.097  1.00  0.00     0.431 P 
HETATM   29  O6  UNL     1     -12.229  30.569 -13.043  1.00  0.00    -0.616 OA
HETATM   30  O7  UNL     1     -12.033  31.801 -14.894  1.00  0.00    -0.616 OA
HETATM   31  O8  UNL     1      -9.966  31.243 -13.075  1.00  0.00    -0.616 OA
ENDBRANCH  27  28
ENDBRANCH  24  27
ENDBRANCH  23  24
ENDBRANCH  22  23
ENDBRANCH   3  22
BRANCH   4  32
HETATM   32  O9  UNL     1      -6.088  26.602 -16.495  1.00  0.00    -0.390 OA
ATOM     33  H9  UNL     1      -5.144  26.489 -16.491  1.00  0.00     0.210 HD
ENDBRANCH   4  32
TORSDOF 8
ENDMDL
