MODEL 1
REMARK VINA RESULT: -6.176118552      0.000      0.000
REMARK  0 active torsions:
REMARK  status: ('A' for Active; 'I' for Inactive)
ROOT
HETATM    1  O1  UNL     1      22.693  16.979  38.931  1.00  0.00    -0.247 OA
HETATM    2  C1  UNL     1      22.138  16.978  40.065  1.00  0.00     0.326 A 
HETATM    3  N1  UNL     1      22.833  16.847  41.285  1.00  0.00    -0.321 N 
ATOM      4  H1  UNL     1      23.847  16.747  41.230  1.00  0.00     0.169 HD
HETATM    5  C2  UNL     1      22.314  16.842  42.451  1.00  0.00     0.090 A 
HETATM    6  C3  UNL     1      20.878  16.977  42.670  1.00  0.00     0.183 A 
HETATM    7  I1  UNL     1      20.405  18.453  44.120  1.00  0.00    -0.069 I 
HETATM    8  C4  UNL     1      20.106  17.116  41.445  1.00  0.00     0.244 A 
HETATM    9  O2  UNL     1      18.827  17.245  41.463  1.00  0.00    -0.271 OA
HETATM   10  N2  UNL     1      20.723  17.117  40.175  1.00  0.00    -0.278 N 
ATOM     11  H2  UNL     1      20.155  17.217  39.334  1.00  0.00     0.173 HD
ENDROOT
TORSDOF 0
ENDMDL
