MODEL 3
REMARK VINA RESULT: -5.261595599      4.282      5.201
REMARK  0 active torsions:
REMARK  status: ('A' for Active; 'I' for Inactive)
ROOT
HETATM    1  O1  UNL     1      16.764  16.593  46.061  1.00  0.00    -0.247 OA
HETATM    2  C1  UNL     1      17.917  16.852  45.617  1.00  0.00     0.326 A 
HETATM    3  N1  UNL     1      19.040  16.020  45.807  1.00  0.00    -0.321 N 
ATOM      4  H1  UNL     1      18.895  15.162  46.338  1.00  0.00     0.169 HD
HETATM    5  C2  UNL     1      20.222  16.241  45.377  1.00  0.00     0.090 A 
HETATM    6  C3  UNL     1      20.565  17.430  44.605  1.00  0.00     0.183 A 
HETATM    7  I1  UNL     1      21.638  16.974  42.831  1.00  0.00    -0.069 I 
HETATM    8  C4  UNL     1      19.444  18.328  44.377  1.00  0.00     0.244 A 
HETATM    9  O2  UNL     1      19.578  19.421  43.713  1.00  0.00    -0.271 OA
HETATM   10  N2  UNL     1      18.153  18.043  44.871  1.00  0.00    -0.278 N 
ATOM     11  H2  UNL     1      17.386  18.692  44.694  1.00  0.00     0.173 HD
ENDROOT
TORSDOF 0
ENDMDL
