MODEL 9
REMARK VINA RESULT: -4.687267157      7.262      8.245
REMARK  0 active torsions:
REMARK  status: ('A' for Active; 'I' for Inactive)
ROOT
HETATM    1  O1  UNL     1      15.661  17.811  45.740  1.00  0.00    -0.247 OA
HETATM    2  C1  UNL     1      15.935  16.702  46.277  1.00  0.00     0.326 A 
HETATM    3  N1  UNL     1      16.928  15.819  45.805  1.00  0.00    -0.321 N 
ATOM      4  H1  UNL     1      17.447  16.109  44.976  1.00  0.00     0.169 HD
HETATM    5  C2  UNL     1      17.239  14.691  46.315  1.00  0.00     0.090 A 
HETATM    6  C3  UNL     1      16.575  14.159  47.501  1.00  0.00     0.183 A 
HETATM    7  I1  UNL     1      17.946  13.496  48.979  1.00  0.00    -0.069 I 
HETATM    8  C4  UNL     1      15.538  15.028  48.035  1.00  0.00     0.244 A 
HETATM    9  O2  UNL     1      14.857  14.705  49.078  1.00  0.00    -0.271 OA
HETATM   10  N2  UNL     1      15.228  16.268  47.437  1.00  0.00    -0.278 N 
ATOM     11  H2  UNL     1      14.496  16.856  47.835  1.00  0.00     0.173 HD
ENDROOT
TORSDOF 0
ENDMDL
