MODEL 2
REMARK VINA RESULT: -5.422221352      2.266      3.236
REMARK  0 active torsions:
REMARK  status: ('A' for Active; 'I' for Inactive)
ROOT
HETATM    1  O1  UNL     1      18.571  17.377  40.637  1.00  0.00    -0.247 OA
HETATM    2  C1  UNL     1      19.276  17.543  41.671  1.00  0.00     0.326 A 
HETATM    3  N1  UNL     1      18.937  18.417  42.725  1.00  0.00    -0.321 N 
ATOM      4  H1  UNL     1      18.067  18.939  42.630  1.00  0.00     0.169 HD
HETATM    5  C2  UNL     1      19.618  18.616  43.786  1.00  0.00     0.090 A 
HETATM    6  C3  UNL     1      20.881  17.932  44.047  1.00  0.00     0.183 A 
HETATM    7  I1  UNL     1      20.956  17.058  45.979  1.00  0.00    -0.069 I 
HETATM    8  C4  UNL     1      21.283  17.016  42.991  1.00  0.00     0.244 A 
HETATM    9  O2  UNL     1      22.371  16.335  43.067  1.00  0.00    -0.271 OA
HETATM   10  N2  UNL     1      20.497  16.827  41.834  1.00  0.00    -0.278 N 
ATOM     11  H2  UNL     1      20.806  16.176  41.111  1.00  0.00     0.173 HD
ENDROOT
TORSDOF 0
ENDMDL
