MODEL 7
REMARK VINA RESULT: -6.982230526      3.037      4.542
REMARK  4 active torsions:
REMARK  status: ('A' for Active; 'I' for Inactive)
REMARK    1  A    between atoms: N1_1  and  C1_5 
REMARK    2  A    between atoms: C1_5  and  C2_6 
REMARK    3  A    between atoms: C1_5  and  C11_19 
REMARK    4  A    between atoms: C2_6  and  C3_7 
ROOT
HETATM    1  C3  UNL     1      33.693  -1.024  78.828  1.00  0.00    -0.042 C 
HETATM    2  C4  UNL     1      33.160  -2.218  78.821  1.00  0.00     0.049 C 
HETATM    3  C5  UNL     1      33.863  -3.496  79.110  1.00  0.00     0.274 C 
HETATM    4  O1  UNL     1      34.856  -3.619  79.823  1.00  0.00    -0.266 OA
HETATM    5  N2  UNL     1      33.100  -4.459  78.372  1.00  0.00    -0.230 N 
ATOM      6  H2  UNL     1      33.397  -5.419  78.198  1.00  0.00     0.197 HD
HETATM    7  O2  UNL     1      31.935  -3.929  77.937  1.00  0.00    -0.267 OA
HETATM    8  C6  UNL     1      31.792  -2.671  78.549  1.00  0.00     0.191 C 
HETATM    9  C7  UNL     1      30.829  -1.844  77.869  1.00  0.00     0.043 C 
HETATM   10  C8  UNL     1      31.206  -0.700  77.020  1.00  0.00     0.030 C 
HETATM   11  C9  UNL     1      31.892   0.400  77.762  1.00  0.00    -0.026 C 
HETATM   12  C10 UNL     1      32.954   0.226  78.528  1.00  0.00     0.004 C 
ENDROOT
BRANCH   1  13
HETATM   13  C2  UNL     1      35.103  -0.903  79.143  1.00  0.00     0.083 C 
BRANCH  13  14
HETATM   14  C1  UNL     1      36.061  -1.213  78.042  1.00  0.00     0.287 C 
BRANCH  14  15
HETATM   15  N1  UNL     1      37.233  -1.815  78.653  1.00  0.00    -0.065 N 
ATOM     16  H13 UNL     1      37.819  -1.141  79.144  1.00  0.00     0.275 HD
ATOM     17  H12 UNL     1      37.009  -2.403  79.455  1.00  0.00     0.275 HD
ATOM     18  H11 UNL     1      37.730  -2.317  77.916  1.00  0.00     0.275 HD
ENDBRANCH  14  15
BRANCH  14  19
HETATM   19  C11 UNL     1      36.478   0.043  77.400  1.00  0.00     0.204 C 
HETATM   20  O3  UNL     1      36.251   1.184  77.887  1.00  0.00    -0.646 OA
HETATM   21  O4  UNL     1      37.156  -0.004  76.196  1.00  0.00    -0.646 OA
ENDBRANCH  14  19
ENDBRANCH  13  14
ENDBRANCH   1  13
TORSDOF 4
ENDMDL
