MODEL 2
REMARK VINA RESULT: -8.739869806      1.959      2.820
REMARK  4 active torsions:
REMARK  status: ('A' for Active; 'I' for Inactive)
REMARK    1  A    between atoms: N1_1  and  C1_5 
REMARK    2  A    between atoms: C1_5  and  C2_6 
REMARK    3  A    between atoms: C1_5  and  C11_19 
REMARK    4  A    between atoms: C2_6  and  C3_7 
ROOT
HETATM    1  C3  UNL     1      33.370  -0.079  77.542  1.00  0.00    -0.042 C 
HETATM    2  C4  UNL     1      33.168  -1.368  77.455  1.00  0.00     0.049 C 
HETATM    3  C5  UNL     1      31.847  -2.049  77.402  1.00  0.00     0.274 C 
HETATM    4  O1  UNL     1      30.806  -1.556  76.973  1.00  0.00    -0.266 OA
HETATM    5  N2  UNL     1      32.128  -3.342  77.953  1.00  0.00    -0.230 N 
ATOM      6  H2  UNL     1      31.415  -4.017  78.232  1.00  0.00     0.197 HD
HETATM    7  O2  UNL     1      33.459  -3.551  78.055  1.00  0.00    -0.267 OA
HETATM    8  C6  UNL     1      34.102  -2.497  77.383  1.00  0.00     0.191 C 
HETATM    9  C7  UNL     1      35.485  -2.376  77.762  1.00  0.00     0.043 C 
HETATM   10  C8  UNL     1      35.990  -1.303  78.638  1.00  0.00     0.030 C 
HETATM   11  C9  UNL     1      35.844   0.066  78.058  1.00  0.00    -0.026 C 
HETATM   12  C10 UNL     1      34.708   0.558  77.598  1.00  0.00     0.004 C 
ENDROOT
BRANCH   1  13
HETATM   13  C2  UNL     1      32.215   0.795  77.596  1.00  0.00     0.083 C 
BRANCH  13  14
HETATM   14  C1  UNL     1      31.632   1.211  76.287  1.00  0.00     0.287 C 
BRANCH  14  15
HETATM   15  N1  UNL     1      32.736   1.641  75.446  1.00  0.00    -0.065 N 
ATOM     16  H13 UNL     1      32.831   2.655  75.398  1.00  0.00     0.275 HD
ATOM     17  H12 UNL     1      33.650   1.443  75.853  1.00  0.00     0.275 HD
ATOM     18  H11 UNL     1      32.602   1.207  74.532  1.00  0.00     0.275 HD
ENDBRANCH  14  15
BRANCH  14  19
HETATM   19  C11 UNL     1      30.747   2.366  76.501  1.00  0.00     0.204 C 
HETATM   20  O3  UNL     1      29.747   2.346  77.268  1.00  0.00    -0.646 OA
HETATM   21  O4  UNL     1      31.005   3.550  75.835  1.00  0.00    -0.646 OA
ENDBRANCH  14  19
ENDBRANCH  13  14
ENDBRANCH   1  13
TORSDOF 4
ENDMDL
