MODEL 6
REMARK VINA RESULT: -7.036310888      2.552      5.202
REMARK  4 active torsions:
REMARK  status: ('A' for Active; 'I' for Inactive)
REMARK    1  A    between atoms: N1_1  and  C1_5 
REMARK    2  A    between atoms: C1_5  and  C2_6 
REMARK    3  A    between atoms: C1_5  and  C11_19 
REMARK    4  A    between atoms: C2_6  and  C3_7 
ROOT
HETATM    1  C3  UNL     1      33.477  -1.294  78.423  1.00  0.00    -0.042 C 
HETATM    2  C4  UNL     1      33.000  -0.345  77.661  1.00  0.00     0.049 C 
HETATM    3  C5  UNL     1      31.653  -0.317  77.031  1.00  0.00     0.274 C 
HETATM    4  O1  UNL     1      30.651  -0.882  77.464  1.00  0.00    -0.266 OA
HETATM    5  N2  UNL     1      31.856   0.498  75.870  1.00  0.00    -0.230 N 
ATOM      6  H2  UNL     1      31.186   0.590  75.106  1.00  0.00     0.197 HD
HETATM    7  O2  UNL     1      33.050   1.128  75.918  1.00  0.00    -0.267 OA
HETATM    8  C6  UNL     1      33.583   0.920  77.202  1.00  0.00     0.191 C 
HETATM    9  C7  UNL     1      34.999   1.176  77.250  1.00  0.00     0.043 C 
HETATM   10  C8  UNL     1      36.009   0.106  77.333  1.00  0.00     0.030 C 
HETATM   11  C9  UNL     1      35.931  -0.699  78.589  1.00  0.00    -0.026 C 
HETATM   12  C10 UNL     1      34.831  -1.285  79.026  1.00  0.00     0.004 C 
ENDROOT
BRANCH   1  13
HETATM   13  C2  UNL     1      32.636  -2.443  78.697  1.00  0.00     0.083 C 
BRANCH  13  14
HETATM   14  C1  UNL     1      33.112  -3.758  78.175  1.00  0.00     0.287 C 
BRANCH  14  15
HETATM   15  N1  UNL     1      32.930  -3.737  76.734  1.00  0.00    -0.065 N 
ATOM     16  H13 UNL     1      31.988  -4.003  76.446  1.00  0.00     0.275 HD
ATOM     17  H12 UNL     1      32.924  -2.794  76.345  1.00  0.00     0.275 HD
ATOM     18  H11 UNL     1      33.655  -4.331  76.332  1.00  0.00     0.275 HD
ENDBRANCH  14  15
BRANCH  14  19
HETATM   19  C11 UNL     1      32.265  -4.828  78.725  1.00  0.00     0.204 C 
HETATM   20  O3  UNL     1      31.013  -4.870  78.581  1.00  0.00    -0.646 OA
HETATM   21  O4  UNL     1      32.852  -5.854  79.441  1.00  0.00    -0.646 OA
ENDBRANCH  14  19
ENDBRANCH  13  14
ENDBRANCH   1  13
TORSDOF 4
ENDMDL
