MODEL 10
REMARK VINA RESULT: -6.816320910      3.356      4.615
REMARK  4 active torsions:
REMARK  status: ('A' for Active; 'I' for Inactive)
REMARK    1  A    between atoms: N1_1  and  C1_5 
REMARK    2  A    between atoms: C1_5  and  C2_6 
REMARK    3  A    between atoms: C1_5  and  C11_19 
REMARK    4  A    between atoms: C2_6  and  C3_7 
ROOT
HETATM    1  C3  UNL     1      33.416  -1.193  78.106  1.00  0.00    -0.042 C 
HETATM    2  C4  UNL     1      34.690  -1.485  78.061  1.00  0.00     0.049 C 
HETATM    3  C5  UNL     1      35.372  -2.562  78.826  1.00  0.00     0.274 C 
HETATM    4  O1  UNL     1      34.844  -3.598  79.226  1.00  0.00    -0.266 OA
HETATM    5  N2  UNL     1      36.714  -2.074  78.945  1.00  0.00    -0.230 N 
ATOM      6  H2  UNL     1      37.421  -2.475  79.562  1.00  0.00     0.197 HD
HETATM    7  O2  UNL     1      36.922  -1.014  78.133  1.00  0.00    -0.267 OA
HETATM    8  C6  UNL     1      35.797  -0.897  77.299  1.00  0.00     0.191 C 
HETATM    9  C7  UNL     1      35.706   0.405  76.691  1.00  0.00     0.043 C 
HETATM   10  C8  UNL     1      34.728   1.424  77.112  1.00  0.00     0.030 C 
HETATM   11  C9  UNL     1      33.307   1.025  76.890  1.00  0.00    -0.026 C 
HETATM   12  C10 UNL     1      32.778  -0.103  77.329  1.00  0.00     0.004 C 
ENDROOT
BRANCH   1  13
HETATM   13  C2  UNL     1      32.562  -1.976  78.977  1.00  0.00     0.083 C 
BRANCH  13  14
HETATM   14  C1  UNL     1      31.452  -2.728  78.322  1.00  0.00     0.287 C 
BRANCH  14  15
HETATM   15  N1  UNL     1      30.328  -2.716  79.241  1.00  0.00    -0.065 N 
ATOM     16  H13 UNL     1      30.026  -1.775  79.492  1.00  0.00     0.275 HD
ATOM     17  H12 UNL     1      29.455  -3.023  78.811  1.00  0.00     0.275 HD
ATOM     18  H11 UNL     1      30.595  -3.280  80.049  1.00  0.00     0.275 HD
ENDBRANCH  14  15
BRANCH  14  19
HETATM   19  C11 UNL     1      31.867  -4.126  78.129  1.00  0.00     0.204 C 
HETATM   20  O3  UNL     1      31.535  -5.065  78.902  1.00  0.00    -0.646 OA
HETATM   21  O4  UNL     1      32.664  -4.453  77.048  1.00  0.00    -0.646 OA
ENDBRANCH  14  19
ENDBRANCH  13  14
ENDBRANCH   1  13
TORSDOF 4
ENDMDL
