MODEL 3
REMARK VINA RESULT: -8.006949744      2.329      3.127
REMARK  4 active torsions:
REMARK  status: ('A' for Active; 'I' for Inactive)
REMARK    1  A    between atoms: N1_1  and  C1_5 
REMARK    2  A    between atoms: C1_5  and  C2_6 
REMARK    3  A    between atoms: C1_5  and  C11_19 
REMARK    4  A    between atoms: C2_6  and  C3_7 
ROOT
HETATM    1  C3  UNL     1      33.412  -0.145  77.220  1.00  0.00    -0.042 C 
HETATM    2  C4  UNL     1      32.956  -1.338  77.501  1.00  0.00     0.049 C 
HETATM    3  C5  UNL     1      31.613  -1.871  77.148  1.00  0.00     0.274 C 
HETATM    4  O1  UNL     1      30.931  -1.511  76.191  1.00  0.00    -0.266 OA
HETATM    5  N2  UNL     1      31.375  -2.848  78.169  1.00  0.00    -0.230 N 
ATOM      6  H2  UNL     1      30.472  -3.291  78.343  1.00  0.00     0.197 HD
HETATM    7  O2  UNL     1      32.500  -3.106  78.871  1.00  0.00    -0.267 OA
HETATM    8  C6  UNL     1      33.564  -2.471  78.207  1.00  0.00     0.191 C 
HETATM    9  C7  UNL     1      34.719  -2.319  79.053  1.00  0.00     0.043 C 
HETATM   10  C8  UNL     1      35.127  -1.028  79.636  1.00  0.00     0.030 C 
HETATM   11  C9  UNL     1      35.516  -0.005  78.620  1.00  0.00    -0.026 C 
HETATM   12  C10 UNL     1      34.757   0.349  77.598  1.00  0.00     0.004 C 
ENDROOT
BRANCH   1  13
HETATM   13  C2  UNL     1      32.548   0.767  76.495  1.00  0.00     0.083 C 
BRANCH  13  14
HETATM   14  C1  UNL     1      31.894   1.843  77.295  1.00  0.00     0.287 C 
BRANCH  14  15
HETATM   15  N1  UNL     1      31.148   1.192  78.358  1.00  0.00    -0.065 N 
ATOM     16  H13 UNL     1      31.746   0.708  79.027  1.00  0.00     0.275 HD
ATOM     17  H12 UNL     1      30.725   1.850  79.012  1.00  0.00     0.275 HD
ATOM     18  H11 UNL     1      30.466   0.577  77.912  1.00  0.00     0.275 HD
ENDBRANCH  14  15
BRANCH  14  19
HETATM   19  C11 UNL     1      30.936   2.562  76.441  1.00  0.00     0.204 C 
HETATM   20  O3  UNL     1      31.262   3.495  75.659  1.00  0.00    -0.646 OA
HETATM   21  O4  UNL     1      29.599   2.212  76.481  1.00  0.00    -0.646 OA
ENDBRANCH  14  19
ENDBRANCH  13  14
ENDBRANCH   1  13
TORSDOF 4
ENDMDL
