MODEL 3
REMARK VINA RESULT: -6.507330668      3.186      7.416
REMARK  11 active torsions:
REMARK  status: ('A' for Active; 'I' for Inactive)
REMARK    1  A    between atoms: C2_2  and  N1_4 
REMARK    2  A    between atoms: N1_4  and  C3_6 
REMARK    3  A    between atoms: C4_7  and  O1_8 
REMARK    4  A    between atoms: O1_8  and  C5_9 
REMARK    5  A    between atoms: C6_10  and  C7_11 
REMARK    6  A    between atoms: C7_11  and  O2_12 
REMARK    7  A    between atoms: C12_22  and  O4_23 
REMARK    8  A    between atoms: C13_26  and  C14_27 
REMARK    9  A    between atoms: C14_27  and  O6_28 
REMARK   10  A    between atoms: C15_30  and  O7_31 
REMARK   11  A    between atoms: C16_33  and  O8_34 
ROOT
HETATM    1  C3  UNL     1      27.341  74.379  -3.833  1.00  0.00     0.168 C 
HETATM    2  C4  UNL     1      28.385  73.279  -3.736  1.00  0.00     0.286 C 
HETATM    3  O5  UNL     1      28.429  72.829  -2.426  1.00  0.00    -0.349 OA
HETATM    4  C13 UNL     1      28.681  73.803  -1.497  1.00  0.00     0.179 C 
HETATM    5  C15 UNL     1      27.397  74.626  -1.344  1.00  0.00     0.180 C 
HETATM    6  C16 UNL     1      26.508  74.399  -2.554  1.00  0.00     0.176 C 
ENDROOT
BRANCH   2   7
HETATM    7  O1  UNL     1      28.170  72.219  -4.570  1.00  0.00    -0.348 OA
BRANCH   7   8
HETATM    8  C5  UNL     1      29.187  71.931  -5.466  1.00  0.00     0.186 C 
HETATM    9  C6  UNL     1      29.044  72.633  -6.797  1.00  0.00     0.178 C 
HETATM   10  O3  UNL     1      29.238  71.801  -7.887  1.00  0.00    -0.363 OA
HETATM   11  C8  UNL     1      30.388  71.045  -7.818  1.00  0.00     0.214 C 
HETATM   12  S2  UNL     1      30.150  69.652  -8.995  1.00  0.00    -0.083 SA
HETATM   13  C11 UNL     1      30.505  70.244  -6.552  1.00  0.00     0.152 C 
HETATM   14  C9  UNL     1      30.787  68.403  -7.878  1.00  0.00     0.041 C 
HETATM   15  C10 UNL     1      31.152  67.002  -8.206  1.00  0.00     0.076 C 
HETATM   16  N2  UNL     1      30.863  68.943  -6.767  1.00  0.00    -0.378 N 
ATOM     17  H2  UNL     1      31.208  68.395  -5.979  1.00  0.00     0.160 HD
HETATM   18  C12 UNL     1      29.170  70.429  -5.819  1.00  0.00     0.175 C 
BRANCH   9  19
HETATM   19  C7  UNL     1      29.968  73.827  -6.817  1.00  0.00     0.198 C 
BRANCH  19  20
HETATM   20  O2  UNL     1      29.197  74.978  -6.953  1.00  0.00    -0.398 OA
ATOM     21  H2  UNL     1      29.241  75.467  -6.140  1.00  0.00     0.209 HD
ENDBRANCH  19  20
ENDBRANCH   9  19
BRANCH  18  22
HETATM   22  O4  UNL     1      29.087  69.651  -4.694  1.00  0.00    -0.391 OA
ATOM     23  H4  UNL     1      29.177  68.728  -4.901  1.00  0.00     0.210 HD
ENDBRANCH  18  22
ENDBRANCH   7   8
ENDBRANCH   2   7
BRANCH   1  24
HETATM   24  N1  UNL     1      27.968  75.670  -4.007  1.00  0.00    -0.373 N 
ATOM     25  H1  UNL     1      28.947  75.756  -3.733  1.00  0.00     0.160 HD
BRANCH  24  26
HETATM   26  C2  UNL     1      27.338  76.817  -4.524  1.00  0.00     0.070 C 
HETATM   27  C1  UNL     1      27.553  78.179  -3.988  1.00  0.00     0.081 C 
HETATM   28  S1  UNL     1      26.300  76.664  -5.799  1.00  0.00    -0.066 SA
ENDBRANCH  24  26
ENDBRANCH   1  24
BRANCH   6  29
HETATM   29  O8  UNL     1      25.888  73.173  -2.423  1.00  0.00    -0.391 OA
ATOM     30  H8  UNL     1      25.069  73.201  -2.903  1.00  0.00     0.210 HD
ENDBRANCH   6  29
BRANCH   4  31
HETATM   31  C14 UNL     1      28.922  73.089  -0.159  1.00  0.00     0.198 C 
BRANCH  31  32
HETATM   32  O6  UNL     1      28.333  71.823  -0.185  1.00  0.00    -0.398 OA
ATOM     33  H6  UNL     1      28.980  71.163   0.031  1.00  0.00     0.209 HD
ENDBRANCH  31  32
ENDBRANCH   4  31
BRANCH   5  34
HETATM   34  O7  UNL     1      27.781  75.948  -1.215  1.00  0.00    -0.390 OA
ATOM     35  H7  UNL     1      27.326  76.295  -0.456  1.00  0.00     0.210 HD
ENDBRANCH   5  34
TORSDOF 11
ENDMDL
