MODEL 1
REMARK VINA RESULT: -6.722357913      0.000      0.000
REMARK  11 active torsions:
REMARK  status: ('A' for Active; 'I' for Inactive)
REMARK    1  A    between atoms: C2_2  and  N1_4 
REMARK    2  A    between atoms: N1_4  and  C3_6 
REMARK    3  A    between atoms: C4_7  and  O1_8 
REMARK    4  A    between atoms: O1_8  and  C5_9 
REMARK    5  A    between atoms: C6_10  and  C7_11 
REMARK    6  A    between atoms: C7_11  and  O2_12 
REMARK    7  A    between atoms: C12_22  and  O4_23 
REMARK    8  A    between atoms: C13_26  and  C14_27 
REMARK    9  A    between atoms: C14_27  and  O6_28 
REMARK   10  A    between atoms: C15_30  and  O7_31 
REMARK   11  A    between atoms: C16_33  and  O8_34 
ROOT
HETATM    1  C3  UNL     1      27.477  73.674  -4.683  1.00  0.00     0.168 C 
HETATM    2  C4  UNL     1      27.797  74.147  -3.274  1.00  0.00     0.286 C 
HETATM    3  O5  UNL     1      27.215  75.391  -3.087  1.00  0.00    -0.349 OA
HETATM    4  C13 UNL     1      27.590  76.339  -4.001  1.00  0.00     0.179 C 
HETATM    5  C15 UNL     1      26.866  76.016  -5.312  1.00  0.00     0.180 C 
HETATM    6  C16 UNL     1      26.400  74.571  -5.286  1.00  0.00     0.176 C 
ENDROOT
BRANCH   2   7
HETATM    7  O1  UNL     1      27.381  73.302  -2.285  1.00  0.00    -0.348 OA
BRANCH   7   8
HETATM    8  C5  UNL     1      26.706  73.887  -1.225  1.00  0.00     0.186 C 
HETATM    9  C6  UNL     1      27.389  73.701   0.110  1.00  0.00     0.178 C 
HETATM   10  O3  UNL     1      26.532  73.300   1.120  1.00  0.00    -0.363 OA
HETATM   11  C8  UNL     1      25.388  74.063   1.222  1.00  0.00     0.214 C 
HETATM   12  S2  UNL     1      24.181  73.043   2.163  1.00  0.00    -0.083 SA
HETATM   13  C11 UNL     1      24.623  74.173  -0.066  1.00  0.00     0.152 C 
HETATM   14  C9  UNL     1      22.799  73.416   1.084  1.00  0.00     0.041 C 
HETATM   15  C10 UNL     1      21.362  73.137   1.331  1.00  0.00     0.076 C 
HETATM   16  N2  UNL     1      23.283  73.954   0.081  1.00  0.00    -0.378 N 
ATOM     17  H2  UNL     1      22.655  74.248  -0.668  1.00  0.00     0.160 HD
HETATM   18  C12 UNL     1      25.325  73.224  -1.048  1.00  0.00     0.175 C 
BRANCH   9  19
HETATM   19  C7  UNL     1      28.129  74.970   0.458  1.00  0.00     0.198 C 
BRANCH  19  20
HETATM   20  O2  UNL     1      27.792  75.947  -0.473  1.00  0.00    -0.398 OA
ATOM     21  H2  UNL     1      28.301  76.728  -0.288  1.00  0.00     0.209 HD
ENDBRANCH  19  20
ENDBRANCH   9  19
BRANCH  18  22
HETATM   22  O4  UNL     1      24.656  73.131  -2.241  1.00  0.00    -0.391 OA
ATOM     23  H4  UNL     1      23.860  73.650  -2.235  1.00  0.00     0.210 HD
ENDBRANCH  18  22
ENDBRANCH   7   8
ENDBRANCH   2   7
BRANCH   1  24
HETATM   24  N1  UNL     1      28.654  73.722  -5.520  1.00  0.00    -0.373 N 
ATOM     25  H1  UNL     1      28.947  74.636  -5.865  1.00  0.00     0.160 HD
BRANCH  24  26
HETATM   26  C2  UNL     1      29.428  72.610  -5.899  1.00  0.00     0.070 C 
HETATM   27  C1  UNL     1      29.890  71.573  -4.949  1.00  0.00     0.081 C 
HETATM   28  S1  UNL     1      29.858  72.425  -7.483  1.00  0.00    -0.066 SA
ENDBRANCH  24  26
ENDBRANCH   1  24
BRANCH   6  29
HETATM   29  O8  UNL     1      25.273  74.485  -4.494  1.00  0.00    -0.391 OA
ATOM     30  H8  UNL     1      24.519  74.372  -5.062  1.00  0.00     0.210 HD
ENDBRANCH   6  29
BRANCH   4  31
HETATM   31  C14 UNL     1      27.039  77.682  -3.499  1.00  0.00     0.198 C 
BRANCH  31  32
HETATM   32  O6  UNL     1      26.208  77.471  -2.397  1.00  0.00    -0.398 OA
ATOM     33  H6  UNL     1      26.056  78.293  -1.947  1.00  0.00     0.209 HD
ENDBRANCH  31  32
ENDBRANCH   4  31
BRANCH   5  34
HETATM   34  O7  UNL     1      27.762  76.261  -6.336  1.00  0.00    -0.390 OA
ATOM     35  H7  UNL     1      27.487  77.068  -6.756  1.00  0.00     0.210 HD
ENDBRANCH   5  34
TORSDOF 11
ENDMDL
