MODEL 2
REMARK VINA RESULT: -6.693920175      2.496      6.557
REMARK  11 active torsions:
REMARK  status: ('A' for Active; 'I' for Inactive)
REMARK    1  A    between atoms: C2_2  and  N1_4 
REMARK    2  A    between atoms: N1_4  and  C3_6 
REMARK    3  A    between atoms: C4_7  and  O1_8 
REMARK    4  A    between atoms: O1_8  and  C5_9 
REMARK    5  A    between atoms: C6_10  and  C7_11 
REMARK    6  A    between atoms: C7_11  and  O2_12 
REMARK    7  A    between atoms: C12_22  and  O4_23 
REMARK    8  A    between atoms: C13_26  and  C14_27 
REMARK    9  A    between atoms: C14_27  and  O6_28 
REMARK   10  A    between atoms: C15_30  and  O7_31 
REMARK   11  A    between atoms: C16_33  and  O8_34 
ROOT
HETATM    1  C3  UNL     1      24.345  73.308   0.217  1.00  0.00     0.168 C 
HETATM    2  C4  UNL     1      25.422  74.151   0.882  1.00  0.00     0.286 C 
HETATM    3  O5  UNL     1      25.039  74.397   2.191  1.00  0.00    -0.349 OA
HETATM    4  C13 UNL     1      23.817  75.000   2.325  1.00  0.00     0.179 C 
HETATM    5  C15 UNL     1      22.753  73.934   2.042  1.00  0.00     0.180 C 
HETATM    6  C16 UNL     1      23.385  72.782   1.281  1.00  0.00     0.176 C 
ENDROOT
BRANCH   2   7
HETATM    7  O1  UNL     1      26.666  73.589   0.874  1.00  0.00    -0.348 OA
BRANCH   7   8
HETATM    8  C5  UNL     1      27.484  73.933  -0.191  1.00  0.00     0.186 C 
HETATM    9  C6  UNL     1      26.872  74.947  -1.128  1.00  0.00     0.178 C 
HETATM   10  O3  UNL     1      27.000  74.614  -2.466  1.00  0.00    -0.363 OA
HETATM   11  C8  UNL     1      28.281  74.268  -2.838  1.00  0.00     0.214 C 
HETATM   12  S2  UNL     1      28.116  73.328  -4.411  1.00  0.00    -0.083 SA
HETATM   13  C11 UNL     1      28.878  73.178  -1.994  1.00  0.00     0.152 C 
HETATM   14  C9  UNL     1      29.276  72.045  -3.939  1.00  0.00     0.041 C 
HETATM   15  C10 UNL     1      29.878  71.009  -4.815  1.00  0.00     0.076 C 
HETATM   16  N2  UNL     1      29.477  72.194  -2.727  1.00  0.00    -0.378 N 
ATOM     17  H2  UNL     1      30.116  71.554  -2.256  1.00  0.00     0.160 HD
HETATM   18  C12 UNL     1      27.746  72.697  -1.076  1.00  0.00     0.175 C 
BRANCH   9  19
HETATM   19  C7  UNL     1      27.451  76.307  -0.819  1.00  0.00     0.198 C 
BRANCH  19  20
HETATM   20  O2  UNL     1      26.635  77.275  -1.395  1.00  0.00    -0.398 OA
ATOM     21  H2  UNL     1      27.084  78.111  -1.352  1.00  0.00     0.209 HD
ENDBRANCH  19  20
ENDBRANCH   9  19
BRANCH  18  22
HETATM   22  O4  UNL     1      28.117  71.611  -0.326  1.00  0.00    -0.391 OA
ATOM     23  H4  UNL     1      27.521  70.882  -0.450  1.00  0.00     0.210 HD
ENDBRANCH  18  22
ENDBRANCH   7   8
ENDBRANCH   2   7
BRANCH   1  24
HETATM   24  N1  UNL     1      23.601  74.090  -0.744  1.00  0.00    -0.373 N 
ATOM     25  H1  UNL     1      23.432  75.071  -0.520  1.00  0.00     0.160 HD
BRANCH  24  26
HETATM   26  C2  UNL     1      23.090  73.608  -1.963  1.00  0.00     0.070 C 
HETATM   27  C1  UNL     1      23.942  73.215  -3.108  1.00  0.00     0.081 C 
HETATM   28  S1  UNL     1      21.457  73.459  -2.153  1.00  0.00    -0.066 SA
ENDBRANCH  24  26
ENDBRANCH   1  24
BRANCH   6  29
HETATM   29  O8  UNL     1      24.106  72.009   2.169  1.00  0.00    -0.391 OA
ATOM     30  H8  UNL     1      23.824  72.226   3.050  1.00  0.00     0.210 HD
ENDBRANCH   6  29
BRANCH   4  31
HETATM   31  C14 UNL     1      23.677  75.398   3.801  1.00  0.00     0.198 C 
BRANCH  31  32
HETATM   32  O6  UNL     1      22.392  75.887   4.041  1.00  0.00    -0.398 OA
ATOM     33  H6  UNL     1      22.418  76.832   4.133  1.00  0.00     0.209 HD
ENDBRANCH  31  32
ENDBRANCH   4  31
BRANCH   5  34
HETATM   34  O7  UNL     1      21.748  74.552   1.321  1.00  0.00    -0.390 OA
ATOM     35  H7  UNL     1      22.166  75.199   0.764  1.00  0.00     0.210 HD
ENDBRANCH   5  34
TORSDOF 11
ENDMDL
