MODEL 1
REMARK VINA RESULT: -7.930543305      0.000      0.000
REMARK  10 active torsions:
REMARK  status: ('A' for Active; 'I' for Inactive)
REMARK       I    between atoms: C2_2  and  N1_4 
REMARK    1  A    between atoms: N1_4  and  C3_6 
REMARK    2  A    between atoms: C4_7  and  O2_8 
REMARK    3  A    between atoms: O2_8  and  C5_9 
REMARK    4  A    between atoms: C6_10  and  C7_11 
REMARK    5  A    between atoms: C7_11  and  O3_12 
REMARK    6  A    between atoms: C12_22  and  O5_23 
REMARK    7  A    between atoms: C13_26  and  C14_27 
REMARK    8  A    between atoms: C14_27  and  O7_28 
REMARK    9  A    between atoms: C15_30  and  O8_31 
REMARK   10  A    between atoms: C16_33  and  O9_34 
ROOT
HETATM    1  C3  UNL     1      26.966  73.810   0.679  1.00  0.00     0.170 C 
HETATM    2  C4  UNL     1      26.654  73.168  -0.655  1.00  0.00     0.286 C 
HETATM    3  O6  UNL     1      25.490  73.839  -1.113  1.00  0.00    -0.349 OA
HETATM    4  C13 UNL     1      24.401  73.348  -0.441  1.00  0.00     0.179 C 
HETATM    5  C15 UNL     1      24.492  73.398   1.040  1.00  0.00     0.180 C 
HETATM    6  C16 UNL     1      25.798  73.779   1.613  1.00  0.00     0.177 C 
ENDROOT
BRANCH   2   7
HETATM    7  O2  UNL     1      27.689  73.349  -1.553  1.00  0.00    -0.348 OA
BRANCH   7   8
HETATM    8  C5  UNL     1      27.329  74.066  -2.691  1.00  0.00     0.186 C 
HETATM    9  C6  UNL     1      27.633  73.347  -3.979  1.00  0.00     0.178 C 
HETATM   10  O4  UNL     1      28.468  74.099  -4.801  1.00  0.00    -0.363 OA
HETATM   11  C8  UNL     1      27.902  75.312  -5.157  1.00  0.00     0.214 C 
HETATM   12  S1  UNL     1      29.283  76.378  -5.742  1.00  0.00    -0.083 SA
HETATM   13  C11 UNL     1      27.453  76.117  -3.979  1.00  0.00     0.152 C 
HETATM   14  C9  UNL     1      28.769  77.807  -4.754  1.00  0.00     0.041 C 
HETATM   15  C10 UNL     1      29.348  79.147  -4.899  1.00  0.00     0.076 C 
HETATM   16  N2  UNL     1      27.887  77.409  -3.993  1.00  0.00    -0.378 N 
ATOM     17  H2  UNL     1      27.463  78.074  -3.347  1.00  0.00     0.160 HD
HETATM   18  C12 UNL     1      28.040  75.405  -2.751  1.00  0.00     0.175 C 
BRANCH   9  19
HETATM   19  C7  UNL     1      26.378  72.913  -4.701  1.00  0.00     0.198 C 
BRANCH  19  20
HETATM   20  O3  UNL     1      25.311  73.088  -3.837  1.00  0.00    -0.398 OA
ATOM     21  H3  UNL     1      24.622  72.489  -4.101  1.00  0.00     0.209 HD
ENDBRANCH  19  20
ENDBRANCH   9  19
BRANCH  18  22
HETATM   22  O5  UNL     1      27.858  76.151  -1.600  1.00  0.00    -0.391 OA
ATOM     23  H5  UNL     1      28.570  76.762  -1.448  1.00  0.00     0.210 HD
ENDBRANCH  18  22
ENDBRANCH   7   8
ENDBRANCH   2   7
BRANCH   1  24
HETATM   24  N1  UNL     1      28.171  73.278   1.284  1.00  0.00    -0.349 N 
HETATM   25  C2  UNL     1      29.278  74.123   1.560  1.00  0.00     0.214 C 
HETATM   26  C1  UNL     1      30.523  73.598   2.178  1.00  0.00     0.117 C 
HETATM   27  O1  UNL     1      29.159  75.355   1.255  1.00  0.00    -0.274 OA
ATOM     28  H1  UNL     1      28.224  72.287   1.513  1.00  0.00     0.163 HD
ENDBRANCH   1  24
BRANCH   6  29
HETATM   29  O9  UNL     1      25.723  75.005   2.315  1.00  0.00    -0.391 OA
ATOM     30  H9  UNL     1      24.812  75.259   2.411  1.00  0.00     0.210 HD
ENDBRANCH   6  29
BRANCH   4  31
HETATM   31  C14 UNL     1      23.161  74.049  -0.965  1.00  0.00     0.198 C 
BRANCH  31  32
HETATM   32  O7  UNL     1      23.476  74.866  -2.057  1.00  0.00    -0.398 OA
ATOM     33  H7  UNL     1      23.434  74.375  -2.870  1.00  0.00     0.209 HD
ENDBRANCH  31  32
ENDBRANCH   4  31
BRANCH   5  34
HETATM   34  O8  UNL     1      24.027  72.184   1.599  1.00  0.00    -0.390 OA
ATOM     35  H8  UNL     1      24.740  71.723   2.023  1.00  0.00     0.210 HD
ENDBRANCH   5  34
TORSDOF 10
ENDMDL
