MODEL 4
REMARK VINA RESULT: -6.882962246      2.550      4.672
REMARK  10 active torsions:
REMARK  status: ('A' for Active; 'I' for Inactive)
REMARK       I    between atoms: C2_2  and  N1_4 
REMARK    1  A    between atoms: N1_4  and  C3_6 
REMARK    2  A    between atoms: C4_7  and  O2_8 
REMARK    3  A    between atoms: O2_8  and  C5_9 
REMARK    4  A    between atoms: C6_10  and  C7_11 
REMARK    5  A    between atoms: C7_11  and  O3_12 
REMARK    6  A    between atoms: C12_22  and  O5_23 
REMARK    7  A    between atoms: C13_26  and  C14_27 
REMARK    8  A    between atoms: C14_27  and  O7_28 
REMARK    9  A    between atoms: C15_30  and  O8_31 
REMARK   10  A    between atoms: C16_33  and  O9_34 
ROOT
HETATM    1  C3  UNL     1      27.097  76.210  -2.613  1.00  0.00     0.170 C 
HETATM    2  C4  UNL     1      26.478  74.988  -3.258  1.00  0.00     0.286 C 
HETATM    3  O6  UNL     1      25.555  74.504  -2.295  1.00  0.00    -0.349 OA
HETATM    4  C13 UNL     1      26.243  73.836  -1.315  1.00  0.00     0.179 C 
HETATM    5  C15 UNL     1      27.330  74.608  -0.664  1.00  0.00     0.180 C 
HETATM    6  C16 UNL     1      27.672  75.913  -1.265  1.00  0.00     0.177 C 
ENDROOT
BRANCH   2   7
HETATM    7  O2  UNL     1      25.817  75.318  -4.425  1.00  0.00    -0.348 OA
BRANCH   7   8
HETATM    8  C5  UNL     1      25.949  74.370  -5.436  1.00  0.00     0.186 C 
HETATM    9  C6  UNL     1      25.524  72.985  -5.026  1.00  0.00     0.178 C 
HETATM   10  O4  UNL     1      26.554  72.064  -5.188  1.00  0.00    -0.363 OA
HETATM   11  C8  UNL     1      26.972  71.967  -6.504  1.00  0.00     0.214 C 
HETATM   12  S1  UNL     1      28.632  71.174  -6.467  1.00  0.00    -0.083 SA
HETATM   13  C11 UNL     1      27.345  73.289  -7.099  1.00  0.00     0.152 C 
HETATM   14  C9  UNL     1      29.379  72.387  -7.588  1.00  0.00     0.041 C 
HETATM   15  C10 UNL     1      30.713  72.235  -8.177  1.00  0.00     0.076 C 
HETATM   16  N2  UNL     1      28.558  73.293  -7.721  1.00  0.00    -0.378 N 
ATOM     17  H2  UNL     1      28.795  74.082  -8.324  1.00  0.00     0.160 HD
HETATM   18  C12 UNL     1      27.385  74.270  -5.917  1.00  0.00     0.175 C 
BRANCH   9  19
HETATM   19  C7  UNL     1      24.260  72.544  -5.730  1.00  0.00     0.198 C 
BRANCH  19  20
HETATM   20  O3  UNL     1      23.236  72.545  -4.800  1.00  0.00    -0.398 OA
ATOM     21  H3  UNL     1      23.048  73.449  -4.574  1.00  0.00     0.209 HD
ENDBRANCH  19  20
ENDBRANCH   9  19
BRANCH  18  22
HETATM   22  O5  UNL     1      27.901  75.496  -6.297  1.00  0.00    -0.391 OA
ATOM     23  H5  UNL     1      27.891  76.129  -5.589  1.00  0.00     0.210 HD
ENDBRANCH  18  22
ENDBRANCH   7   8
ENDBRANCH   2   7
BRANCH   1  24
HETATM   24  N1  UNL     1      28.045  76.877  -3.483  1.00  0.00    -0.349 N 
HETATM   25  C2  UNL     1      27.697  78.084  -4.145  1.00  0.00     0.214 C 
HETATM   26  C1  UNL     1      28.654  78.783  -5.042  1.00  0.00     0.117 C 
HETATM   27  O1  UNL     1      26.527  78.543  -3.939  1.00  0.00    -0.274 OA
ATOM     28  H1  UNL     1      28.972  76.476  -3.620  1.00  0.00     0.163 HD
ENDBRANCH   1  24
BRANCH   6  29
HETATM   29  O9  UNL     1      27.390  76.984  -0.385  1.00  0.00    -0.391 OA
ATOM     30  H9  UNL     1      27.605  76.728   0.505  1.00  0.00     0.210 HD
ENDBRANCH   6  29
BRANCH   4  31
HETATM   31  C14 UNL     1      25.241  73.294  -0.313  1.00  0.00     0.198 C 
BRANCH  31  32
HETATM   32  O7  UNL     1      25.780  73.294   0.979  1.00  0.00    -0.398 OA
ATOM     33  H7  UNL     1      25.097  73.409   1.630  1.00  0.00     0.209 HD
ENDBRANCH  31  32
ENDBRANCH   4  31
BRANCH   5  34
HETATM   34  O8  UNL     1      28.482  73.801  -0.514  1.00  0.00    -0.390 OA
ATOM     35  H8  UNL     1      28.703  73.387  -1.340  1.00  0.00     0.210 HD
ENDBRANCH   5  34
TORSDOF 10
ENDMDL
