MODEL 18
REMARK VINA RESULT: -6.409976053      2.808      6.877
REMARK  10 active torsions:
REMARK  status: ('A' for Active; 'I' for Inactive)
REMARK       I    between atoms: C2_2  and  N1_4 
REMARK    1  A    between atoms: N1_4  and  C3_6 
REMARK    2  A    between atoms: C4_7  and  O2_8 
REMARK    3  A    between atoms: O2_8  and  C5_9 
REMARK    4  A    between atoms: C6_10  and  C7_11 
REMARK    5  A    between atoms: C7_11  and  O3_12 
REMARK    6  A    between atoms: C12_22  and  O5_23 
REMARK    7  A    between atoms: C13_26  and  C14_27 
REMARK    8  A    between atoms: C14_27  and  O7_28 
REMARK    9  A    between atoms: C15_30  and  O8_31 
REMARK   10  A    between atoms: C16_33  and  O9_34 
ROOT
HETATM    1  C3  UNL     1      28.824  73.786  -5.858  1.00  0.00     0.170 C 
HETATM    2  C4  UNL     1      28.144  73.237  -4.622  1.00  0.00     0.286 C 
HETATM    3  O6  UNL     1      28.848  72.040  -4.329  1.00  0.00    -0.349 OA
HETATM    4  C13 UNL     1      28.432  71.057  -5.190  1.00  0.00     0.179 C 
HETATM    5  C15 UNL     1      28.534  71.391  -6.633  1.00  0.00     0.180 C 
HETATM    6  C16 UNL     1      28.880  72.787  -6.969  1.00  0.00     0.177 C 
ENDROOT
BRANCH   2   7
HETATM    7  O2  UNL     1      28.245  74.117  -3.562  1.00  0.00    -0.348 OA
BRANCH   7   8
HETATM    8  C5  UNL     1      27.847  73.577  -2.341  1.00  0.00     0.186 C 
HETATM    9  C6  UNL     1      26.840  74.422  -1.607  1.00  0.00     0.178 C 
HETATM   10  O4  UNL     1      27.295  74.776  -0.340  1.00  0.00    -0.363 OA
HETATM   11  C8  UNL     1      27.534  73.672   0.461  1.00  0.00     0.214 C 
HETATM   12  S1  UNL     1      28.615  74.249   1.834  1.00  0.00    -0.083 SA
HETATM   13  C11 UNL     1      28.454  72.677  -0.173  1.00  0.00     0.152 C 
HETATM   14  C9  UNL     1      29.777  72.869   1.671  1.00  0.00     0.041 C 
HETATM   15  C10 UNL     1      30.839  72.581   2.641  1.00  0.00     0.076 C 
HETATM   16  N2  UNL     1      29.481  72.281   0.631  1.00  0.00    -0.378 N 
ATOM     17  H2  UNL     1      30.026  71.463   0.360  1.00  0.00     0.160 HD
HETATM   18  C12 UNL     1      29.029  73.384  -1.409  1.00  0.00     0.175 C 
BRANCH   9  19
HETATM   19  C7  UNL     1      25.478  73.768  -1.552  1.00  0.00     0.198 C 
BRANCH  19  20
HETATM   20  O3  UNL     1      24.536  74.722  -1.893  1.00  0.00    -0.398 OA
ATOM     21  H3  UNL     1      24.480  74.749  -2.841  1.00  0.00     0.209 HD
ENDBRANCH  19  20
ENDBRANCH   9  19
BRANCH  18  22
HETATM   22  O5  UNL     1      30.042  72.641  -1.989  1.00  0.00    -0.391 OA
ATOM     23  H5  UNL     1      29.820  72.346  -2.865  1.00  0.00     0.210 HD
ENDBRANCH  18  22
ENDBRANCH   7   8
ENDBRANCH   2   7
BRANCH   1  24
HETATM   24  N1  UNL     1      28.263  75.053  -6.283  1.00  0.00    -0.349 N 
HETATM   25  C2  UNL     1      28.892  76.278  -5.936  1.00  0.00     0.214 C 
HETATM   26  C1  UNL     1      28.334  77.588  -6.361  1.00  0.00     0.117 C 
HETATM   27  O1  UNL     1      29.959  76.207  -5.243  1.00  0.00    -0.274 OA
ATOM     28  H1  UNL     1      27.408  75.065  -6.838  1.00  0.00     0.163 HD
ENDBRANCH   1  24
BRANCH   6  29
HETATM   29  O9  UNL     1      30.134  72.872  -7.618  1.00  0.00    -0.391 OA
ATOM     30  H9  UNL     1      30.789  72.415  -7.103  1.00  0.00     0.210 HD
ENDBRANCH   6  29
BRANCH   4  31
HETATM   31  C14 UNL     1      29.165  69.775  -4.842  1.00  0.00     0.198 C 
BRANCH  31  32
HETATM   32  O7  UNL     1      29.532  69.763  -3.491  1.00  0.00    -0.398 OA
ATOM     33  H7  UNL     1      29.000  70.372  -2.992  1.00  0.00     0.209 HD
ENDBRANCH  31  32
ENDBRANCH   4  31
BRANCH   5  34
HETATM   34  O8  UNL     1      27.365  70.979  -7.315  1.00  0.00    -0.390 OA
ATOM     35  H8  UNL     1      26.596  71.162  -6.789  1.00  0.00     0.210 HD
ENDBRANCH   5  34
TORSDOF 10
ENDMDL
