MODEL 2
REMARK VINA RESULT: -7.500486007      3.244      6.113
REMARK  10 active torsions:
REMARK  status: ('A' for Active; 'I' for Inactive)
REMARK       I    between atoms: C2_2  and  N1_4 
REMARK    1  A    between atoms: N1_4  and  C3_6 
REMARK    2  A    between atoms: C4_7  and  O2_8 
REMARK    3  A    between atoms: O2_8  and  C5_9 
REMARK    4  A    between atoms: C6_10  and  C7_11 
REMARK    5  A    between atoms: C7_11  and  O3_12 
REMARK    6  A    between atoms: C12_22  and  O5_23 
REMARK    7  A    between atoms: C13_26  and  C14_27 
REMARK    8  A    between atoms: C14_27  and  O7_28 
REMARK    9  A    between atoms: C15_30  and  O8_31 
REMARK   10  A    between atoms: C16_33  and  O9_34 
ROOT
HETATM    1  C3  UNL     1      21.836  73.942   1.258  1.00  0.00     0.170 C 
HETATM    2  C4  UNL     1      23.299  74.028   1.635  1.00  0.00     0.286 C 
HETATM    3  O6  UNL     1      23.344  73.622   2.994  1.00  0.00    -0.349 OA
HETATM    4  C13 UNL     1      22.915  74.660   3.782  1.00  0.00     0.179 C 
HETATM    5  C15 UNL     1      21.580  75.209   3.437  1.00  0.00     0.180 C 
HETATM    6  C16 UNL     1      20.961  74.720   2.189  1.00  0.00     0.177 C 
ENDROOT
BRANCH   2   7
HETATM    7  O2  UNL     1      24.067  73.178   0.862  1.00  0.00    -0.348 OA
BRANCH   7   8
HETATM    8  C5  UNL     1      25.212  73.772   0.337  1.00  0.00     0.186 C 
HETATM    9  C6  UNL     1      25.679  73.151  -0.952  1.00  0.00     0.178 C 
HETATM   10  O4  UNL     1      26.988  72.689  -0.855  1.00  0.00    -0.363 OA
HETATM   11  C8  UNL     1      27.884  73.705  -0.567  1.00  0.00     0.214 C 
HETATM   12  S1  UNL     1      29.410  72.891   0.062  1.00  0.00    -0.083 SA
HETATM   13  C11 UNL     1      27.507  74.491   0.649  1.00  0.00     0.152 C 
HETATM   14  C9  UNL     1      29.565  73.995   1.491  1.00  0.00     0.041 C 
HETATM   15  C10 UNL     1      30.743  74.036   2.363  1.00  0.00     0.076 C 
HETATM   16  N2  UNL     1      28.523  74.648   1.545  1.00  0.00    -0.378 N 
ATOM     17  H2  UNL     1      28.415  75.334   2.291  1.00  0.00     0.160 HD
HETATM   18  C12 UNL     1      26.372  73.696   1.313  1.00  0.00     0.175 C 
BRANCH   9  19
HETATM   19  C7  UNL     1      25.497  74.079  -2.132  1.00  0.00     0.198 C 
BRANCH  19  20
HETATM   20  O3  UNL     1      24.339  74.807  -1.923  1.00  0.00    -0.398 OA
ATOM     21  H3  UNL     1      24.125  75.252  -2.735  1.00  0.00     0.209 HD
ENDBRANCH  19  20
ENDBRANCH   9  19
BRANCH  18  22
HETATM   22  O5  UNL     1      26.052  74.215   2.555  1.00  0.00    -0.391 OA
ATOM     23  H5  UNL     1      25.423  73.677   3.021  1.00  0.00     0.210 HD
ENDBRANCH  18  22
ENDBRANCH   7   8
ENDBRANCH   2   7
BRANCH   1  24
HETATM   24  N1  UNL     1      21.599  74.276  -0.132  1.00  0.00    -0.349 N 
HETATM   25  C2  UNL     1      20.522  73.690  -0.846  1.00  0.00     0.214 C 
HETATM   26  C1  UNL     1      20.263  74.019  -2.272  1.00  0.00     0.117 C 
HETATM   27  O1  UNL     1      19.784  72.866  -0.212  1.00  0.00    -0.274 OA
ATOM     28  H1  UNL     1      22.213  74.941  -0.602  1.00  0.00     0.163 HD
ENDBRANCH   1  24
BRANCH   6  29
HETATM   29  O9  UNL     1      19.777  73.990   2.444  1.00  0.00    -0.391 OA
ATOM     30  H9  UNL     1      19.071  74.594   2.650  1.00  0.00     0.210 HD
ENDBRANCH   6  29
BRANCH   4  31
HETATM   31  C14 UNL     1      23.002  74.225   5.233  1.00  0.00     0.198 C 
BRANCH  31  32
HETATM   32  O7  UNL     1      22.369  75.153   6.069  1.00  0.00    -0.398 OA
ATOM     33  H7  UNL     1      21.433  74.992   6.103  1.00  0.00     0.209 HD
ENDBRANCH  31  32
ENDBRANCH   4  31
BRANCH   5  34
HETATM   34  O8  UNL     1      21.610  76.623   3.468  1.00  0.00    -0.390 OA
ATOM     35  H8  UNL     1      22.244  76.924   4.108  1.00  0.00     0.210 HD
ENDBRANCH   5  34
TORSDOF 10
ENDMDL
