MODEL 14
REMARK VINA RESULT: -7.885891202      2.759      8.768
REMARK  16 active torsions:
REMARK  status: ('A' for Active; 'I' for Inactive)
REMARK       I    between atoms: C2_2  and  N1_4 
REMARK    1  A    between atoms: N1_4  and  C3_6 
REMARK    2  A    between atoms: C4_7  and  O2_8 
REMARK    3  A    between atoms: O2_8  and  C5_9 
REMARK    4  A    between atoms: C6_10  and  C7_11 
REMARK    5  A    between atoms: C7_11  and  O3_12 
REMARK    6  A    between atoms: C8_15  and  O5_16 
REMARK    7  A    between atoms: O5_16  and  C9_17 
REMARK    8  A    between atoms: C10_18  and  C11_19 
REMARK    9  A    between atoms: C11_19  and  O6_20 
REMARK   10  A    between atoms: C16_30  and  O8_31 
REMARK   11  A    between atoms: C17_33  and  N3_34 
REMARK       I    between atoms: N3_34  and  C18_36 
REMARK   12  A    between atoms: C20_39  and  O10_40 
REMARK   13  A    between atoms: C21_43  and  C22_44 
REMARK   14  A    between atoms: C22_44  and  O12_45 
REMARK   15  A    between atoms: C23_47  and  O13_48 
REMARK   16  A    between atoms: C24_50  and  O14_51 
ROOT
HETATM    1  C5  UNL     1      30.141  73.097  -7.051  1.00  0.00     0.186 C 
HETATM    2  C6  UNL     1      29.339  72.492  -5.934  1.00  0.00     0.180 C 
HETATM    3  O4  UNL     1      28.264  73.245  -5.556  1.00  0.00    -0.349 OA
HETATM    4  C8  UNL     1      28.583  74.555  -5.139  1.00  0.00     0.286 C 
HETATM    5  C17 UNL     1      29.463  75.259  -6.090  1.00  0.00     0.170 C 
HETATM    6  C20 UNL     1      29.685  74.494  -7.390  1.00  0.00     0.177 C 
ENDROOT
BRANCH   1   7
HETATM    7  O2  UNL     1      30.080  72.316  -8.175  1.00  0.00    -0.348 OA
BRANCH   7   8
HETATM    8  C4  UNL     1      31.149  71.429  -8.290  1.00  0.00     0.286 C 
HETATM    9  C3  UNL     1      30.602  70.154  -8.870  1.00  0.00     0.170 C 
HETATM   10  C24 UNL     1      29.994  70.399 -10.211  1.00  0.00     0.177 C 
HETATM   11  C23 UNL     1      30.796  71.403 -10.968  1.00  0.00     0.180 C 
HETATM   12  C21 UNL     1      32.132  71.725 -10.368  1.00  0.00     0.179 C 
HETATM   13  O11 UNL     1      32.120  72.035  -9.039  1.00  0.00    -0.349 OA
BRANCH   9  14
HETATM   14  N1  UNL     1      31.536  69.062  -8.814  1.00  0.00    -0.349 N 
HETATM   15  C2  UNL     1      31.740  68.313  -7.622  1.00  0.00     0.214 C 
HETATM   16  C1  UNL     1      32.699  67.200  -7.568  1.00  0.00     0.117 C 
HETATM   17  O1  UNL     1      31.096  68.581  -6.557  1.00  0.00    -0.274 OA
ATOM     18  H1  UNL     1      32.066  68.819  -9.651  1.00  0.00     0.163 HD
ENDBRANCH   9  14
BRANCH  10  19
HETATM   19  O14 UNL     1      28.665  70.818 -10.023  1.00  0.00    -0.391 OA
ATOM     20  H14 UNL     1      28.113  70.047  -9.969  1.00  0.00     0.210 HD
ENDBRANCH  10  19
BRANCH  11  21
HETATM   21  O13 UNL     1      31.024  70.860 -12.251  1.00  0.00    -0.390 OA
ATOM     22  H13 UNL     1      31.330  69.968 -12.135  1.00  0.00     0.210 HD
ENDBRANCH  11  21
BRANCH  12  23
HETATM   23  C22 UNL     1      32.612  72.998 -11.096  1.00  0.00     0.198 C 
BRANCH  23  24
HETATM   24  O12 UNL     1      32.281  74.087 -10.317  1.00  0.00    -0.398 OA
ATOM     25  H12 UNL     1      31.960  73.767  -9.482  1.00  0.00     0.209 HD
ENDBRANCH  23  24
ENDBRANCH  12  23
ENDBRANCH   7   8
ENDBRANCH   1   7
BRANCH   2  26
HETATM   26  C7  UNL     1      30.226  72.042  -4.783  1.00  0.00     0.198 C 
BRANCH  26  27
HETATM   27  O3  UNL     1      29.995  70.705  -4.457  1.00  0.00    -0.398 OA
ATOM     28  H3  UNL     1      30.450  70.121  -5.053  1.00  0.00     0.209 HD
ENDBRANCH  26  27
ENDBRANCH   2  26
BRANCH   6  29
HETATM   29  O10 UNL     1      30.670  75.184  -8.094  1.00  0.00    -0.391 OA
ATOM     30  H10 UNL     1      30.292  75.685  -8.808  1.00  0.00     0.210 HD
ENDBRANCH   6  29
BRANCH   5  31
HETATM   31  N3  UNL     1      28.925  76.586  -6.409  1.00  0.00    -0.349 N 
HETATM   32  C18 UNL     1      29.778  77.687  -6.751  1.00  0.00     0.214 C 
HETATM   33  C19 UNL     1      29.192  79.021  -7.068  1.00  0.00     0.117 C 
HETATM   34  O9  UNL     1      31.009  77.525  -6.781  1.00  0.00    -0.274 OA
ATOM     35  H3  UNL     1      27.916  76.728  -6.386  1.00  0.00     0.163 HD
ENDBRANCH   5  31
BRANCH   4  36
HETATM   36  O5  UNL     1      29.085  74.523  -3.847  1.00  0.00    -0.348 OA
BRANCH  36  37
HETATM   37  C9  UNL     1      28.065  74.305  -2.944  1.00  0.00     0.186 C 
HETATM   38  C10 UNL     1      27.907  75.328  -1.874  1.00  0.00     0.178 C 
HETATM   39  O7  UNL     1      26.816  75.037  -1.097  1.00  0.00    -0.363 OA
HETATM   40  C12 UNL     1      26.727  73.792  -0.567  1.00  0.00     0.214 C 
HETATM   41  S1  UNL     1      27.109  73.987   1.241  1.00  0.00    -0.083 SA
HETATM   42  C15 UNL     1      27.923  72.910  -0.876  1.00  0.00     0.152 C 
HETATM   43  C13 UNL     1      28.876  73.831   0.992  1.00  0.00     0.041 C 
HETATM   44  C14 UNL     1      29.901  74.285   1.936  1.00  0.00     0.076 C 
HETATM   45  N2  UNL     1      29.029  73.274  -0.117  1.00  0.00    -0.378 N 
ATOM     46  H2  UNL     1      29.969  73.086  -0.465  1.00  0.00     0.160 HD
HETATM   47  C16 UNL     1      28.245  72.906  -2.325  1.00  0.00     0.175 C 
BRANCH  38  48
HETATM   48  C11 UNL     1      27.579  76.686  -2.516  1.00  0.00     0.198 C 
BRANCH  48  49
HETATM   49  O6  UNL     1      26.403  77.199  -1.949  1.00  0.00    -0.398 OA
ATOM     50  H6  UNL     1      25.698  76.571  -2.059  1.00  0.00     0.209 HD
ENDBRANCH  48  49
ENDBRANCH  38  48
BRANCH  47  51
HETATM   51  O8  UNL     1      27.481  71.954  -2.978  1.00  0.00    -0.391 OA
ATOM     52  H8  UNL     1      26.629  71.846  -2.571  1.00  0.00     0.210 HD
ENDBRANCH  47  51
ENDBRANCH  36  37
ENDBRANCH   4  36
TORSDOF 16
ENDMDL
