MODEL 1
REMARK VINA RESULT: -8.379622583      0.000      0.000
REMARK  16 active torsions:
REMARK  status: ('A' for Active; 'I' for Inactive)
REMARK       I    between atoms: C2_2  and  N1_4 
REMARK    1  A    between atoms: N1_4  and  C3_6 
REMARK    2  A    between atoms: C4_7  and  O2_8 
REMARK    3  A    between atoms: O2_8  and  C5_9 
REMARK    4  A    between atoms: C6_10  and  C7_11 
REMARK    5  A    between atoms: C7_11  and  O3_12 
REMARK    6  A    between atoms: C8_15  and  O5_16 
REMARK    7  A    between atoms: O5_16  and  C9_17 
REMARK    8  A    between atoms: C10_18  and  C11_19 
REMARK    9  A    between atoms: C11_19  and  O6_20 
REMARK   10  A    between atoms: C16_30  and  O8_31 
REMARK   11  A    between atoms: C17_33  and  N3_34 
REMARK       I    between atoms: N3_34  and  C18_36 
REMARK   12  A    between atoms: C20_39  and  O10_40 
REMARK   13  A    between atoms: C21_43  and  C22_44 
REMARK   14  A    between atoms: C22_44  and  O12_45 
REMARK   15  A    between atoms: C23_47  and  O13_48 
REMARK   16  A    between atoms: C24_50  and  O14_51 
ROOT
HETATM    1  C5  UNL     1      27.579  74.814  -3.524  1.00  0.00     0.186 C 
HETATM    2  C6  UNL     1      28.203  73.488  -3.853  1.00  0.00     0.180 C 
HETATM    3  O4  UNL     1      29.475  73.583  -4.342  1.00  0.00    -0.349 OA
HETATM    4  C8  UNL     1      29.598  74.370  -5.507  1.00  0.00     0.286 C 
HETATM    5  C17 UNL     1      28.937  75.683  -5.382  1.00  0.00     0.170 C 
HETATM    6  C20 UNL     1      28.431  75.974  -3.974  1.00  0.00     0.177 C 
ENDROOT
BRANCH   1   7
HETATM    7  O2  UNL     1      27.343  74.921  -2.178  1.00  0.00    -0.348 OA
BRANCH   7   8
HETATM    8  C4  UNL     1      27.814  73.833  -1.445  1.00  0.00     0.286 C 
HETATM    9  C3  UNL     1      28.590  74.388  -0.283  1.00  0.00     0.170 C 
HETATM   10  C24 UNL     1      27.719  75.245   0.576  1.00  0.00     0.177 C 
HETATM   11  C23 UNL     1      26.349  74.664   0.667  1.00  0.00     0.180 C 
HETATM   12  C21 UNL     1      26.219  73.267   0.140  1.00  0.00     0.179 C 
HETATM   13  O11 UNL     1      26.739  73.059  -1.106  1.00  0.00    -0.349 OA
BRANCH   9  14
HETATM   14  N1  UNL     1      29.344  73.387   0.422  1.00  0.00    -0.349 N 
HETATM   15  C2  UNL     1      29.932  73.649   1.690  1.00  0.00     0.214 C 
HETATM   16  C1  UNL     1      30.705  72.624   2.406  1.00  0.00     0.117 C 
HETATM   17  O1  UNL     1      29.808  74.785   2.252  1.00  0.00    -0.274 OA
ATOM     18  H1  UNL     1      29.460  72.465   0.001  1.00  0.00     0.163 HD
ENDBRANCH   9  14
BRANCH  10  19
HETATM   19  O14 UNL     1      27.708  76.543   0.035  1.00  0.00    -0.391 OA
ATOM     20  H14 UNL     1      26.818  76.751  -0.224  1.00  0.00     0.210 HD
ENDBRANCH  10  19
BRANCH  11  21
HETATM   21  O13 UNL     1      26.007  74.637   2.036  1.00  0.00    -0.390 OA
ATOM     22  H13 UNL     1      26.774  74.349   2.518  1.00  0.00     0.210 HD
ENDBRANCH  11  21
BRANCH  12  23
HETATM   23  C22 UNL     1      24.702  73.015   0.013  1.00  0.00     0.198 C 
BRANCH  23  24
HETATM   24  O12 UNL     1      24.228  72.622   1.247  1.00  0.00    -0.398 OA
ATOM     25  H12 UNL     1      23.684  71.854   1.124  1.00  0.00     0.209 HD
ENDBRANCH  23  24
ENDBRANCH  12  23
ENDBRANCH   7   8
ENDBRANCH   1   7
BRANCH   2  26
HETATM   26  C7  UNL     1      27.274  72.618  -4.687  1.00  0.00     0.198 C 
BRANCH  26  27
HETATM   27  O3  UNL     1      25.959  72.698  -4.229  1.00  0.00    -0.398 OA
ATOM     28  H3  UNL     1      25.913  72.579  -3.287  1.00  0.00     0.209 HD
ENDBRANCH  26  27
ENDBRANCH   2  26
BRANCH   6  29
HETATM   29  O10 UNL     1      27.677  77.144  -4.056  1.00  0.00    -0.391 OA
ATOM     30  H10 UNL     1      28.087  77.774  -4.639  1.00  0.00     0.210 HD
ENDBRANCH   6  29
BRANCH   5  31
HETATM   31  N3  UNL     1      29.845  76.761  -5.789  1.00  0.00    -0.349 N 
HETATM   32  C18 UNL     1      29.413  77.839  -6.630  1.00  0.00     0.214 C 
HETATM   33  C19 UNL     1      30.367  78.916  -7.022  1.00  0.00     0.117 C 
HETATM   34  O9  UNL     1      28.239  77.872  -7.033  1.00  0.00    -0.274 OA
ATOM     35  H3  UNL     1      30.812  76.742  -5.464  1.00  0.00     0.163 HD
ENDBRANCH   5  31
BRANCH   4  36
HETATM   36  O5  UNL     1      29.170  73.644  -6.607  1.00  0.00    -0.348 OA
BRANCH  36  37
HETATM   37  C9  UNL     1      30.212  72.899  -7.122  1.00  0.00     0.186 C 
HETATM   38  C10 UNL     1      30.673  73.271  -8.486  1.00  0.00     0.178 C 
HETATM   39  O7  UNL     1      31.757  72.512  -8.845  1.00  0.00    -0.363 OA
HETATM   40  C12 UNL     1      31.651  71.165  -8.742  1.00  0.00     0.214 C 
HETATM   41  S1  UNL     1      31.496  70.538 -10.484  1.00  0.00    -0.083 SA
HETATM   42  C15 UNL     1      30.280  70.692  -8.292  1.00  0.00     0.152 C 
HETATM   43  C13 UNL     1      29.717  70.746 -10.512  1.00  0.00     0.041 C 
HETATM   44  C14 UNL     1      28.900  70.834 -11.726  1.00  0.00     0.076 C 
HETATM   45  N2  UNL     1      29.348  70.798  -9.319  1.00  0.00    -0.378 N 
ATOM     46  H2  UNL     1      28.359  70.918  -9.097  1.00  0.00     0.160 HD
HETATM   47  C16 UNL     1      29.822  71.410  -7.076  1.00  0.00     0.175 C 
BRANCH  38  48
HETATM   48  C11 UNL     1      31.197  74.717  -8.468  1.00  0.00     0.198 C 
BRANCH  48  49
HETATM   49  O6  UNL     1      31.963  74.922  -7.311  1.00  0.00    -0.398 OA
ATOM     50  H6  UNL     1      31.563  75.601  -6.782  1.00  0.00     0.209 HD
ENDBRANCH  48  49
ENDBRANCH  38  48
BRANCH  47  51
HETATM   51  O8  UNL     1      30.315  70.784  -5.943  1.00  0.00    -0.391 OA
ATOM     52  H8  UNL     1      30.196  69.843  -5.981  1.00  0.00     0.210 HD
ENDBRANCH  47  51
ENDBRANCH  36  37
ENDBRANCH   4  36
TORSDOF 16
ENDMDL
