MODEL 2
REMARK VINA RESULT: -8.288986331      2.167      3.175
REMARK  16 active torsions:
REMARK  status: ('A' for Active; 'I' for Inactive)
REMARK       I    between atoms: C2_2  and  N1_4 
REMARK    1  A    between atoms: N1_4  and  C3_6 
REMARK    2  A    between atoms: C4_7  and  O2_8 
REMARK    3  A    between atoms: O2_8  and  C5_9 
REMARK    4  A    between atoms: C6_10  and  C7_11 
REMARK    5  A    between atoms: C7_11  and  O3_12 
REMARK    6  A    between atoms: C8_15  and  O5_16 
REMARK    7  A    between atoms: O5_16  and  C9_17 
REMARK    8  A    between atoms: C10_18  and  C11_19 
REMARK    9  A    between atoms: C11_19  and  O6_20 
REMARK   10  A    between atoms: C16_30  and  O8_31 
REMARK   11  A    between atoms: C17_33  and  N3_34 
REMARK       I    between atoms: N3_34  and  C18_36 
REMARK   12  A    between atoms: C20_39  and  O10_40 
REMARK   13  A    between atoms: C21_43  and  C22_44 
REMARK   14  A    between atoms: C22_44  and  O12_45 
REMARK   15  A    between atoms: C23_47  and  O13_48 
REMARK   16  A    between atoms: C24_50  and  O14_51 
ROOT
HETATM    1  C5  UNL     1      28.325  73.133  -3.348  1.00  0.00     0.186 C 
HETATM    2  C6  UNL     1      29.584  73.199  -4.165  1.00  0.00     0.180 C 
HETATM    3  O4  UNL     1      29.453  73.914  -5.321  1.00  0.00    -0.349 OA
HETATM    4  C8  UNL     1      28.449  73.442  -6.194  1.00  0.00     0.286 C 
HETATM    5  C17 UNL     1      27.159  73.223  -5.513  1.00  0.00     0.170 C 
HETATM    6  C20 UNL     1      27.141  73.722  -4.073  1.00  0.00     0.177 C 
ENDROOT
BRANCH   1   7
HETATM    7  O2  UNL     1      28.487  73.776  -2.149  1.00  0.00    -0.348 OA
BRANCH   7   8
HETATM    8  C4  UNL     1      28.635  72.906  -1.071  1.00  0.00     0.286 C 
HETATM    9  C3  UNL     1      29.206  73.707   0.067  1.00  0.00     0.170 C 
HETATM   10  C24 UNL     1      28.292  74.829   0.436  1.00  0.00     0.177 C 
HETATM   11  C23 UNL     1      26.869  74.394   0.331  1.00  0.00     0.180 C 
HETATM   12  C21 UNL     1      26.671  72.918   0.162  1.00  0.00     0.179 C 
HETATM   13  O11 UNL     1      27.417  72.334  -0.821  1.00  0.00    -0.349 OA
BRANCH   9  14
HETATM   14  N1  UNL     1      29.646  72.892   1.166  1.00  0.00    -0.349 N 
HETATM   15  C2  UNL     1      30.244  73.460   2.325  1.00  0.00     0.214 C 
HETATM   16  C1  UNL     1      30.697  72.624   3.446  1.00  0.00     0.117 C 
HETATM   17  O1  UNL     1      30.409  74.718   2.432  1.00  0.00    -0.274 OA
ATOM     18  H1  UNL     1      29.526  71.880   1.114  1.00  0.00     0.163 HD
ENDBRANCH   9  14
BRANCH  10  19
HETATM   19  O14 UNL     1      28.574  75.922  -0.402  1.00  0.00    -0.391 OA
ATOM     20  H14 UNL     1      29.286  76.419  -0.016  1.00  0.00     0.210 HD
ENDBRANCH  10  19
BRANCH  11  21
HETATM   21  O13 UNL     1      26.237  74.774   1.534  1.00  0.00    -0.390 OA
ATOM     22  H13 UNL     1      26.828  74.565   2.248  1.00  0.00     0.210 HD
ENDBRANCH  11  21
BRANCH  12  23
HETATM   23  C22 UNL     1      25.199  72.748  -0.267  1.00  0.00     0.198 C 
BRANCH  23  24
HETATM   24  O12 UNL     1      24.795  73.914  -0.883  1.00  0.00    -0.398 OA
ATOM     25  H12 UNL     1      24.400  74.474  -0.226  1.00  0.00     0.209 HD
ENDBRANCH  23  24
ENDBRANCH  12  23
ENDBRANCH   7   8
ENDBRANCH   1   7
BRANCH   2  26
HETATM   26  C7  UNL     1      30.213  71.826  -4.344  1.00  0.00     0.198 C 
BRANCH  26  27
HETATM   27  O3  UNL     1      29.287  70.809  -4.105  1.00  0.00    -0.398 OA
ATOM     28  H3  UNL     1      29.046  70.365  -4.909  1.00  0.00     0.209 HD
ENDBRANCH  26  27
ENDBRANCH   2  26
BRANCH   6  29
HETATM   29  O10 UNL     1      25.942  73.281  -3.514  1.00  0.00    -0.391 OA
ATOM     30  H10 UNL     1      25.666  73.853  -2.806  1.00  0.00     0.210 HD
ENDBRANCH   6  29
BRANCH   5  31
HETATM   31  N3  UNL     1      26.068  73.869  -6.251  1.00  0.00    -0.349 N 
HETATM   32  C18 UNL     1      24.778  73.256  -6.386  1.00  0.00     0.214 C 
HETATM   33  C19 UNL     1      23.695  73.945  -7.145  1.00  0.00     0.117 C 
HETATM   34  O9  UNL     1      24.567  72.147  -5.869  1.00  0.00    -0.274 OA
ATOM     35  H3  UNL     1      26.232  74.779  -6.679  1.00  0.00     0.163 HD
ENDBRANCH   5  31
BRANCH   4  36
HETATM   36  O5  UNL     1      28.909  72.325  -6.872  1.00  0.00    -0.348 OA
BRANCH  36  37
HETATM   37  C9  UNL     1      29.216  72.651  -8.177  1.00  0.00     0.186 C 
HETATM   38  C10 UNL     1      29.008  71.578  -9.187  1.00  0.00     0.178 C 
HETATM   39  O7  UNL     1      29.272  72.053 -10.446  1.00  0.00    -0.363 OA
HETATM   40  C12 UNL     1      30.462  72.666 -10.657  1.00  0.00     0.214 C 
HETATM   41  S1  UNL     1      31.481  71.462 -11.639  1.00  0.00    -0.083 SA
HETATM   42  C15 UNL     1      31.371  72.671  -9.441  1.00  0.00     0.152 C 
HETATM   43  C13 UNL     1      32.091  70.625 -10.177  1.00  0.00     0.041 C 
HETATM   44  C14 UNL     1      32.658  69.274 -10.158  1.00  0.00     0.076 C 
HETATM   45  N2  UNL     1      31.930  71.416  -9.223  1.00  0.00    -0.378 N 
ATOM     46  H2  UNL     1      32.210  71.141  -8.282  1.00  0.00     0.160 HD
HETATM   47  C16 UNL     1      30.668  73.162  -8.229  1.00  0.00     0.175 C 
BRANCH  38  48
HETATM   48  C11 UNL     1      27.519  71.193  -9.219  1.00  0.00     0.198 C 
BRANCH  48  49
HETATM   49  O6  UNL     1      26.736  72.333  -8.988  1.00  0.00    -0.398 OA
ATOM     50  H6  UNL     1      26.049  72.125  -8.366  1.00  0.00     0.209 HD
ENDBRANCH  48  49
ENDBRANCH  38  48
BRANCH  47  51
HETATM   51  O8  UNL     1      30.728  74.544  -8.174  1.00  0.00    -0.391 OA
ATOM     52  H8  UNL     1      31.360  74.894  -8.791  1.00  0.00     0.210 HD
ENDBRANCH  47  51
ENDBRANCH  36  37
ENDBRANCH   4  36
TORSDOF 16
ENDMDL
