MODEL 4
REMARK VINA RESULT: -8.279011355      1.587      2.268
REMARK  16 active torsions:
REMARK  status: ('A' for Active; 'I' for Inactive)
REMARK       I    between atoms: C2_2  and  N1_4 
REMARK    1  A    between atoms: N1_4  and  C3_6 
REMARK    2  A    between atoms: C4_7  and  O2_8 
REMARK    3  A    between atoms: O2_8  and  C5_9 
REMARK    4  A    between atoms: C6_10  and  C7_11 
REMARK    5  A    between atoms: C7_11  and  O3_12 
REMARK    6  A    between atoms: C8_15  and  O5_16 
REMARK    7  A    between atoms: O5_16  and  C9_17 
REMARK    8  A    between atoms: C10_18  and  C11_19 
REMARK    9  A    between atoms: C11_19  and  O6_20 
REMARK   10  A    between atoms: C16_30  and  O8_31 
REMARK   11  A    between atoms: C17_33  and  N3_34 
REMARK       I    between atoms: N3_34  and  C18_36 
REMARK   12  A    between atoms: C20_39  and  O10_40 
REMARK   13  A    between atoms: C21_43  and  C22_44 
REMARK   14  A    between atoms: C22_44  and  O12_45 
REMARK   15  A    between atoms: C23_47  and  O13_48 
REMARK   16  A    between atoms: C24_50  and  O14_51 
ROOT
HETATM    1  C5  UNL     1      28.417  73.868  -3.207  1.00  0.00     0.186 C 
HETATM    2  C6  UNL     1      29.502  72.929  -3.652  1.00  0.00     0.180 C 
HETATM    3  O4  UNL     1      30.252  73.406  -4.688  1.00  0.00    -0.349 OA
HETATM    4  C8  UNL     1      29.516  73.725  -5.849  1.00  0.00     0.286 C 
HETATM    5  C17 UNL     1      28.339  74.568  -5.565  1.00  0.00     0.170 C 
HETATM    6  C20 UNL     1      28.279  75.058  -4.123  1.00  0.00     0.177 C 
ENDROOT
BRANCH   1   7
HETATM    7  O2  UNL     1      28.642  74.304  -1.928  1.00  0.00    -0.348 OA
BRANCH   7   8
HETATM    8  C4  UNL     1      28.761  73.268  -1.003  1.00  0.00     0.286 C 
HETATM    9  C3  UNL     1      29.191  73.887   0.298  1.00  0.00     0.170 C 
HETATM   10  C24 UNL     1      28.184  74.883   0.771  1.00  0.00     0.177 C 
HETATM   11  C23 UNL     1      26.803  74.405   0.471  1.00  0.00     0.180 C 
HETATM   12  C21 UNL     1      26.711  72.972   0.038  1.00  0.00     0.179 C 
HETATM   13  O11 UNL     1      27.566  72.604  -0.961  1.00  0.00    -0.349 OA
BRANCH   9  14
HETATM   14  N1  UNL     1      29.595  72.916   1.278  1.00  0.00    -0.349 N 
HETATM   15  C2  UNL     1      30.328  73.287   2.440  1.00  0.00     0.214 C 
HETATM   16  C1  UNL     1      30.743  72.292   3.438  1.00  0.00     0.117 C 
HETATM   17  O1  UNL     1      30.651  74.500   2.656  1.00  0.00    -0.274 OA
ATOM     18  H1  UNL     1      29.350  71.936   1.137  1.00  0.00     0.163 HD
ENDBRANCH   9  14
BRANCH  10  19
HETATM   19  O14 UNL     1      28.460  76.117   0.156  1.00  0.00    -0.391 OA
ATOM     20  H14 UNL     1      28.182  76.067  -0.751  1.00  0.00     0.210 HD
ENDBRANCH  10  19
BRANCH  11  21
HETATM   21  O13 UNL     1      26.056  74.539   1.661  1.00  0.00    -0.390 OA
ATOM     22  H13 UNL     1      26.642  74.871   2.331  1.00  0.00     0.210 HD
ENDBRANCH  11  21
BRANCH  12  23
HETATM   23  C22 UNL     1      25.290  72.808  -0.539  1.00  0.00     0.198 C 
BRANCH  23  24
HETATM   24  O12 UNL     1      24.874  74.037  -1.008  1.00  0.00    -0.398 OA
ATOM     25  H12 UNL     1      23.935  73.997  -1.148  1.00  0.00     0.209 HD
ENDBRANCH  23  24
ENDBRANCH  12  23
ENDBRANCH   7   8
ENDBRANCH   1   7
BRANCH   2  26
HETATM   26  C7  UNL     1      28.977  71.516  -3.856  1.00  0.00     0.198 C 
BRANCH  26  27
HETATM   27  O3  UNL     1      29.597  70.615  -2.990  1.00  0.00    -0.398 OA
ATOM     28  H3  UNL     1      29.721  69.768  -3.403  1.00  0.00     0.209 HD
ENDBRANCH  26  27
ENDBRANCH   2  26
BRANCH   6  29
HETATM   29  O10 UNL     1      27.038  75.671  -3.962  1.00  0.00    -0.391 OA
ATOM     30  H10 UNL     1      26.985  76.119  -3.125  1.00  0.00     0.210 HD
ENDBRANCH   6  29
BRANCH   5  31
HETATM   31  N3  UNL     1      28.306  75.729  -6.460  1.00  0.00    -0.349 N 
HETATM   32  C18 UNL     1      29.037  76.929  -6.172  1.00  0.00     0.214 C 
HETATM   33  C19 UNL     1      28.977  78.089  -7.108  1.00  0.00     0.117 C 
HETATM   34  O9  UNL     1      29.721  76.999  -5.138  1.00  0.00    -0.274 OA
ATOM     35  H3  UNL     1      27.746  75.681  -7.311  1.00  0.00     0.163 HD
ENDBRANCH   5  31
BRANCH   4  36
HETATM   36  O5  UNL     1      29.204  72.563  -6.537  1.00  0.00    -0.348 OA
BRANCH  36  37
HETATM   37  C9  UNL     1      29.333  72.764  -7.897  1.00  0.00     0.186 C 
HETATM   38  C10 UNL     1      28.996  71.604  -8.765  1.00  0.00     0.178 C 
HETATM   39  O7  UNL     1      29.088  71.958 -10.087  1.00  0.00    -0.363 OA
HETATM   40  C12 UNL     1      30.237  72.538 -10.510  1.00  0.00     0.214 C 
HETATM   41  S1  UNL     1      31.120  71.238 -11.503  1.00  0.00    -0.083 SA
HETATM   42  C15 UNL     1      31.300  72.647  -9.432  1.00  0.00     0.152 C 
HETATM   43  C13 UNL     1      31.922  70.534 -10.064  1.00  0.00     0.041 C 
HETATM   44  C14 UNL     1      32.491  69.185  -9.995  1.00  0.00     0.076 C 
HETATM   45  N2  UNL     1      31.888  71.412  -9.175  1.00  0.00    -0.378 N 
ATOM     46  H2  UNL     1      32.292  71.223  -8.258  1.00  0.00     0.160 HD
HETATM   47  C16 UNL     1      30.763  73.254  -8.188  1.00  0.00     0.175 C 
BRANCH  38  48
HETATM   48  C11 UNL     1      27.517  71.231  -8.562  1.00  0.00     0.198 C 
BRANCH  48  49
HETATM   49  O6  UNL     1      26.803  72.364  -8.146  1.00  0.00    -0.398 OA
ATOM     50  H6  UNL     1      27.344  72.885  -7.565  1.00  0.00     0.209 HD
ENDBRANCH  48  49
ENDBRANCH  38  48
BRANCH  47  51
HETATM   51  O8  UNL     1      30.826  74.635  -8.270  1.00  0.00    -0.391 OA
ATOM     52  H8  UNL     1      31.698  74.935  -8.500  1.00  0.00     0.210 HD
ENDBRANCH  47  51
ENDBRANCH  36  37
ENDBRANCH   4  36
TORSDOF 16
ENDMDL
