MODEL 3
REMARK VINA RESULT: -7.764590364      5.122      7.384
REMARK  4 active torsions:
REMARK  status: ('A' for Active; 'I' for Inactive)
REMARK    1  A    between atoms: O1_2  and  C2_3 
REMARK    2  A    between atoms: C4_5  and  O2_6 
REMARK    3  A    between atoms: C7_10  and  C8_11 
REMARK    4  A    between atoms: C13_18  and  C14_19 
ROOT
HETATM    1  C8  UNL     1      30.310  -7.905  57.922  1.00  0.00     0.023 C 
HETATM    2  C9  UNL     1      31.226  -7.442  57.117  1.00  0.00    -0.030 C 
HETATM    3  C10 UNL     1      30.898  -6.632  55.951  1.00  0.00     0.042 C 
HETATM    4  C11 UNL     1      31.610  -7.107  54.710  1.00  0.00     0.024 C 
HETATM    5  C12 UNL     1      32.635  -8.167  54.974  1.00  0.00     0.120 C 
HETATM    6  N1  UNL     1      33.273  -8.122  56.266  1.00  0.00    -0.389 N 
ATOM      7  H1  UNL     1      34.260  -8.371  56.333  1.00  0.00     0.159 HD
HETATM    8  C13 UNL     1      32.639  -7.774  57.357  1.00  0.00     0.046 C 
ENDROOT
BRANCH   1   9
HETATM    9  C7  UNL     1      28.884  -7.732  57.835  1.00  0.00    -0.002 A 
HETATM   10  C2  UNL     1      28.276  -6.875  58.758  1.00  0.00     0.081 A 
HETATM   11  C3  UNL     1      26.905  -6.762  58.682  1.00  0.00     0.074 A 
HETATM   12  C4  UNL     1      26.136  -7.443  57.755  1.00  0.00     0.068 A 
HETATM   13  C5  UNL     1      26.746  -8.285  56.850  1.00  0.00     0.037 A 
HETATM   14  C6  UNL     1      28.114  -8.414  56.907  1.00  0.00     0.017 A 
BRANCH  10  15
HETATM   15  O1  UNL     1      29.016  -6.173  59.704  1.00  0.00    -0.355 OA
HETATM   16  C1  UNL     1      28.412  -5.927  60.965  1.00  0.00     0.210 C 
ENDBRANCH  10  15
BRANCH  12  17
HETATM   17  O2  UNL     1      24.749  -7.302  57.708  1.00  0.00    -0.361 OA
ATOM     18  H2  UNL     1      24.270  -7.344  56.889  1.00  0.00     0.217 HD
ENDBRANCH  12  17
ENDBRANCH   1   9
BRANCH   8  19
HETATM   19  C14 UNL     1      33.215  -7.760  58.674  1.00  0.00     0.006 A 
HETATM   20  C15 UNL     1      33.584  -6.654  59.390  1.00  0.00     0.016 A 
HETATM   21  C16 UNL     1      34.085  -6.831  60.689  1.00  0.00     0.018 A 
HETATM   22  C17 UNL     1      34.224  -8.053  61.272  1.00  0.00     0.087 A 
HETATM   23  N2  UNL     1      33.858  -9.133  60.554  1.00  0.00    -0.374 N 
HETATM   24  C18 UNL     1      33.382  -8.997  59.329  1.00  0.00     0.101 A 
ATOM     25  H2  UNL     1      33.948 -10.065  60.960  1.00  0.00     0.164 HD
ENDBRANCH   8  19
TORSDOF 4
ENDMDL
