MODEL 1
REMARK VINA RESULT: -7.921267929      0.000      0.000
REMARK  4 active torsions:
REMARK  status: ('A' for Active; 'I' for Inactive)
REMARK    1  A    between atoms: O1_2  and  C2_3 
REMARK    2  A    between atoms: C4_5  and  O2_6 
REMARK    3  A    between atoms: C7_10  and  C8_11 
REMARK    4  A    between atoms: C13_18  and  C14_19 
ROOT
HETATM    1  C8  UNL     1      32.242  -3.636  61.203  1.00  0.00     0.023 C 
HETATM    2  C9  UNL     1      31.243  -3.871  62.009  1.00  0.00    -0.030 C 
HETATM    3  C10 UNL     1      30.129  -2.944  62.155  1.00  0.00     0.042 C 
HETATM    4  C11 UNL     1      29.798  -2.675  63.602  1.00  0.00     0.024 C 
HETATM    5  C12 UNL     1      30.543  -3.553  64.561  1.00  0.00     0.120 C 
HETATM    6  N1  UNL     1      30.895  -4.864  64.075  1.00  0.00    -0.389 N 
ATOM      7  H1  UNL     1      30.868  -5.649  64.726  1.00  0.00     0.159 HD
HETATM    8  C13 UNL     1      31.247  -5.089  62.834  1.00  0.00     0.046 C 
ENDROOT
BRANCH   1   9
HETATM    9  C7  UNL     1      32.444  -2.493  60.352  1.00  0.00    -0.002 A 
HETATM   10  C2  UNL     1      33.256  -1.462  60.835  1.00  0.00     0.081 A 
HETATM   11  C3  UNL     1      33.397  -0.359  60.021  1.00  0.00     0.074 A 
HETATM   12  C4  UNL     1      32.785  -0.243  58.786  1.00  0.00     0.068 A 
HETATM   13  C5  UNL     1      31.988  -1.265  58.320  1.00  0.00     0.037 A 
HETATM   14  C6  UNL     1      31.832  -2.376  59.116  1.00  0.00     0.017 A 
BRANCH  10  15
HETATM   15  O1  UNL     1      33.887  -1.543  62.072  1.00  0.00    -0.355 OA
HETATM   16  C1  UNL     1      34.708  -0.454  62.467  1.00  0.00     0.210 C 
ENDBRANCH  10  15
BRANCH  12  17
HETATM   17  O2  UNL     1      32.952   0.891  57.988  1.00  0.00    -0.361 OA
ATOM     18  H2  UNL     1      32.587   1.733  58.234  1.00  0.00     0.217 HD
ENDBRANCH  12  17
ENDBRANCH   1   9
BRANCH   8  19
HETATM   19  C14 UNL     1      31.653  -6.365  62.314  1.00  0.00     0.006 A 
HETATM   20  C15 UNL     1      32.822  -7.022  62.588  1.00  0.00     0.016 A 
HETATM   21  C16 UNL     1      33.027  -8.292  62.026  1.00  0.00     0.018 A 
HETATM   22  C17 UNL     1      32.119  -8.902  61.217  1.00  0.00     0.087 A 
HETATM   23  N2  UNL     1      30.974  -8.242  60.954  1.00  0.00    -0.374 N 
HETATM   24  C18 UNL     1      30.753  -7.046  61.470  1.00  0.00     0.101 A 
ATOM     25  H2  UNL     1      30.271  -8.670  60.351  1.00  0.00     0.164 HD
ENDBRANCH   8  19
TORSDOF 4
ENDMDL
