MODEL 2
REMARK VINA RESULT: -7.896713408      4.686      6.449
REMARK  4 active torsions:
REMARK  status: ('A' for Active; 'I' for Inactive)
REMARK    1  A    between atoms: O1_2  and  C2_3 
REMARK    2  A    between atoms: C4_5  and  O2_6 
REMARK    3  A    between atoms: C7_10  and  C8_11 
REMARK    4  A    between atoms: C13_18  and  C14_19 
ROOT
HETATM    1  C8  UNL     1      29.550  -6.614  59.450  1.00  0.00     0.023 C 
HETATM    2  C9  UNL     1      29.596  -6.510  60.750  1.00  0.00    -0.030 C 
HETATM    3  C10 UNL     1      28.473  -6.883  61.600  1.00  0.00     0.042 C 
HETATM    4  C11 UNL     1      28.162  -5.825  62.629  1.00  0.00     0.024 C 
HETATM    5  C12 UNL     1      29.178  -4.726  62.685  1.00  0.00     0.120 C 
HETATM    6  N1  UNL     1      30.527  -5.093  62.332  1.00  0.00    -0.389 N 
ATOM      7  H1  UNL     1      31.300  -4.657  62.835  1.00  0.00     0.159 HD
HETATM    8  C13 UNL     1      30.801  -5.962  61.392  1.00  0.00     0.046 C 
ENDROOT
BRANCH   1   9
HETATM    9  C7  UNL     1      28.457  -7.080  58.637  1.00  0.00    -0.002 A 
HETATM   10  C2  UNL     1      28.760  -7.930  57.569  1.00  0.00     0.081 A 
HETATM   11  C3  UNL     1      27.702  -8.325  56.779  1.00  0.00     0.074 A 
HETATM   12  C4  UNL     1      26.397  -7.923  57.000  1.00  0.00     0.068 A 
HETATM   13  C5  UNL     1      26.110  -7.085  58.055  1.00  0.00     0.037 A 
HETATM   14  C6  UNL     1      27.151  -6.678  58.858  1.00  0.00     0.017 A 
BRANCH  10  15
HETATM   15  O1  UNL     1      30.060  -8.355  57.316  1.00  0.00    -0.355 OA
HETATM   16  C1  UNL     1      30.277  -9.173  56.176  1.00  0.00     0.210 C 
ENDBRANCH  10  15
BRANCH  12  17
HETATM   17  O2  UNL     1      25.351  -8.345  56.178  1.00  0.00    -0.361 OA
ATOM     18  H2  UNL     1      24.459  -8.050  56.314  1.00  0.00     0.217 HD
ENDBRANCH  12  17
ENDBRANCH   1   9
BRANCH   8  19
HETATM   19  C14 UNL     1      32.126  -6.324  60.968  1.00  0.00     0.006 A 
HETATM   20  C15 UNL     1      32.961  -5.581  60.179  1.00  0.00     0.016 A 
HETATM   21  C16 UNL     1      34.247  -6.074  59.909  1.00  0.00     0.018 A 
HETATM   22  C17 UNL     1      34.704  -7.261  60.393  1.00  0.00     0.087 A 
HETATM   23  N2  UNL     1      33.870  -7.983  61.168  1.00  0.00    -0.374 N 
HETATM   24  C18 UNL     1      32.654  -7.543  61.440  1.00  0.00     0.101 A 
ATOM     25  H2  UNL     1      34.180  -8.878  61.548  1.00  0.00     0.164 HD
ENDBRANCH   8  19
TORSDOF 4
ENDMDL
