MODEL 4
REMARK VINA RESULT: -7.756832217      2.262      4.945
REMARK  3 active torsions:
REMARK  status: ('A' for Active; 'I' for Inactive)
REMARK    1  A    between atoms: C7_8  and  O1_9 
REMARK    2  A    between atoms: O1_9  and  C8_10 
REMARK    3  A    between atoms: C8_10  and  C9_12 
ROOT
HETATM    1  C8  UNL     1     -72.485 -48.129 -73.115  1.00  0.00     0.296 C 
HETATM    2  O2  UNL     1     -72.518 -46.894 -72.891  1.00  0.00    -0.259 OA
ENDROOT
BRANCH   1   3
HETATM    3  O1  UNL     1     -73.456 -48.723 -73.903  1.00  0.00    -0.312 OA
BRANCH   3   4
HETATM    4  C7  UNL     1     -73.185 -48.978 -75.262  1.00  0.00     0.136 C 
HETATM    5  C6  UNL     1     -73.079 -50.464 -75.431  1.00  0.00     0.068 C 
HETATM    6  C5  UNL     1     -73.815 -50.944 -76.665  1.00  0.00     0.225 C 
HETATM    7  N1  UNL     1     -73.452 -49.996 -77.710  1.00  0.00     0.093 N 
HETATM    8  C4  UNL     1     -75.279 -50.803 -76.420  1.00  0.00     0.038 C 
HETATM    9  C1  UNL     1     -73.593 -50.556 -79.033  1.00  0.00     0.310 C 
HETATM   10  C2  UNL     1     -74.411 -48.930 -77.466  1.00  0.00     0.225 C 
HETATM   11  C3  UNL     1     -75.698 -49.770 -77.449  1.00  0.00     0.038 C 
HETATM   12  C17 UNL     1     -74.184 -48.313 -76.140  1.00  0.00     0.068 C 
ENDBRANCH   3   4
ENDBRANCH   1   3
BRANCH   1  13
HETATM   13  C9  UNL     1     -71.398 -48.891 -72.517  1.00  0.00     0.067 A 
HETATM   14  C10 UNL     1     -70.101 -48.484 -72.296  1.00  0.00     0.107 A 
HETATM   15  N2  UNL     1     -69.391 -49.470 -71.723  1.00  0.00    -0.364 N 
HETATM   16  C11 UNL     1     -70.176 -50.542 -71.547  1.00  0.00     0.043 A 
ATOM     17  H2  UNL     1     -68.406 -49.411 -71.461  1.00  0.00     0.165 HD
HETATM   18  C12 UNL     1     -69.968 -51.792 -71.020  1.00  0.00     0.030 A 
HETATM   19  C16 UNL     1     -71.439 -50.200 -72.038  1.00  0.00     0.008 A 
HETATM   20  C13 UNL     1     -70.977 -52.731 -70.958  1.00  0.00     0.002 A 
HETATM   21  C14 UNL     1     -72.227 -52.403 -71.442  1.00  0.00     0.001 A 
HETATM   22  C15 UNL     1     -72.442 -51.144 -71.975  1.00  0.00     0.015 A 
ENDBRANCH   1  13
TORSDOF 3
ENDMDL
