MODEL 2
REMARK VINA RESULT: -8.029949438      5.407      8.013
REMARK  3 active torsions:
REMARK  status: ('A' for Active; 'I' for Inactive)
REMARK    1  A    between atoms: C7_8  and  O1_9 
REMARK    2  A    between atoms: O1_9  and  C8_10 
REMARK    3  A    between atoms: C8_10  and  C9_12 
ROOT
HETATM    1  C8  UNL     1     -69.326 -45.200 -69.974  1.00  0.00     0.296 C 
HETATM    2  O2  UNL     1     -70.050 -45.783 -69.129  1.00  0.00    -0.259 OA
ENDROOT
BRANCH   1   3
HETATM    3  O1  UNL     1     -68.163 -44.563 -69.577  1.00  0.00    -0.312 OA
BRANCH   3   4
HETATM    4  C7  UNL     1     -67.596 -44.872 -68.324  1.00  0.00     0.136 C 
HETATM    5  C6  UNL     1     -66.120 -44.630 -68.424  1.00  0.00     0.068 C 
HETATM    6  C5  UNL     1     -65.586 -43.901 -67.208  1.00  0.00     0.225 C 
HETATM    7  N1  UNL     1     -66.210 -44.564 -66.070  1.00  0.00     0.093 N 
HETATM    8  C4  UNL     1     -66.094 -42.499 -67.243  1.00  0.00     0.038 C 
HETATM    9  C1  UNL     1     -65.450 -44.399 -64.854  1.00  0.00     0.310 C 
HETATM   10  C2  UNL     1     -67.489 -43.874 -66.010  1.00  0.00     0.225 C 
HETATM   11  C3  UNL     1     -66.975 -42.426 -66.011  1.00  0.00     0.038 C 
HETATM   12  C17 UNL     1     -68.284 -44.136 -67.230  1.00  0.00     0.068 C 
ENDBRANCH   3   4
ENDBRANCH   1   3
BRANCH   1  13
HETATM   13  C9  UNL     1     -69.761 -45.225 -71.364  1.00  0.00     0.067 A 
HETATM   14  C10 UNL     1     -70.175 -44.166 -72.140  1.00  0.00     0.107 A 
HETATM   15  N2  UNL     1     -70.499 -44.587 -73.374  1.00  0.00    -0.364 N 
HETATM   16  C11 UNL     1     -70.315 -45.912 -73.456  1.00  0.00     0.043 A 
ATOM     17  H2  UNL     1     -70.833 -43.990 -74.131  1.00  0.00     0.165 HD
HETATM   18  C12 UNL     1     -70.487 -46.832 -74.460  1.00  0.00     0.030 A 
HETATM   19  C16 UNL     1     -69.852 -46.332 -72.206  1.00  0.00     0.008 A 
HETATM   20  C13 UNL     1     -70.215 -48.171 -74.273  1.00  0.00     0.002 A 
HETATM   21  C14 UNL     1     -69.759 -48.596 -73.041  1.00  0.00     0.001 A 
HETATM   22  C15 UNL     1     -69.584 -47.673 -72.026  1.00  0.00     0.015 A 
ENDBRANCH   1  13
TORSDOF 3
ENDMDL
