MODEL 6
REMARK VINA RESULT: -7.711420922      2.238      5.834
REMARK  3 active torsions:
REMARK  status: ('A' for Active; 'I' for Inactive)
REMARK    1  A    between atoms: C7_8  and  O1_9 
REMARK    2  A    between atoms: O1_9  and  C8_10 
REMARK    3  A    between atoms: C8_10  and  C9_12 
ROOT
HETATM    1  C8  UNL     1     -72.266 -50.445 -72.799  1.00  0.00     0.296 C 
HETATM    2  O2  UNL     1     -72.299 -51.622 -72.360  1.00  0.00    -0.259 OA
ENDROOT
BRANCH   1   3
HETATM    3  O1  UNL     1     -73.238 -50.000 -73.679  1.00  0.00    -0.312 OA
BRANCH   3   4
HETATM    4  C7  UNL     1     -72.970 -49.994 -75.063  1.00  0.00     0.136 C 
HETATM    5  C6  UNL     1     -73.403 -51.319 -75.614  1.00  0.00     0.068 C 
HETATM    6  C5  UNL     1     -74.161 -51.166 -76.917  1.00  0.00     0.225 C 
HETATM    7  N1  UNL     1     -73.391 -50.197 -77.686  1.00  0.00     0.093 N 
HETATM    8  C4  UNL     1     -75.486 -50.550 -76.617  1.00  0.00     0.038 C 
HETATM    9  C1  UNL     1     -73.619 -50.317 -79.106  1.00  0.00     0.310 C 
HETATM   10  C2  UNL     1     -73.908 -48.945 -77.156  1.00  0.00     0.225 C 
HETATM   11  C3  UNL     1     -75.410 -49.216 -77.335  1.00  0.00     0.038 C 
HETATM   12  C17 UNL     1     -73.580 -48.807 -75.720  1.00  0.00     0.068 C 
ENDBRANCH   3   4
ENDBRANCH   1   3
BRANCH   1  13
HETATM   13  C9  UNL     1     -71.179 -49.589 -72.345  1.00  0.00     0.067 A 
HETATM   14  C10 UNL     1     -69.978 -49.970 -71.792  1.00  0.00     0.107 A 
HETATM   15  N2  UNL     1     -69.232 -48.891 -71.500  1.00  0.00    -0.364 N 
HETATM   16  C11 UNL     1     -69.900 -47.780 -71.843  1.00  0.00     0.043 A 
ATOM     17  H2  UNL     1     -68.302 -48.913 -71.082  1.00  0.00     0.165 HD
HETATM   18  C12 UNL     1     -69.613 -46.440 -71.767  1.00  0.00     0.030 A 
HETATM   19  C16 UNL     1     -71.124 -48.196 -72.376  1.00  0.00     0.008 A 
HETATM   20  C13 UNL     1     -70.503 -45.482 -72.204  1.00  0.00     0.002 A 
HETATM   21  C14 UNL     1     -71.714 -45.882 -72.731  1.00  0.00     0.001 A 
HETATM   22  C15 UNL     1     -72.009 -47.231 -72.810  1.00  0.00     0.015 A 
ENDBRANCH   1  13
TORSDOF 3
ENDMDL
