MODEL 11
REMARK VINA RESULT: -7.540038278      1.635      2.481
REMARK  3 active torsions:
REMARK  status: ('A' for Active; 'I' for Inactive)
REMARK    1  A    between atoms: C7_8  and  O1_9 
REMARK    2  A    between atoms: O1_9  and  C8_10 
REMARK    3  A    between atoms: C8_10  and  C9_12 
ROOT
HETATM    1  C8  UNL     1     -72.654 -50.875 -73.458  1.00  0.00     0.296 C 
HETATM    2  O2  UNL     1     -72.896 -50.962 -74.687  1.00  0.00    -0.259 OA
ENDROOT
BRANCH   1   3
HETATM    3  O1  UNL     1     -72.660 -49.641 -72.830  1.00  0.00    -0.312 OA
BRANCH   3   4
HETATM    4  C7  UNL     1     -71.994 -48.554 -73.431  1.00  0.00     0.136 C 
HETATM    5  C6  UNL     1     -72.724 -47.304 -73.040  1.00  0.00     0.068 C 
HETATM    6  C5  UNL     1     -71.771 -46.196 -72.643  1.00  0.00     0.225 C 
HETATM    7  N1  UNL     1     -70.723 -46.223 -73.655  1.00  0.00     0.093 N 
HETATM    8  C4  UNL     1     -71.145 -46.564 -71.340  1.00  0.00     0.038 C 
HETATM    9  C1  UNL     1     -70.042 -44.956 -73.775  1.00  0.00     0.310 C 
HETATM   10  C2  UNL     1     -69.850 -47.260 -73.127  1.00  0.00     0.225 C 
HETATM   11  C3  UNL     1     -69.679 -46.720 -71.699  1.00  0.00     0.038 C 
HETATM   12  C17 UNL     1     -70.544 -48.567 -73.101  1.00  0.00     0.068 C 
ENDBRANCH   3   4
ENDBRANCH   1   3
BRANCH   1  13
HETATM   13  C9  UNL     1     -72.373 -52.110 -72.739  1.00  0.00     0.067 A 
HETATM   14  C10 UNL     1     -71.695 -52.261 -71.551  1.00  0.00     0.107 A 
HETATM   15  N2  UNL     1     -71.638 -53.558 -71.204  1.00  0.00    -0.364 N 
HETATM   16  C11 UNL     1     -72.264 -54.296 -72.132  1.00  0.00     0.043 A 
ATOM     17  H2  UNL     1     -71.189 -53.925 -70.365  1.00  0.00     0.165 HD
HETATM   18  C12 UNL     1     -72.498 -55.641 -72.274  1.00  0.00     0.030 A 
HETATM   19  C16 UNL     1     -72.732 -53.407 -73.103  1.00  0.00     0.008 A 
HETATM   20  C13 UNL     1     -73.188 -56.148 -73.355  1.00  0.00     0.002 A 
HETATM   21  C14 UNL     1     -73.654 -55.278 -74.320  1.00  0.00     0.001 A 
HETATM   22  C15 UNL     1     -73.421 -53.921 -74.182  1.00  0.00     0.015 A 
ENDBRANCH   1  13
TORSDOF 3
ENDMDL
