MODEL 1
REMARK VINA RESULT: -8.861228156      0.000      0.000
REMARK  4 active torsions:
REMARK  status: ('A' for Active; 'I' for Inactive)
REMARK    1  A    between atoms: O1_2  and  C2_3 
REMARK    2  A    between atoms: C5_6  and  C6_7 
REMARK    3  A    between atoms: C11_14  and  C12_15 
REMARK    4  A    between atoms: C17_22  and  O2_23 
ROOT
HETATM    1  C6  UNL     1      30.866  -6.468  62.742  1.00  0.00     0.023 C 
HETATM    2  C7  UNL     1      30.192  -5.369  62.520  1.00  0.00    -0.030 C 
HETATM    3  C8  UNL     1      29.795  -4.458  63.608  1.00  0.00     0.042 C 
HETATM    4  C9  UNL     1      30.189  -3.035  63.267  1.00  0.00     0.024 C 
HETATM    5  C10 UNL     1      30.638  -2.875  61.856  1.00  0.00     0.120 C 
HETATM    6  N1  UNL     1      30.072  -3.713  60.867  1.00  0.00    -0.389 N 
ATOM      7  H1  UNL     1      29.854  -3.341  59.942  1.00  0.00     0.159 HD
HETATM    8  C11 UNL     1      29.832  -4.959  61.146  1.00  0.00     0.046 C 
ENDROOT
BRANCH   1   9
HETATM    9  C5  UNL     1      31.303  -6.918  64.039  1.00  0.00    -0.002 A 
HETATM   10  C4  UNL     1      32.059  -6.128  64.873  1.00  0.00     0.017 A 
HETATM   11  C3  UNL     1      32.441  -6.554  66.143  1.00  0.00     0.038 A 
HETATM   12  C2  UNL     1      32.055  -7.798  66.580  1.00  0.00     0.070 A 
HETATM   13  C19 UNL     1      31.300  -8.592  65.750  1.00  0.00     0.074 A 
HETATM   14  C17 UNL     1      30.927  -8.152  64.491  1.00  0.00     0.081 A 
BRANCH  12  15
HETATM   15  O1  UNL     1      32.392  -8.300  67.828  1.00  0.00    -0.356 OA
HETATM   16  C1  UNL     1      33.741  -8.314  68.276  1.00  0.00     0.210 C 
ENDBRANCH  12  15
BRANCH  14  17
HETATM   17  O2  UNL     1      30.162  -8.946  63.664  1.00  0.00    -0.355 OA
HETATM   18  C18 UNL     1      29.429  -9.998  64.261  1.00  0.00     0.210 C 
ENDBRANCH  14  17
ENDBRANCH   1   9
BRANCH   8  19
HETATM   19  C12 UNL     1      29.330  -5.901  60.197  1.00  0.00     0.006 A 
HETATM   20  C13 UNL     1      30.218  -6.435  59.255  1.00  0.00     0.016 A 
HETATM   21  C14 UNL     1      29.759  -7.304  58.295  1.00  0.00     0.018 A 
HETATM   22  C15 UNL     1      28.426  -7.651  58.260  1.00  0.00     0.087 A 
HETATM   23  N2  UNL     1      27.599  -7.135  59.161  1.00  0.00    -0.374 N 
HETATM   24  C16 UNL     1      28.027  -6.276  60.115  1.00  0.00     0.101 A 
ATOM     25  H2  UNL     1      26.613  -7.393  59.132  1.00  0.00     0.164 HD
ENDBRANCH   8  19
TORSDOF 4
ENDMDL
