MODEL 3
REMARK VINA RESULT: -7.340354789      3.225      7.155
REMARK  4 active torsions:
REMARK  status: ('A' for Active; 'I' for Inactive)
REMARK    1  A    between atoms: O1_2  and  C2_3 
REMARK    2  A    between atoms: C5_6  and  C6_7 
REMARK    3  A    between atoms: C11_14  and  C12_15 
REMARK    4  A    between atoms: C17_22  and  O2_23 
ROOT
HETATM    1  C6  UNL     1      31.485  -5.758  63.640  1.00  0.00     0.023 C 
HETATM    2  C7  UNL     1      31.526  -6.506  64.713  1.00  0.00    -0.030 C 
HETATM    3  C8  UNL     1      31.014  -7.888  64.726  1.00  0.00     0.042 C 
HETATM    4  C9  UNL     1      32.050  -8.824  65.313  1.00  0.00     0.024 C 
HETATM    5  C10 UNL     1      33.194  -8.108  65.943  1.00  0.00     0.120 C 
HETATM    6  N1  UNL     1      32.958  -6.845  66.536  1.00  0.00    -0.389 N 
ATOM      7  H1  UNL     1      33.427  -6.590  67.406  1.00  0.00     0.159 HD
HETATM    8  C11 UNL     1      32.140  -6.013  65.964  1.00  0.00     0.046 C 
ENDROOT
BRANCH   1   9
HETATM    9  C5  UNL     1      30.955  -6.172  62.367  1.00  0.00    -0.002 A 
HETATM   10  C4  UNL     1      30.378  -7.407  62.179  1.00  0.00     0.017 A 
HETATM   11  C3  UNL     1      29.829  -7.784  60.956  1.00  0.00     0.038 A 
HETATM   12  C2  UNL     1      29.862  -6.902  59.903  1.00  0.00     0.070 A 
HETATM   13  C19 UNL     1      30.437  -5.667  60.085  1.00  0.00     0.074 A 
HETATM   14  C17 UNL     1      30.978  -5.307  61.309  1.00  0.00     0.081 A 
BRANCH  12  15
HETATM   15  O1  UNL     1      29.339  -7.197  58.652  1.00  0.00    -0.356 OA
HETATM   16  C1  UNL     1      27.969  -6.970  58.355  1.00  0.00     0.210 C 
ENDBRANCH  12  15
BRANCH  14  17
HETATM   17  O2  UNL     1      31.547  -4.065  61.491  1.00  0.00    -0.355 OA
HETATM   18  C18 UNL     1      30.676  -2.954  61.581  1.00  0.00     0.210 C 
ENDBRANCH  14  17
ENDBRANCH   1   9
BRANCH   8  19
HETATM   19  C12 UNL     1      31.890  -4.692  66.444  1.00  0.00     0.006 A 
HETATM   20  C13 UNL     1      32.333  -4.355  67.729  1.00  0.00     0.016 A 
HETATM   21  C14 UNL     1      32.065  -3.109  68.242  1.00  0.00     0.018 A 
HETATM   22  C15 UNL     1      31.360  -2.192  67.493  1.00  0.00     0.087 A 
HETATM   23  N2  UNL     1      30.947  -2.529  66.278  1.00  0.00    -0.374 N 
HETATM   24  C16 UNL     1      31.198  -3.750  65.751  1.00  0.00     0.101 A 
ATOM     25  H2  UNL     1      30.426  -1.849  65.726  1.00  0.00     0.164 HD
ENDBRANCH   8  19
TORSDOF 4
ENDMDL
