MODEL 4
REMARK VINA RESULT: -7.324585614      2.737      4.831
REMARK  4 active torsions:
REMARK  status: ('A' for Active; 'I' for Inactive)
REMARK    1  A    between atoms: O1_2  and  C2_3 
REMARK    2  A    between atoms: C5_6  and  C6_7 
REMARK    3  A    between atoms: C11_14  and  C12_15 
REMARK    4  A    between atoms: C17_22  and  O2_23 
ROOT
HETATM    1  C6  UNL     1      30.617  -6.666  59.459  1.00  0.00     0.023 C 
HETATM    2  C7  UNL     1      29.562  -7.236  58.936  1.00  0.00    -0.030 C 
HETATM    3  C8  UNL     1      28.228  -7.136  59.554  1.00  0.00     0.042 C 
HETATM    4  C9  UNL     1      27.205  -6.705  58.523  1.00  0.00     0.024 C 
HETATM    5  C10 UNL     1      27.732  -6.730  57.130  1.00  0.00     0.120 C 
HETATM    6  N1  UNL     1      28.717  -7.690  56.797  1.00  0.00    -0.389 N 
ATOM      7  H1  UNL     1      28.697  -8.153  55.889  1.00  0.00     0.159 HD
HETATM    8  C11 UNL     1      29.648  -7.975  57.658  1.00  0.00     0.046 C 
ENDROOT
BRANCH   1   9
HETATM    9  C5  UNL     1      30.616  -5.885  60.670  1.00  0.00    -0.002 A 
HETATM   10  C4  UNL     1      30.630  -4.510  60.655  1.00  0.00     0.017 A 
HETATM   11  C3  UNL     1      30.586  -3.761  61.828  1.00  0.00     0.038 A 
HETATM   12  C2  UNL     1      30.526  -4.410  63.038  1.00  0.00     0.070 A 
HETATM   13  C19 UNL     1      30.511  -5.784  63.059  1.00  0.00     0.074 A 
HETATM   14  C17 UNL     1      30.554  -6.514  61.882  1.00  0.00     0.081 A 
BRANCH  12  15
HETATM   15  O1  UNL     1      30.479  -3.742  64.253  1.00  0.00    -0.356 OA
HETATM   16  C1  UNL     1      31.272  -4.163  65.355  1.00  0.00     0.210 C 
ENDBRANCH  12  15
BRANCH  14  17
HETATM   17  O2  UNL     1      30.531  -7.891  61.904  1.00  0.00    -0.355 OA
HETATM   18  C18 UNL     1      30.097  -8.519  63.095  1.00  0.00     0.210 C 
ENDBRANCH  14  17
ENDBRANCH   1   9
BRANCH   8  19
HETATM   19  C12 UNL     1      30.725  -8.874  57.392  1.00  0.00     0.006 A 
HETATM   20  C13 UNL     1      31.689  -8.496  56.447  1.00  0.00     0.016 A 
HETATM   21  C14 UNL     1      32.711  -9.357  56.128  1.00  0.00     0.018 A 
HETATM   22  C15 UNL     1      32.788 -10.591  56.737  1.00  0.00     0.087 A 
HETATM   23  N2  UNL     1      31.866 -10.931  57.628  1.00  0.00    -0.374 N 
HETATM   24  C16 UNL     1      30.850 -10.101  57.959  1.00  0.00     0.101 A 
ATOM     25  H2  UNL     1      31.926 -11.845  58.077  1.00  0.00     0.164 HD
ENDBRANCH   8  19
TORSDOF 4
ENDMDL
