MODEL 2
REMARK VINA RESULT: -7.463897071      3.555      7.701
REMARK  4 active torsions:
REMARK  status: ('A' for Active; 'I' for Inactive)
REMARK    1  A    between atoms: O1_2  and  C2_3 
REMARK    2  A    between atoms: C5_6  and  C6_7 
REMARK    3  A    between atoms: C11_14  and  C12_15 
REMARK    4  A    between atoms: C17_22  and  O2_23 
ROOT
HETATM    1  C6  UNL     1      32.695  -7.183  64.791  1.00  0.00     0.023 C 
HETATM    2  C7  UNL     1      32.295  -8.183  65.535  1.00  0.00    -0.030 C 
HETATM    3  C8  UNL     1      30.870  -8.525  65.690  1.00  0.00     0.042 C 
HETATM    4  C9  UNL     1      30.657 -10.004  65.436  1.00  0.00     0.024 C 
HETATM    5  C10 UNL     1      31.931 -10.769  65.343  1.00  0.00     0.120 C 
HETATM    6  N1  UNL     1      33.042 -10.331  66.102  1.00  0.00    -0.389 N 
ATOM      7  H1  UNL     1      33.661 -11.008  66.546  1.00  0.00     0.159 HD
HETATM    8  C11 UNL     1      33.267  -9.057  66.226  1.00  0.00     0.046 C 
ENDROOT
BRANCH   1   9
HETATM    9  C5  UNL     1      31.824  -6.314  64.042  1.00  0.00    -0.002 A 
HETATM   10  C4  UNL     1      31.334  -6.657  62.803  1.00  0.00     0.017 A 
HETATM   11  C3  UNL     1      30.458  -5.830  62.105  1.00  0.00     0.038 A 
HETATM   12  C2  UNL     1      30.069  -4.636  62.663  1.00  0.00     0.070 A 
HETATM   13  C19 UNL     1      30.556  -4.289  63.901  1.00  0.00     0.074 A 
HETATM   14  C17 UNL     1      31.425  -5.124  64.584  1.00  0.00     0.081 A 
BRANCH  12  15
HETATM   15  O1  UNL     1      29.202  -3.754  62.036  1.00  0.00    -0.356 OA
HETATM   16  C1  UNL     1      29.690  -2.633  61.312  1.00  0.00     0.210 C 
ENDBRANCH  12  15
BRANCH  14  17
HETATM   17  O2  UNL     1      31.906  -4.778  65.828  1.00  0.00    -0.355 OA
HETATM   18  C18 UNL     1      31.366  -3.622  66.439  1.00  0.00     0.210 C 
ENDBRANCH  14  17
ENDBRANCH   1   9
BRANCH   8  19
HETATM   19  C12 UNL     1      34.398  -8.515  66.909  1.00  0.00     0.006 A 
HETATM   20  C13 UNL     1      34.223  -7.349  67.665  1.00  0.00     0.016 A 
HETATM   21  C14 UNL     1      35.300  -6.771  68.294  1.00  0.00     0.018 A 
HETATM   22  C15 UNL     1      36.550  -7.339  68.180  1.00  0.00     0.087 A 
HETATM   23  N2  UNL     1      36.697  -8.442  67.459  1.00  0.00    -0.374 N 
HETATM   24  C16 UNL     1      35.652  -9.030  66.830  1.00  0.00     0.101 A 
ATOM     25  H2  UNL     1      37.623  -8.860  67.377  1.00  0.00     0.164 HD
ENDBRANCH   8  19
TORSDOF 4
ENDMDL
