MODEL 1
REMARK VINA RESULT: -8.112098118      0.000      0.000
REMARK  3 active torsions:
REMARK  status: ('A' for Active; 'I' for Inactive)
REMARK    1  A    between atoms: S1_2  and  C1_5 
REMARK    2  A    between atoms: C6_10  and  N1_11 
REMARK    3  A    between atoms: N1_11  and  C7_13 
ROOT
HETATM    1  C1  UNL     1      25.060  20.876   3.176  1.00  0.00     0.081 A 
HETATM    2  C2  UNL     1      24.201  20.780   2.094  1.00  0.00     0.027 A 
HETATM    3  C3  UNL     1      22.899  20.430   2.361  1.00  0.00     0.014 A 
HETATM    4  C4  UNL     1      22.457  20.181   3.654  1.00  0.00    -0.024 A 
HETATM    5  C5  UNL     1      21.157  19.830   3.928  1.00  0.00     0.041 A 
HETATM    6  C6  UNL     1      20.680  19.573   5.215  1.00  0.00     0.033 A 
HETATM    7  C13 UNL     1      21.579  19.686   6.244  1.00  0.00     0.030 A 
HETATM    8  C14 UNL     1      22.911  20.041   5.998  1.00  0.00     0.014 A 
HETATM    9  C15 UNL     1      23.344  20.285   4.717  1.00  0.00    -0.024 A 
HETATM   10  C16 UNL     1      24.672  20.640   4.470  1.00  0.00     0.038 A 
ENDROOT
BRANCH   6  11
HETATM   11  N1  UNL     1      19.304  19.245   5.406  1.00  0.00    -0.356 N 
ATOM     12  H1  UNL     1      18.912  19.378   6.338  1.00  0.00     0.166 HD
BRANCH  11  13
HETATM   13  C7  UNL     1      18.447  18.749   4.404  1.00  0.00     0.032 A 
HETATM   14  C8  UNL     1      17.066  18.813   4.637  1.00  0.00     0.029 A 
HETATM   15  C9  UNL     1      16.205  18.364   3.667  1.00  0.00     0.002 A 
HETATM   16  C10 UNL     1      16.694  17.857   2.475  1.00  0.00     0.000 A 
HETATM   17  C11 UNL     1      18.047  17.789   2.231  1.00  0.00     0.002 A 
HETATM   18  C12 UNL     1      18.909  18.243   3.213  1.00  0.00     0.029 A 
ENDBRANCH  11  13
ENDBRANCH   6  11
BRANCH   1  19
HETATM   19  S1  UNL     1      26.756  21.321   2.927  1.00  0.00     0.137 S 
HETATM   20  O1  UNL     1      27.271  21.785   4.536  1.00  0.00    -0.591 OA
HETATM   21  O2  UNL     1      26.607  22.931   2.196  1.00  0.00    -0.591 OA
HETATM   22  O3  UNL     1      27.541  20.465   2.290  1.00  0.00    -0.591 OA
ENDBRANCH   1  19
TORSDOF 3
ENDMDL
