MODEL 3
REMARK VINA RESULT: -7.549846471      4.338      6.736
REMARK  3 active torsions:
REMARK  status: ('A' for Active; 'I' for Inactive)
REMARK    1  A    between atoms: S1_2  and  C1_5 
REMARK    2  A    between atoms: C6_10  and  N1_11 
REMARK    3  A    between atoms: N1_11  and  C7_13 
ROOT
HETATM    1  C1  UNL     1      23.801  19.857   6.398  1.00  0.00     0.081 A 
HETATM    2  C2  UNL     1      22.506  20.081   5.961  1.00  0.00     0.027 A 
HETATM    3  C3  UNL     1      22.346  20.438   4.643  1.00  0.00     0.014 A 
HETATM    4  C4  UNL     1      23.429  20.572   3.784  1.00  0.00    -0.024 A 
HETATM    5  C5  UNL     1      23.277  20.930   2.466  1.00  0.00     0.041 A 
HETATM    6  C6  UNL     1      24.343  21.074   1.574  1.00  0.00     0.033 A 
HETATM    7  C13 UNL     1      25.600  20.838   2.068  1.00  0.00     0.030 A 
HETATM    8  C14 UNL     1      25.789  20.473   3.407  1.00  0.00     0.014 A 
HETATM    9  C15 UNL     1      24.715  20.342   4.254  1.00  0.00    -0.024 A 
HETATM   10  C16 UNL     1      24.902  19.977   5.589  1.00  0.00     0.038 A 
ENDROOT
BRANCH   6  11
HETATM   11  N1  UNL     1      24.085  21.419   0.214  1.00  0.00    -0.356 N 
ATOM     12  H1  UNL     1      23.915  20.657  -0.442  1.00  0.00     0.166 HD
BRANCH  11  13
HETATM   13  C7  UNL     1      24.046  22.734  -0.291  1.00  0.00     0.032 A 
HETATM   14  C8  UNL     1      25.182  23.209  -0.960  1.00  0.00     0.029 A 
HETATM   15  C9  UNL     1      25.164  24.476  -1.488  1.00  0.00     0.002 A 
HETATM   16  C10 UNL     1      24.037  25.272  -1.362  1.00  0.00     0.000 A 
HETATM   17  C11 UNL     1      22.914  24.819  -0.709  1.00  0.00     0.002 A 
HETATM   18  C12 UNL     1      22.939  23.542  -0.179  1.00  0.00     0.029 A 
ENDBRANCH  11  13
ENDBRANCH   6  11
BRANCH   1  19
HETATM   19  S1  UNL     1      24.103  19.393   8.080  1.00  0.00     0.137 S 
HETATM   20  O1  UNL     1      23.133  20.545   8.976  1.00  0.00    -0.591 OA
HETATM   21  O2  UNL     1      25.712  20.086   8.367  1.00  0.00    -0.591 OA
HETATM   22  O3  UNL     1      23.951  18.121   8.416  1.00  0.00    -0.591 OA
ENDBRANCH   1  19
TORSDOF 3
ENDMDL
