MODEL 5
REMARK VINA RESULT: -7.482777850      3.530      5.179
REMARK  3 active torsions:
REMARK  status: ('A' for Active; 'I' for Inactive)
REMARK    1  A    between atoms: S1_2  and  C1_5 
REMARK    2  A    between atoms: C6_10  and  N1_11 
REMARK    3  A    between atoms: N1_11  and  C7_13 
ROOT
HETATM    1  C1  UNL     1      24.338  24.996   0.002  1.00  0.00     0.081 A 
HETATM    2  C2  UNL     1      23.251  25.303   0.806  1.00  0.00     0.027 A 
HETATM    3  C3  UNL     1      22.908  24.382   1.767  1.00  0.00     0.014 A 
HETATM    4  C4  UNL     1      23.611  23.196   1.930  1.00  0.00    -0.024 A 
HETATM    5  C5  UNL     1      23.272  22.271   2.888  1.00  0.00     0.041 A 
HETATM    6  C6  UNL     1      23.957  21.068   3.080  1.00  0.00     0.033 A 
HETATM    7  C13 UNL     1      25.023  20.824   2.253  1.00  0.00     0.030 A 
HETATM    8  C14 UNL     1      25.393  21.746   1.266  1.00  0.00     0.014 A 
HETATM    9  C15 UNL     1      24.695  22.918   1.107  1.00  0.00    -0.024 A 
HETATM   10  C16 UNL     1      25.063  23.839   0.124  1.00  0.00     0.038 A 
ENDROOT
BRANCH   6  11
HETATM   11  N1  UNL     1      23.551  20.182   4.122  1.00  0.00    -0.356 N 
ATOM     12  H1  UNL     1      24.283  19.717   4.658  1.00  0.00     0.166 HD
BRANCH  11  13
HETATM   13  C7  UNL     1      22.214  19.901   4.466  1.00  0.00     0.032 A 
HETATM   14  C8  UNL     1      21.387  19.353   3.476  1.00  0.00     0.029 A 
HETATM   15  C9  UNL     1      20.088  19.043   3.789  1.00  0.00     0.002 A 
HETATM   16  C10 UNL     1      19.602  19.267   5.067  1.00  0.00     0.000 A 
HETATM   17  C11 UNL     1      20.402  19.804   6.050  1.00  0.00     0.002 A 
HETATM   18  C12 UNL     1      21.710  20.114   5.727  1.00  0.00     0.029 A 
ENDBRANCH  11  13
ENDBRANCH   6  11
BRANCH   1  19
HETATM   19  S1  UNL     1      24.853  26.123  -1.263  1.00  0.00     0.137 S 
HETATM   20  O1  UNL     1      23.384  26.358  -2.189  1.00  0.00    -0.591 OA
HETATM   21  O2  UNL     1      25.726  25.049  -2.375  1.00  0.00    -0.591 OA
HETATM   22  O3  UNL     1      25.493  27.224  -0.899  1.00  0.00    -0.591 OA
ENDBRANCH   1  19
TORSDOF 3
ENDMDL
