MODEL 4
REMARK VINA RESULT: -7.522089111      3.818      5.190
REMARK  3 active torsions:
REMARK  status: ('A' for Active; 'I' for Inactive)
REMARK    1  A    between atoms: S1_2  and  C1_5 
REMARK    2  A    between atoms: C6_10  and  N1_11 
REMARK    3  A    between atoms: N1_11  and  C7_13 
ROOT
HETATM    1  C1  UNL     1      25.144  24.133   0.469  1.00  0.00     0.081 A 
HETATM    2  C2  UNL     1      23.887  24.611   0.802  1.00  0.00     0.027 A 
HETATM    3  C3  UNL     1      23.139  23.849   1.668  1.00  0.00     0.014 A 
HETATM    4  C4  UNL     1      23.615  22.653   2.189  1.00  0.00    -0.024 A 
HETATM    5  C5  UNL     1      22.873  21.885   3.054  1.00  0.00     0.041 A 
HETATM    6  C6  UNL     1      23.320  20.678   3.597  1.00  0.00     0.033 A 
HETATM    7  C13 UNL     1      24.573  20.260   3.229  1.00  0.00     0.030 A 
HETATM    8  C14 UNL     1      25.354  21.018   2.348  1.00  0.00     0.014 A 
HETATM    9  C15 UNL     1      24.880  22.200   1.835  1.00  0.00    -0.024 A 
HETATM   10  C16 UNL     1      25.658  22.958   0.957  1.00  0.00     0.038 A 
ENDROOT
BRANCH   6  11
HETATM   11  N1  UNL     1      22.490  19.964   4.513  1.00  0.00    -0.356 N 
ATOM     12  H1  UNL     1      21.923  19.203   4.141  1.00  0.00     0.166 HD
BRANCH  11  13
HETATM   13  C7  UNL     1      22.395  20.233   5.892  1.00  0.00     0.032 A 
HETATM   14  C8  UNL     1      21.254  20.907   6.348  1.00  0.00     0.029 A 
HETATM   15  C9  UNL     1      21.120  21.158   7.691  1.00  0.00     0.002 A 
HETATM   16  C10 UNL     1      22.099  20.749   8.582  1.00  0.00     0.000 A 
HETATM   17  C11 UNL     1      23.224  20.086   8.149  1.00  0.00     0.002 A 
HETATM   18  C12 UNL     1      23.353  19.837   6.795  1.00  0.00     0.029 A 
ENDBRANCH  11  13
ENDBRANCH   6  11
BRANCH   1  19
HETATM   19  S1  UNL     1      26.177  25.048  -0.640  1.00  0.00     0.137 S 
HETATM   20  O1  UNL     1      25.518  24.633  -2.209  1.00  0.00    -0.591 OA
HETATM   21  O2  UNL     1      27.648  24.055  -0.672  1.00  0.00    -0.591 OA
HETATM   22  O3  UNL     1      26.355  26.340  -0.408  1.00  0.00    -0.591 OA
ENDBRANCH   1  19
TORSDOF 3
ENDMDL
