MODEL 1
REMARK VINA RESULT: -7.585149213      0.000      0.000
REMARK  7 active torsions:
REMARK  status: ('A' for Active; 'I' for Inactive)
REMARK    1  A    between atoms: N1_2  and  C3_4 
REMARK    2  A    between atoms: C6_7  and  O1_8 
REMARK    3  A    between atoms: C13_16  and  N2_17 
REMARK    4  A    between atoms: C16_20  and  O2_21 
REMARK    5  A    between atoms: C17_23  and  C18_24 
REMARK    6  A    between atoms: C20_29  and  O5_30 
REMARK    7  A    between atoms: C21_32  and  O6_33 
ROOT
HETATM    1  C3  UNL     1     -22.555  16.351  20.475  1.00  0.00     0.036 A 
HETATM    2  C4  UNL     1     -23.428  16.903  21.403  1.00  0.00     0.033 A 
HETATM    3  C5  UNL     1     -23.838  18.187  21.265  1.00  0.00     0.040 A 
HETATM    4  C6  UNL     1     -23.401  18.993  20.195  1.00  0.00     0.080 A 
HETATM    5  C7  UNL     1     -22.540  18.418  19.298  1.00  0.00     0.056 A 
HETATM    6  C8  UNL     1     -22.101  17.092  19.415  1.00  0.00    -0.014 A 
HETATM    7  C9  UNL     1     -21.233  16.445  18.441  1.00  0.00     0.051 C 
HETATM    8  C10 UNL     1     -20.243  17.383  17.738  1.00  0.00     0.030 C 
HETATM    9  C11 UNL     1     -19.492  16.596  16.744  1.00  0.00     0.020 C 
HETATM   10  C12 UNL     1     -19.684  16.918  15.302  1.00  0.00     0.071 C 
HETATM   11  C13 UNL     1     -20.651  15.969  14.644  1.00  0.00     0.259 C 
HETATM   12  C16 UNL     1     -21.797  16.671  13.959  1.00  0.00     0.172 C 
HETATM   13  C17 UNL     1     -21.371  17.738  13.007  1.00  0.00     0.179 C 
HETATM   14  C19 UNL     1     -20.448  18.660  13.709  1.00  0.00     0.183 C 
HETATM   15  O4  UNL     1     -20.076  19.675  13.152  1.00  0.00    -0.293 OA
HETATM   16  C20 UNL     1     -19.972  18.364  15.077  1.00  0.00     0.173 C 
HETATM   17  C21 UNL     1     -20.905  18.953  16.023  1.00  0.00     0.096 C 
HETATM   18  C22 UNL     1     -21.039  18.517  17.241  1.00  0.00     0.030 C 
HETATM   19  C23 UNL     1     -22.001  19.168  18.176  1.00  0.00     0.194 C 
HETATM   20  O7  UNL     1     -22.318  20.347  17.968  1.00  0.00    -0.287 OA
ENDROOT
BRANCH   1  21
HETATM   21  N1  UNL     1     -22.116  15.021  20.658  1.00  0.00    -0.389 N 
HETATM   22  C1  UNL     1     -22.785  13.943  19.988  1.00  0.00     0.149 C 
HETATM   23  C2  UNL     1     -20.989  14.735  21.525  1.00  0.00     0.149 C 
ENDBRANCH   1  21
BRANCH   4  24
HETATM   24  O1  UNL     1     -23.832  20.271  20.091  1.00  0.00    -0.360 OA
ATOM     25  H1  UNL     1     -23.359  20.889  19.546  1.00  0.00     0.217 HD
ENDBRANCH   4  24
BRANCH  17  26
HETATM   26  O6  UNL     1     -21.703  20.042  15.614  1.00  0.00    -0.361 OA
ATOM     27  H6  UNL     1     -22.336  20.407  16.222  1.00  0.00     0.217 HD
ENDBRANCH  17  26
BRANCH  16  28
HETATM   28  O5  UNL     1     -18.741  19.050  15.232  1.00  0.00    -0.375 OA
ATOM     29  H5  UNL     1     -18.244  18.898  14.436  1.00  0.00     0.211 HD
ENDBRANCH  16  28
BRANCH  11  30
HETATM   30  N2  UNL     1     -20.030  15.049  13.725  1.00  0.00     0.087 N 
HETATM   31  C14 UNL     1     -19.964  13.695  14.301  1.00  0.00     0.310 C 
HETATM   32  C15 UNL     1     -18.724  15.374  13.284  1.00  0.00     0.310 C 
ENDBRANCH  11  30
BRANCH  12  33
HETATM   33  O2  UNL     1     -22.761  17.108  14.870  1.00  0.00    -0.392 OA
ATOM     34  H2  UNL     1     -23.383  17.706  14.470  1.00  0.00     0.210 HD
ENDBRANCH  12  33
BRANCH  13  35
HETATM   35  C18 UNL     1     -22.582  18.451  12.531  1.00  0.00     0.245 C 
HETATM   36  N3  UNL     1     -22.964  18.419  11.141  1.00  0.00    -0.061 NA
HETATM   37  O3  UNL     1     -23.309  19.100  13.307  1.00  0.00    -0.276 OA
ENDBRANCH  13  35
TORSDOF 7
ENDMDL
