MODEL 4
REMARK VINA RESULT: -7.211613328      4.137      6.568
REMARK  7 active torsions:
REMARK  status: ('A' for Active; 'I' for Inactive)
REMARK    1  A    between atoms: N1_2  and  C3_4 
REMARK    2  A    between atoms: C6_7  and  O1_8 
REMARK    3  A    between atoms: C13_16  and  N2_17 
REMARK    4  A    between atoms: C16_20  and  O2_21 
REMARK    5  A    between atoms: C17_23  and  C18_24 
REMARK    6  A    between atoms: C20_29  and  O5_30 
REMARK    7  A    between atoms: C21_32  and  O6_33 
ROOT
HETATM    1  C3  UNL     1     -17.898  12.125  15.287  1.00  0.00     0.036 A 
HETATM    2  C4  UNL     1     -16.914  11.416  15.963  1.00  0.00     0.033 A 
HETATM    3  C5  UNL     1     -15.699  11.977  16.172  1.00  0.00     0.040 A 
HETATM    4  C6  UNL     1     -15.395  13.276  15.718  1.00  0.00     0.080 A 
HETATM    5  C7  UNL     1     -16.387  13.948  15.054  1.00  0.00     0.056 A 
HETATM    6  C8  UNL     1     -17.654  13.393  14.825  1.00  0.00    -0.014 A 
HETATM    7  C9  UNL     1     -18.739  14.112  14.174  1.00  0.00     0.051 C 
HETATM    8  C10 UNL     1     -18.293  15.134  13.120  1.00  0.00     0.030 C 
HETATM    9  C11 UNL     1     -19.493  15.819  12.608  1.00  0.00     0.020 C 
HETATM   10  C12 UNL     1     -19.644  17.275  12.887  1.00  0.00     0.071 C 
HETATM   11  C13 UNL     1     -20.562  17.525  14.054  1.00  0.00     0.259 C 
HETATM   12  C16 UNL     1     -19.930  18.369  15.134  1.00  0.00     0.172 C 
HETATM   13  C17 UNL     1     -19.344  19.648  14.637  1.00  0.00     0.179 C 
HETATM   14  C19 UNL     1     -18.428  19.345  13.513  1.00  0.00     0.183 C 
HETATM   15  O4  UNL     1     -17.747  20.234  13.038  1.00  0.00    -0.293 OA
HETATM   16  C20 UNL     1     -18.331  17.978  12.958  1.00  0.00     0.173 C 
HETATM   17  C21 UNL     1     -17.296  17.262  13.686  1.00  0.00     0.096 C 
HETATM   18  C22 UNL     1     -17.265  15.965  13.768  1.00  0.00     0.030 C 
HETATM   19  C23 UNL     1     -16.171  15.280  14.514  1.00  0.00     0.194 C 
HETATM   20  O7  UNL     1     -15.093  15.873  14.656  1.00  0.00    -0.287 OA
ENDROOT
BRANCH   1  21
HETATM   21  N1  UNL     1     -19.146  11.507  15.053  1.00  0.00    -0.389 N 
HETATM   22  C1  UNL     1     -20.127  11.446  16.097  1.00  0.00     0.149 C 
HETATM   23  C2  UNL     1     -19.445  10.929  13.756  1.00  0.00     0.149 C 
ENDBRANCH   1  21
BRANCH   4  24
HETATM   24  O1  UNL     1     -14.170  13.802  15.945  1.00  0.00    -0.360 OA
ATOM     25  H1  UNL     1     -13.967  14.187  16.790  1.00  0.00     0.217 HD
ENDBRANCH   4  24
BRANCH  17  26
HETATM   26  O6  UNL     1     -16.279  17.995  14.334  1.00  0.00    -0.361 OA
ATOM     27  H6  UNL     1     -15.388  17.666  14.315  1.00  0.00     0.217 HD
ENDBRANCH  17  26
BRANCH  16  28
HETATM   28  O5  UNL     1     -17.874  18.117  11.624  1.00  0.00    -0.375 OA
ATOM     29  H5  UNL     1     -17.065  18.614  11.665  1.00  0.00     0.211 HD
ENDBRANCH  16  28
BRANCH  11  30
HETATM   30  N2  UNL     1     -21.836  18.089  13.684  1.00  0.00     0.087 N 
HETATM   31  C14 UNL     1     -22.940  17.358  14.329  1.00  0.00     0.310 C 
HETATM   32  C15 UNL     1     -22.129  18.143  12.300  1.00  0.00     0.310 C 
ENDBRANCH  11  30
BRANCH  12  33
HETATM   33  O2  UNL     1     -19.042  17.632  15.920  1.00  0.00    -0.392 OA
ATOM     34  H2  UNL     1     -18.139  17.882  15.765  1.00  0.00     0.210 HD
ENDBRANCH  12  33
BRANCH  13  35
HETATM   35  C18 UNL     1     -18.621  20.297  15.759  1.00  0.00     0.245 C 
HETATM   36  N3  UNL     1     -19.308  21.165  16.681  1.00  0.00    -0.061 NA
HETATM   37  O3  UNL     1     -17.401  20.119  15.943  1.00  0.00    -0.276 OA
ENDBRANCH  13  35
TORSDOF 7
ENDMDL
