MODEL 3
REMARK VINA RESULT: -7.571782128      5.809      8.330
REMARK  7 active torsions:
REMARK  status: ('A' for Active; 'I' for Inactive)
REMARK    1  A    between atoms: N1_2  and  C3_4 
REMARK    2  A    between atoms: C6_7  and  O1_8 
REMARK    3  A    between atoms: C13_16  and  N2_17 
REMARK    4  A    between atoms: C16_20  and  O2_21 
REMARK    5  A    between atoms: C17_23  and  C18_24 
REMARK    6  A    between atoms: C20_29  and  O5_30 
REMARK    7  A    between atoms: C21_32  and  O6_33 
ROOT
HETATM    1  C3  UNL     1     -18.074  13.854  22.530  1.00  0.00     0.036 A 
HETATM    2  C4  UNL     1     -17.531  12.923  23.407  1.00  0.00     0.033 A 
HETATM    3  C5  UNL     1     -16.252  13.061  23.832  1.00  0.00     0.040 A 
HETATM    4  C6  UNL     1     -15.441  14.133  23.407  1.00  0.00     0.080 A 
HETATM    5  C7  UNL     1     -16.007  15.032  22.542  1.00  0.00     0.056 A 
HETATM    6  C8  UNL     1     -17.328  14.916  22.087  1.00  0.00    -0.014 A 
HETATM    7  C9  UNL     1     -17.965  15.892  21.216  1.00  0.00     0.051 C 
HETATM    8  C10 UNL     1     -17.017  16.598  20.238  1.00  0.00     0.030 C 
HETATM    9  C11 UNL     1     -17.796  17.594  19.481  1.00  0.00     0.020 C 
HETATM   10  C12 UNL     1     -17.478  19.036  19.682  1.00  0.00     0.071 C 
HETATM   11  C13 UNL     1     -18.438  19.690  20.640  1.00  0.00     0.259 C 
HETATM   12  C16 UNL     1     -17.749  20.372  21.796  1.00  0.00     0.172 C 
HETATM   13  C17 UNL     1     -16.678  21.326  21.385  1.00  0.00     0.179 C 
HETATM   14  C19 UNL     1     -15.745  20.628  20.470  1.00  0.00     0.183 C 
HETATM   15  O4  UNL     1     -14.726  21.186  20.111  1.00  0.00    -0.293 OA
HETATM   16  C20 UNL     1     -16.035  19.261  19.987  1.00  0.00     0.173 C 
HETATM   17  C21 UNL     1     -15.456  18.312  20.924  1.00  0.00     0.096 C 
HETATM   18  C22 UNL     1     -15.893  17.094  21.049  1.00  0.00     0.030 C 
HETATM   19  C23 UNL     1     -15.251  16.156  22.015  1.00  0.00     0.194 C 
HETATM   20  O7  UNL     1     -14.076  16.364  22.346  1.00  0.00    -0.287 OA
ENDROOT
BRANCH   1  21
HETATM   21  N1  UNL     1     -19.398  13.671  22.076  1.00  0.00    -0.389 N 
HETATM   22  C1  UNL     1     -20.480  14.368  22.710  1.00  0.00     0.149 C 
HETATM   23  C2  UNL     1     -19.675  12.777  20.967  1.00  0.00     0.149 C 
ENDBRANCH   1  21
BRANCH   4  24
HETATM   24  O1  UNL     1     -14.168  14.237  23.853  1.00  0.00    -0.360 OA
ATOM     25  H1  UNL     1     -13.669  15.027  23.685  1.00  0.00     0.217 HD
ENDBRANCH   4  24
BRANCH  17  26
HETATM   26  O6  UNL     1     -14.376  18.720  21.735  1.00  0.00    -0.361 OA
ATOM     27  H6  UNL     1     -13.822  19.435  21.443  1.00  0.00     0.217 HD
ENDBRANCH  17  26
BRANCH  16  28
HETATM   28  O5  UNL     1     -15.335  19.110  18.764  1.00  0.00    -0.375 OA
ATOM     29  H5  UNL     1     -15.889  19.482  18.087  1.00  0.00     0.211 HD
ENDBRANCH  16  28
BRANCH  11  30
HETATM   30  N2  UNL     1     -19.352  20.611  20.011  1.00  0.00     0.087 N 
HETATM   31  C14 UNL     1     -20.741  20.140  20.139  1.00  0.00     0.310 C 
HETATM   32  C15 UNL     1     -19.134  20.886  18.639  1.00  0.00     0.310 C 
ENDBRANCH  11  30
BRANCH  12  33
HETATM   33  O2  UNL     1     -17.322  19.459  22.762  1.00  0.00    -0.392 OA
ATOM     34  H2  UNL     1     -16.901  19.889  23.497  1.00  0.00     0.210 HD
ENDBRANCH  12  33
BRANCH  13  35
HETATM   35  C18 UNL     1     -15.979  21.799  22.605  1.00  0.00     0.245 C 
HETATM   36  N3  UNL     1     -15.271  20.878  23.459  1.00  0.00    -0.061 NA
HETATM   37  O3  UNL     1     -15.980  23.000  22.938  1.00  0.00    -0.276 OA
ENDBRANCH  13  35
TORSDOF 7
ENDMDL
