MODEL 3
REMARK VINA RESULT: -9.325051599      0.896      1.015
REMARK  10 active torsions:
REMARK  status: ('A' for Active; 'I' for Inactive)
REMARK    1  A    between atoms: N5_13  and  C6_14 
REMARK    2  A    between atoms: C7_16  and  C8_17 
REMARK    3  A    between atoms: C8_17  and  S1_18 
REMARK    4  A    between atoms: S1_18  and  C9_19 
REMARK    5  A    between atoms: C9_19  and  C10_20 
REMARK    6  A    between atoms: C10_20  and  C11_21 
REMARK    7  A    between atoms: C11_21  and  N6_22 
REMARK    8  A    between atoms: C11_21  and  C12_26 
REMARK    9  A    between atoms: C13_29  and  O4_30 
REMARK   10  A    between atoms: C14_32  and  O5_33 
ROOT
HETATM    1  C6  UNL     1      14.695 -47.971   7.074  1.00  0.00     0.262 C 
HETATM    2  O1  UNL     1      15.450 -47.188   6.184  1.00  0.00    -0.355 OA
HETATM    3  C7  UNL     1      15.032 -47.626   4.915  1.00  0.00     0.165 C 
HETATM    4  C13 UNL     1      13.547 -47.856   5.050  1.00  0.00     0.180 C 
HETATM    5  C14 UNL     1      13.320 -47.700   6.538  1.00  0.00     0.198 C 
ENDROOT
BRANCH   1   6
HETATM    6  N5  UNL     1      14.921 -47.566   8.424  1.00  0.00    -0.297 N 
HETATM    7  C3  UNL     1      15.264 -48.381   9.436  1.00  0.00     0.142 A 
HETATM    8  N3  UNL     1      15.485 -49.702   9.521  1.00  0.00    -0.336 N 
HETATM    9  C4  UNL     1      15.385 -47.571  10.565  1.00  0.00     0.119 A 
HETATM   10  C2  UNL     1      15.821 -50.216  10.713  1.00  0.00     0.183 A 
ATOM     11  H3  UNL     1      15.400 -50.301   8.700  1.00  0.00     0.168 HD
HETATM   12  N2  UNL     1      15.942 -49.457  11.809  1.00  0.00    -0.339 N 
HETATM   13  C1  UNL     1      15.728 -48.134  11.755  1.00  0.00     0.148 A 
ATOM     14  H2  UNL     1      16.200 -49.890  12.696  1.00  0.00     0.167 HD
HETATM   15  N1  UNL     1      15.859 -47.325  12.926  1.00  0.00    -0.080 NA
HETATM   16  N4  UNL     1      15.104 -46.307  10.158  1.00  0.00    -0.346 N 
HETATM   17  C5  UNL     1      14.821 -46.296   8.862  1.00  0.00     0.188 A 
ATOM     18  H4  UNL     1      15.109 -45.486  10.762  1.00  0.00     0.167 HD
ENDBRANCH   1   6
BRANCH   5  19
HETATM   19  O5  UNL     1      12.347 -48.570   7.007  1.00  0.00    -0.388 OA
ATOM     20  H5  UNL     1      11.508 -48.159   7.173  1.00  0.00     0.210 HD
ENDBRANCH   5  19
BRANCH   3  21
HETATM   21  C8  UNL     1      15.251 -46.514   3.933  1.00  0.00     0.108 C 
BRANCH  21  22
HETATM   22  S1  UNL     1      14.174 -45.122   4.021  1.00  0.00    -0.166 SA
BRANCH  22  23
HETATM   23  C9  UNL     1      14.940 -43.529   4.056  1.00  0.00     0.076 C 
BRANCH  23  24
HETATM   24  C10 UNL     1      16.381 -43.532   3.632  1.00  0.00     0.054 C 
BRANCH  24  25
HETATM   25  C11 UNL     1      17.259 -42.963   4.690  1.00  0.00     0.284 C 
BRANCH  25  26
HETATM   26  N6  UNL     1      18.648 -43.024   4.361  1.00  0.00    -0.065 N 
ATOM     27  H63 UNL     1      18.788 -43.483   3.461  1.00  0.00     0.275 HD
ATOM     28  H62 UNL     1      19.009 -42.097   4.136  1.00  0.00     0.275 HD
ATOM     29  H61 UNL     1      19.213 -43.467   5.087  1.00  0.00     0.275 HD
ENDBRANCH  25  26
BRANCH  25  30
HETATM   30  C12 UNL     1      17.031 -43.547   6.019  1.00  0.00     0.204 C 
HETATM   31  O2  UNL     1      17.227 -44.764   6.203  1.00  0.00    -0.646 OA
HETATM   32  O3  UNL     1      16.602 -42.759   7.064  1.00  0.00    -0.646 OA
ENDBRANCH  25  30
ENDBRANCH  24  25
ENDBRANCH  23  24
ENDBRANCH  22  23
ENDBRANCH  21  22
ENDBRANCH   3  21
BRANCH   4  33
HETATM   33  O4  UNL     1      13.228 -49.187   4.714  1.00  0.00    -0.390 OA
ATOM     34  H4  UNL     1      13.451 -49.769   5.431  1.00  0.00     0.210 HD
ENDBRANCH   4  33
TORSDOF 10
ENDMDL
