MODEL 2
REMARK VINA RESULT: -9.544676792      1.220      1.979
REMARK  10 active torsions:
REMARK  status: ('A' for Active; 'I' for Inactive)
REMARK    1  A    between atoms: N5_13  and  C6_14 
REMARK    2  A    between atoms: C7_16  and  C8_17 
REMARK    3  A    between atoms: C8_17  and  S1_18 
REMARK    4  A    between atoms: S1_18  and  C9_19 
REMARK    5  A    between atoms: C9_19  and  C10_20 
REMARK    6  A    between atoms: C10_20  and  C11_21 
REMARK    7  A    between atoms: C11_21  and  N6_22 
REMARK    8  A    between atoms: C11_21  and  C12_26 
REMARK    9  A    between atoms: C13_29  and  O4_30 
REMARK   10  A    between atoms: C14_32  and  O5_33 
ROOT
HETATM    1  C6  UNL     1      14.524 -48.562   6.895  1.00  0.00     0.262 C 
HETATM    2  O1  UNL     1      14.962 -47.337   6.364  1.00  0.00    -0.355 OA
HETATM    3  C7  UNL     1      14.379 -47.299   5.085  1.00  0.00     0.165 C 
HETATM    4  C13 UNL     1      13.002 -47.890   5.266  1.00  0.00     0.180 C 
HETATM    5  C14 UNL     1      13.047 -48.410   6.685  1.00  0.00     0.198 C 
ENDROOT
BRANCH   1   6
HETATM    6  N5  UNL     1      14.943 -48.706   8.253  1.00  0.00    -0.297 N 
HETATM    7  C3  UNL     1      15.043 -47.710   9.148  1.00  0.00     0.142 A 
HETATM    8  N3  UNL     1      14.813 -46.388   9.087  1.00  0.00    -0.336 N 
HETATM    9  C4  UNL     1      15.478 -48.295  10.337  1.00  0.00     0.119 A 
HETATM   10  C2  UNL     1      15.014 -45.654  10.190  1.00  0.00     0.183 A 
ATOM     11  H3  UNL     1      14.492 -45.953   8.222  1.00  0.00     0.168 HD
HETATM   12  N2  UNL     1      15.432 -46.196  11.341  1.00  0.00    -0.339 N 
HETATM   13  C1  UNL     1      15.669 -47.513  11.434  1.00  0.00     0.148 A 
ATOM     14  H2  UNL     1      15.572 -45.600  12.158  1.00  0.00     0.167 HD
HETATM   15  N1  UNL     1      16.115 -48.090  12.664  1.00  0.00    -0.080 NA
HETATM   16  N4  UNL     1      15.616 -49.620  10.080  1.00  0.00    -0.346 N 
HETATM   17  C5  UNL     1      15.293 -49.878   8.818  1.00  0.00     0.188 A 
ATOM     18  H4  UNL     1      15.922 -50.317  10.758  1.00  0.00     0.167 HD
ENDBRANCH   1   6
BRANCH   5  19
HETATM   19  O5  UNL     1      12.330 -49.589   6.828  1.00  0.00    -0.388 OA
ATOM     20  H5  UNL     1      11.934 -49.901   6.023  1.00  0.00     0.210 HD
ENDBRANCH   5  19
BRANCH   3  21
HETATM   21  C8  UNL     1      14.229 -45.864   4.674  1.00  0.00     0.108 C 
BRANCH  21  22
HETATM   22  S1  UNL     1      15.404 -45.215   3.533  1.00  0.00    -0.166 SA
BRANCH  22  23
HETATM   23  C9  UNL     1      16.230 -43.726   4.009  1.00  0.00     0.076 C 
BRANCH  23  24
HETATM   24  C10 UNL     1      16.042 -43.355   5.452  1.00  0.00     0.054 C 
BRANCH  24  25
HETATM   25  C11 UNL     1      17.336 -42.990   6.091  1.00  0.00     0.284 C 
BRANCH  25  26
HETATM   26  N6  UNL     1      17.176 -42.235   7.293  1.00  0.00    -0.065 N 
ATOM     27  H63 UNL     1      16.793 -42.815   8.040  1.00  0.00     0.275 HD
ATOM     28  H62 UNL     1      18.082 -42.010   7.704  1.00  0.00     0.275 HD
ATOM     29  H61 UNL     1      16.617 -41.391   7.166  1.00  0.00     0.275 HD
ENDBRANCH  25  26
BRANCH  25  30
HETATM   30  C12 UNL     1      18.264 -42.301   5.185  1.00  0.00     0.204 C 
HETATM   31  O2  UNL     1      18.203 -41.063   5.058  1.00  0.00    -0.646 OA
HETATM   32  O3  UNL     1      19.204 -43.014   4.473  1.00  0.00    -0.646 OA
ENDBRANCH  25  30
ENDBRANCH  24  25
ENDBRANCH  23  24
ENDBRANCH  22  23
ENDBRANCH  21  22
ENDBRANCH   3  21
BRANCH   4  33
HETATM   33  O4  UNL     1      12.834 -49.001   4.416  1.00  0.00    -0.390 OA
ATOM     34  H4  UNL     1      12.178 -48.813   3.756  1.00  0.00     0.210 HD
ENDBRANCH   4  33
TORSDOF 10
ENDMDL
