MODEL 6
REMARK VINA RESULT: -7.610992703      2.632      6.316
REMARK  10 active torsions:
REMARK  status: ('A' for Active; 'I' for Inactive)
REMARK    1  A    between atoms: N5_13  and  C6_14 
REMARK    2  A    between atoms: C7_16  and  C8_17 
REMARK    3  A    between atoms: C8_17  and  S1_18 
REMARK    4  A    between atoms: S1_18  and  C9_19 
REMARK    5  A    between atoms: C9_19  and  C10_20 
REMARK    6  A    between atoms: C10_20  and  C11_21 
REMARK    7  A    between atoms: C11_21  and  N6_22 
REMARK    8  A    between atoms: C11_21  and  C12_26 
REMARK    9  A    between atoms: C13_29  and  O4_30 
REMARK   10  A    between atoms: C14_32  and  O5_33 
ROOT
HETATM    1  C6  UNL     1      13.740 -46.465   4.662  1.00  0.00     0.262 C 
HETATM    2  O1  UNL     1      13.766 -46.760   6.036  1.00  0.00    -0.355 OA
HETATM    3  C7  UNL     1      13.083 -47.986   6.128  1.00  0.00     0.165 C 
HETATM    4  C13 UNL     1      13.519 -48.770   4.916  1.00  0.00     0.180 C 
HETATM    5  C14 UNL     1      14.301 -47.746   4.122  1.00  0.00     0.198 C 
ENDROOT
BRANCH   1   6
HETATM    6  N5  UNL     1      14.501 -45.291   4.380  1.00  0.00    -0.297 N 
HETATM    7  C3  UNL     1      15.724 -45.019   4.865  1.00  0.00     0.142 A 
HETATM    8  N3  UNL     1      16.557 -45.676   5.687  1.00  0.00    -0.336 N 
HETATM    9  C4  UNL     1      16.089 -43.782   4.332  1.00  0.00     0.119 A 
HETATM   10  C2  UNL     1      17.739 -45.114   5.980  1.00  0.00     0.183 A 
ATOM     11  H3  UNL     1      16.298 -46.581   6.079  1.00  0.00     0.168 HD
HETATM   12  N2  UNL     1      18.108 -43.928   5.480  1.00  0.00    -0.339 N 
HETATM   13  C1  UNL     1      17.298 -43.248   4.656  1.00  0.00     0.148 A 
ATOM     14  H2  UNL     1      19.017 -43.537   5.730  1.00  0.00     0.167 HD
HETATM   15  N1  UNL     1      17.695 -41.983   4.122  1.00  0.00    -0.080 NA
HETATM   16  N4  UNL     1      15.053 -43.383   3.553  1.00  0.00    -0.346 N 
HETATM   17  C5  UNL     1      14.086 -44.292   3.577  1.00  0.00     0.188 A 
ATOM     18  H4  UNL     1      15.021 -42.511   3.026  1.00  0.00     0.167 HD
ENDBRANCH   1   6
BRANCH   5  19
HETATM   19  O5  UNL     1      14.128 -47.909   2.755  1.00  0.00    -0.388 OA
ATOM     20  H5  UNL     1      13.530 -47.285   2.363  1.00  0.00     0.210 HD
ENDBRANCH   5  19
BRANCH   3  21
HETATM   21  C8  UNL     1      13.560 -48.705   7.355  1.00  0.00     0.108 C 
BRANCH  21  22
HETATM   22  S1  UNL     1      15.295 -48.742   7.657  1.00  0.00    -0.166 SA
BRANCH  22  23
HETATM   23  C9  UNL     1      15.814 -49.397   9.214  1.00  0.00     0.076 C 
BRANCH  23  24
HETATM   24  C10 UNL     1      15.035 -48.878  10.388  1.00  0.00     0.054 C 
BRANCH  24  25
HETATM   25  C11 UNL     1      15.800 -47.839  11.130  1.00  0.00     0.284 C 
BRANCH  25  26
HETATM   26  N6  UNL     1      16.054 -48.192  12.491  1.00  0.00    -0.065 N 
ATOM     27  H63 UNL     1      15.501 -49.004  12.765  1.00  0.00     0.275 HD
ATOM     28  H62 UNL     1      16.990 -48.584  12.596  1.00  0.00     0.275 HD
ATOM     29  H61 UNL     1      15.910 -47.418  13.140  1.00  0.00     0.275 HD
ENDBRANCH  25  26
BRANCH  25  30
HETATM   30  C12 UNL     1      15.193 -46.503  11.063  1.00  0.00     0.204 C 
HETATM   31  O2  UNL     1      15.100 -45.918   9.967  1.00  0.00    -0.646 OA
HETATM   32  O3  UNL     1      14.724 -45.891  12.205  1.00  0.00    -0.646 OA
ENDBRANCH  25  30
ENDBRANCH  24  25
ENDBRANCH  23  24
ENDBRANCH  22  23
ENDBRANCH  21  22
ENDBRANCH   3  21
BRANCH   4  33
HETATM   33  O4  UNL     1      12.400 -49.135   4.143  1.00  0.00    -0.390 OA
ATOM     34  H4  UNL     1      11.676 -49.378   4.708  1.00  0.00     0.210 HD
ENDBRANCH   4  33
TORSDOF 10
ENDMDL
