MODEL 4
REMARK VINA RESULT: -8.196702059      2.887      6.468
REMARK  10 active torsions:
REMARK  status: ('A' for Active; 'I' for Inactive)
REMARK    1  A    between atoms: N5_13  and  C6_14 
REMARK    2  A    between atoms: C7_16  and  C8_17 
REMARK    3  A    between atoms: C8_17  and  S1_18 
REMARK    4  A    between atoms: S1_18  and  C9_19 
REMARK    5  A    between atoms: C9_19  and  C10_20 
REMARK    6  A    between atoms: C10_20  and  C11_21 
REMARK    7  A    between atoms: C11_21  and  N6_22 
REMARK    8  A    between atoms: C11_21  and  C12_26 
REMARK    9  A    between atoms: C13_29  and  O4_30 
REMARK   10  A    between atoms: C14_32  and  O5_33 
ROOT
HETATM    1  C6  UNL     1      13.704 -46.529   4.792  1.00  0.00     0.262 C 
HETATM    2  O1  UNL     1      13.788 -46.815   6.165  1.00  0.00    -0.355 OA
HETATM    3  C7  UNL     1      13.111 -48.041   6.294  1.00  0.00     0.165 C 
HETATM    4  C13 UNL     1      13.498 -48.833   5.070  1.00  0.00     0.180 C 
HETATM    5  C14 UNL     1      14.244 -47.814   4.237  1.00  0.00     0.198 C 
ENDROOT
BRANCH   1   6
HETATM    6  N5  UNL     1      14.451 -45.356   4.470  1.00  0.00    -0.297 N 
HETATM    7  C3  UNL     1      15.685 -45.069   4.919  1.00  0.00     0.142 A 
HETATM    8  N3  UNL     1      16.542 -45.708   5.731  1.00  0.00    -0.336 N 
HETATM    9  C4  UNL     1      16.029 -43.840   4.355  1.00  0.00     0.119 A 
HETATM   10  C2  UNL     1      17.728 -45.135   5.984  1.00  0.00     0.183 A 
ATOM     11  H3  UNL     1      16.299 -46.608   6.145  1.00  0.00     0.168 HD
HETATM   12  N2  UNL     1      18.078 -43.956   5.454  1.00  0.00    -0.339 N 
HETATM   13  C1  UNL     1      17.243 -43.294   4.639  1.00  0.00     0.148 A 
ATOM     14  H2  UNL     1      18.990 -43.556   5.673  1.00  0.00     0.167 HD
HETATM   15  N1  UNL     1      17.619 -42.036   4.073  1.00  0.00    -0.080 NA
HETATM   16  N4  UNL     1      14.971 -43.460   3.597  1.00  0.00    -0.346 N 
HETATM   17  C5  UNL     1      14.010 -44.374   3.661  1.00  0.00     0.188 A 
ATOM     18  H4  UNL     1      14.921 -42.598   3.055  1.00  0.00     0.167 HD
ENDBRANCH   1   6
BRANCH   5  19
HETATM   19  O5  UNL     1      14.015 -47.986   2.881  1.00  0.00    -0.388 OA
ATOM     20  H5  UNL     1      13.114 -47.843   2.618  1.00  0.00     0.210 HD
ENDBRANCH   5  19
BRANCH   3  21
HETATM   21  C8  UNL     1      13.640 -48.750   7.505  1.00  0.00     0.108 C 
BRANCH  21  22
HETATM   22  S1  UNL     1      14.937 -47.970   8.407  1.00  0.00    -0.166 SA
BRANCH  22  23
HETATM   23  C9  UNL     1      14.471 -46.636   9.470  1.00  0.00     0.076 C 
BRANCH  23  24
HETATM   24  C10 UNL     1      15.512 -46.273  10.490  1.00  0.00     0.054 C 
BRANCH  24  25
HETATM   25  C11 UNL     1      15.114 -46.722  11.852  1.00  0.00     0.284 C 
BRANCH  25  26
HETATM   26  N6  UNL     1      15.270 -45.707  12.846  1.00  0.00    -0.065 N 
ATOM     27  H63 UNL     1      14.758 -44.863  12.588  1.00  0.00     0.275 HD
ATOM     28  H62 UNL     1      14.768 -45.954  13.698  1.00  0.00     0.275 HD
ATOM     29  H61 UNL     1      16.246 -45.492  13.050  1.00  0.00     0.275 HD
ENDBRANCH  25  26
BRANCH  25  30
HETATM   30  C12 UNL     1      15.788 -47.954  12.284  1.00  0.00     0.204 C 
HETATM   31  O2  UNL     1      16.800 -47.888  13.007  1.00  0.00    -0.646 OA
HETATM   32  O3  UNL     1      15.307 -49.185  11.894  1.00  0.00    -0.646 OA
ENDBRANCH  25  30
ENDBRANCH  24  25
ENDBRANCH  23  24
ENDBRANCH  22  23
ENDBRANCH  21  22
ENDBRANCH   3  21
BRANCH   4  33
HETATM   33  O4  UNL     1      12.348 -49.205   4.347  1.00  0.00    -0.390 OA
ATOM     34  H4  UNL     1      12.382 -48.846   3.469  1.00  0.00     0.210 HD
ENDBRANCH   4  33
TORSDOF 10
ENDMDL
