MODEL 1
REMARK VINA RESULT: -9.812751313      0.000      0.000
REMARK  10 active torsions:
REMARK  status: ('A' for Active; 'I' for Inactive)
REMARK    1  A    between atoms: N5_13  and  C6_14 
REMARK    2  A    between atoms: C7_16  and  C8_17 
REMARK    3  A    between atoms: C8_17  and  S1_18 
REMARK    4  A    between atoms: S1_18  and  C9_19 
REMARK    5  A    between atoms: C9_19  and  C10_20 
REMARK    6  A    between atoms: C10_20  and  C11_21 
REMARK    7  A    between atoms: C11_21  and  N6_22 
REMARK    8  A    between atoms: C11_21  and  C12_26 
REMARK    9  A    between atoms: C13_29  and  O4_30 
REMARK   10  A    between atoms: C14_32  and  O5_33 
ROOT
HETATM    1  C6  UNL     1      14.660 -47.954   6.997  1.00  0.00     0.262 C 
HETATM    2  O1  UNL     1      15.331 -47.117   6.089  1.00  0.00    -0.355 OA
HETATM    3  C7  UNL     1      14.907 -47.580   4.831  1.00  0.00     0.165 C 
HETATM    4  C13 UNL     1      13.447 -47.915   5.010  1.00  0.00     0.180 C 
HETATM    5  C14 UNL     1      13.255 -47.779   6.504  1.00  0.00     0.198 C 
ENDROOT
BRANCH   1   6
HETATM    6  N5  UNL     1      14.898 -47.537   8.342  1.00  0.00    -0.297 N 
HETATM    7  C3  UNL     1      15.243 -48.344   9.360  1.00  0.00     0.142 A 
HETATM    8  N3  UNL     1      15.455 -49.666   9.456  1.00  0.00    -0.336 N 
HETATM    9  C4  UNL     1      15.377 -47.524  10.480  1.00  0.00     0.119 A 
HETATM   10  C2  UNL     1      15.796 -50.171  10.651  1.00  0.00     0.183 A 
ATOM     11  H3  UNL     1      15.361 -50.272   8.641  1.00  0.00     0.168 HD
HETATM   12  N2  UNL     1      15.930 -49.402  11.739  1.00  0.00    -0.339 N 
HETATM   13  C1  UNL     1      15.725 -48.078  11.673  1.00  0.00     0.148 A 
ATOM     14  H2  UNL     1      16.191 -49.828  12.628  1.00  0.00     0.167 HD
HETATM   15  N1  UNL     1      15.869 -47.259  12.835  1.00  0.00    -0.080 NA
HETATM   16  N4  UNL     1      15.102 -46.263  10.063  1.00  0.00    -0.346 N 
HETATM   17  C5  UNL     1      14.811 -46.262   8.768  1.00  0.00     0.188 A 
ATOM     18  H4  UNL     1      15.117 -45.435  10.658  1.00  0.00     0.167 HD
ENDBRANCH   1   6
BRANCH   5  19
HETATM   19  O5  UNL     1      12.360 -48.716   6.999  1.00  0.00    -0.388 OA
ATOM     20  H5  UNL     1      11.475 -48.389   7.104  1.00  0.00     0.210 HD
ENDBRANCH   5  19
BRANCH   3  21
HETATM   21  C8  UNL     1      15.017 -46.452   3.848  1.00  0.00     0.108 C 
BRANCH  21  22
HETATM   22  S1  UNL     1      14.212 -44.937   4.249  1.00  0.00    -0.166 SA
BRANCH  22  23
HETATM   23  C9  UNL     1      15.257 -43.551   4.586  1.00  0.00     0.076 C 
BRANCH  23  24
HETATM   24  C10 UNL     1      16.578 -43.592   3.875  1.00  0.00     0.054 C 
BRANCH  24  25
HETATM   25  C11 UNL     1      17.709 -43.703   4.837  1.00  0.00     0.284 C 
BRANCH  25  26
HETATM   26  N6  UNL     1      17.569 -44.799   5.743  1.00  0.00    -0.065 N 
ATOM     27  H63 UNL     1      18.055 -45.625   5.392  1.00  0.00     0.275 HD
ATOM     28  H62 UNL     1      18.109 -44.637   6.593  1.00  0.00     0.275 HD
ATOM     29  H61 UNL     1      16.598 -45.015   5.965  1.00  0.00     0.275 HD
ENDBRANCH  25  26
BRANCH  25  30
HETATM   30  C12 UNL     1      17.968 -42.464   5.584  1.00  0.00     0.204 C 
HETATM   31  O2  UNL     1      17.495 -42.318   6.727  1.00  0.00    -0.646 OA
HETATM   32  O3  UNL     1      18.732 -41.461   5.028  1.00  0.00    -0.646 OA
ENDBRANCH  25  30
ENDBRANCH  24  25
ENDBRANCH  23  24
ENDBRANCH  22  23
ENDBRANCH  21  22
ENDBRANCH   3  21
BRANCH   4  33
HETATM   33  O4  UNL     1      13.212 -49.264   4.677  1.00  0.00    -0.390 OA
ATOM     34  H4  UNL     1      13.938 -49.804   4.966  1.00  0.00     0.210 HD
ENDBRANCH   4  33
TORSDOF 10
ENDMDL
