MODEL 4
REMARK VINA RESULT: -9.983392430      2.464      3.434
REMARK  3 active torsions:
REMARK  status: ('A' for Active; 'I' for Inactive)
REMARK    1  A    between atoms: C1_2  and  C2_4 
REMARK    2  A    between atoms: C5_7  and  N1_8 
REMARK    3  A    between atoms: N1_8  and  C6_10 
ROOT
HETATM    1  C6  UNL     1       8.658 -10.136  -3.824  1.00  0.00     0.683 A 
HETATM    2  N2  UNL     1       8.687  -8.889  -3.262  1.00  0.00    -0.201 N 
ATOM      3  H2  UNL     1       9.558  -8.357  -3.279  1.00  0.00     0.183 HD
HETATM    4  C7  UNL     1       7.584  -8.339  -2.682  1.00  0.00     0.117 A 
HETATM    5  C8  UNL     1       6.406  -9.013  -2.640  1.00  0.00     0.004 A 
HETATM    6  C9  UNL     1       6.396 -10.296  -3.225  1.00  0.00     0.069 A 
HETATM    7  N3  UNL     1       7.478 -10.811  -3.783  1.00  0.00    -0.190 N 
ATOM      8  H3  UNL     1       7.426 -11.743  -4.195  1.00  0.00     0.184 HD
HETATM    9  C10 UNL     1       5.215 -11.175  -3.234  1.00  0.00     0.004 A 
HETATM   10  C11 UNL     1       5.576 -12.482  -3.190  1.00  0.00     0.016 A 
HETATM   11  C12 UNL     1       4.591 -13.423  -3.045  1.00  0.00     0.025 A 
HETATM   12  C13 UNL     1       3.264 -13.011  -2.945  1.00  0.00     0.035 A 
HETATM   13 CL1  UNL     1       2.035 -14.231  -2.766  1.00  0.00    -0.084 Cl
HETATM   14  C14 UNL     1       2.941 -11.672  -2.995  1.00  0.00     0.038 A 
HETATM   15  C15 UNL     1       3.929 -10.718  -3.149  1.00  0.00     0.005 A 
HETATM   16  C16 UNL     1       3.427  -9.379  -3.222  1.00  0.00     0.056 C 
HETATM   17  C17 UNL     1       2.150  -9.145  -3.838  1.00  0.00     0.068 A 
HETATM   18  C18 UNL     1       1.578  -7.872  -3.587  1.00  0.00     0.132 A 
HETATM   19  F1  UNL     1       2.203  -7.057  -2.690  1.00  0.00    -0.205 F 
HETATM   20  C19 UNL     1       0.433  -7.444  -4.206  1.00  0.00     0.043 A 
HETATM   21  C20 UNL     1      -0.229  -8.238  -5.117  1.00  0.00     0.006 A 
HETATM   22  C21 UNL     1       0.302  -9.470  -5.380  1.00  0.00     0.043 A 
HETATM   23  C22 UNL     1       1.484  -9.894  -4.734  1.00  0.00     0.132 A 
HETATM   24  F2  UNL     1       2.025 -11.078  -5.182  1.00  0.00    -0.205 F 
HETATM   25  N4  UNL     1       4.065  -8.364  -2.689  1.00  0.00    -0.384 N 
ATOM     26  H4  UNL     1       3.591  -7.469  -2.808  1.00  0.00     0.160 HD
HETATM   27  C23 UNL     1       5.319  -8.274  -1.962  1.00  0.00     0.162 C 
ENDROOT
BRANCH   1  28
HETATM   28  N1  UNL     1       9.823 -10.680  -4.402  1.00  0.00    -0.192 N 
ATOM     29  H1  UNL     1       9.958 -10.528  -5.402  1.00  0.00     0.184 HD
BRANCH  28  30
HETATM   30  C5  UNL     1      10.819 -11.414  -3.725  1.00  0.00     0.049 A 
HETATM   31  C4  UNL     1      10.776 -12.741  -3.400  1.00  0.00     0.031 A 
HETATM   32  C3  UNL     1      11.817 -13.377  -2.702  1.00  0.00     0.020 A 
HETATM   33  C2  UNL     1      12.941 -12.686  -2.312  1.00  0.00     0.041 A 
HETATM   34  C25 UNL     1      12.985 -11.349  -2.639  1.00  0.00     0.020 A 
HETATM   35  C24 UNL     1      11.974 -10.718  -3.320  1.00  0.00     0.031 A 
BRANCH  33  36
HETATM   36  C1  UNL     1      14.029 -13.324  -1.591  1.00  0.00     0.209 C 
HETATM   37  O1  UNL     1      15.206 -13.101  -1.950  1.00  0.00    -0.644 OA
HETATM   38  O2  UNL     1      13.803 -14.166  -0.521  1.00  0.00    -0.644 OA
ENDBRANCH  33  36
ENDBRANCH  28  30
ENDBRANCH   1  28
TORSDOF 3
ENDMDL
