MODEL 1
REMARK VINA RESULT: -10.319511393      0.000      0.000
REMARK  3 active torsions:
REMARK  status: ('A' for Active; 'I' for Inactive)
REMARK    1  A    between atoms: C1_2  and  C2_4 
REMARK    2  A    between atoms: C5_7  and  N1_8 
REMARK    3  A    between atoms: N1_8  and  C6_10 
ROOT
HETATM    1  C6  UNL     1       8.697  -9.856  -3.466  1.00  0.00     0.683 A 
HETATM    2  N2  UNL     1       8.832 -10.489  -4.671  1.00  0.00    -0.201 N 
ATOM      3  H2  UNL     1       9.704 -10.973  -4.883  1.00  0.00     0.183 HD
HETATM    4  C7  UNL     1       7.831 -10.490  -5.596  1.00  0.00     0.117 A 
HETATM    5  C8  UNL     1       6.653  -9.858  -5.353  1.00  0.00     0.004 A 
HETATM    6  C9  UNL     1       6.533  -9.212  -4.105  1.00  0.00     0.069 A 
HETATM    7  N3  UNL     1       7.517  -9.223  -3.222  1.00  0.00    -0.190 N 
ATOM      8  H3  UNL     1       7.388  -8.742  -2.332  1.00  0.00     0.184 HD
HETATM    9  C10 UNL     1       5.341  -8.452  -3.696  1.00  0.00     0.004 A 
HETATM   10  C11 UNL     1       5.673  -7.422  -2.876  1.00  0.00     0.016 A 
HETATM   11  C12 UNL     1       4.695  -6.531  -2.525  1.00  0.00     0.025 A 
HETATM   12  C13 UNL     1       3.404  -6.706  -3.018  1.00  0.00     0.035 A 
HETATM   13 CL1  UNL     1       2.182  -5.558  -2.549  1.00  0.00    -0.084 Cl
HETATM   14  C14 UNL     1       3.109  -7.766  -3.848  1.00  0.00     0.038 A 
HETATM   15  C15 UNL     1       4.090  -8.673  -4.201  1.00  0.00     0.005 A 
HETATM   16  C16 UNL     1       3.615  -9.736  -5.035  1.00  0.00     0.056 C 
HETATM   17  C17 UNL     1       2.272 -10.216  -4.857  1.00  0.00     0.068 A 
HETATM   18  C18 UNL     1       1.770 -11.022  -5.909  1.00  0.00     0.132 A 
HETATM   19  F1  UNL     1       2.530 -11.150  -7.034  1.00  0.00    -0.205 F 
HETATM   20  C19 UNL     1       0.563 -11.665  -5.833  1.00  0.00     0.043 A 
HETATM   21  C20 UNL     1      -0.236 -11.561  -4.714  1.00  0.00     0.006 A 
HETATM   22  C21 UNL     1       0.225 -10.792  -3.683  1.00  0.00     0.043 A 
HETATM   23  C22 UNL     1       1.473 -10.138  -3.777  1.00  0.00     0.132 A 
HETATM   24  F2  UNL     1       1.920  -9.521  -2.632  1.00  0.00    -0.205 F 
HETATM   25  N4  UNL     1       4.344 -10.245  -6.000  1.00  0.00    -0.384 N 
ATOM     26  H4  UNL     1       3.879 -10.990  -6.520  1.00  0.00     0.160 HD
HETATM   27  C23 UNL     1       5.686  -9.949  -6.468  1.00  0.00     0.162 C 
ENDROOT
BRANCH   1  28
HETATM   28  N1  UNL     1       9.760  -9.862  -2.540  1.00  0.00    -0.192 N 
ATOM     29  H1  UNL     1       9.805  -9.084  -1.882  1.00  0.00     0.184 HD
BRANCH  28  30
HETATM   30  C5  UNL     1      10.766 -10.845  -2.441  1.00  0.00     0.049 A 
HETATM   31  C4  UNL     1      10.626 -12.183  -2.678  1.00  0.00     0.031 A 
HETATM   32  C3  UNL     1      11.693 -13.087  -2.530  1.00  0.00     0.020 A 
HETATM   33  C2  UNL     1      12.941 -12.661  -2.138  1.00  0.00     0.041 A 
HETATM   34  C25 UNL     1      13.082 -11.312  -1.900  1.00  0.00     0.020 A 
HETATM   35  C24 UNL     1      12.048 -10.421  -2.041  1.00  0.00     0.031 A 
BRANCH  33  36
HETATM   36  C1  UNL     1      14.056 -13.578  -1.980  1.00  0.00     0.209 C 
HETATM   37  O1  UNL     1      14.778 -13.829  -2.970  1.00  0.00    -0.644 OA
HETATM   38  O2  UNL     1      14.345 -14.178  -0.771  1.00  0.00    -0.644 OA
ENDBRANCH  33  36
ENDBRANCH  28  30
ENDBRANCH   1  28
TORSDOF 3
ENDMDL
