MODEL 2
REMARK VINA RESULT: -10.155383437      4.878      8.351
REMARK  3 active torsions:
REMARK  status: ('A' for Active; 'I' for Inactive)
REMARK    1  A    between atoms: C1_2  and  C2_4 
REMARK    2  A    between atoms: C5_7  and  N1_8 
REMARK    3  A    between atoms: N1_8  and  C6_10 
ROOT
HETATM    1  C6  UNL     1       4.738  -8.388  -3.930  1.00  0.00     0.683 A 
HETATM    2  N2  UNL     1       5.129  -8.088  -5.206  1.00  0.00    -0.201 N 
ATOM      3  H2  UNL     1       4.828  -7.208  -5.624  1.00  0.00     0.183 HD
HETATM    4  C7  UNL     1       5.911  -8.934  -5.934  1.00  0.00     0.117 A 
HETATM    5  C8  UNL     1       6.335 -10.115  -5.414  1.00  0.00     0.004 A 
HETATM    6  C9  UNL     1       5.922 -10.406  -4.097  1.00  0.00     0.069 A 
HETATM    7  N3  UNL     1       5.164  -9.571  -3.409  1.00  0.00    -0.190 N 
ATOM      8  H3  UNL     1       4.888  -9.821  -2.459  1.00  0.00     0.184 HD
HETATM    9  C10 UNL     1       6.261 -11.656  -3.398  1.00  0.00     0.004 A 
HETATM   10  C11 UNL     1       5.279 -12.017  -2.534  1.00  0.00     0.016 A 
HETATM   11  C12 UNL     1       5.375 -13.233  -1.913  1.00  0.00     0.025 A 
HETATM   12  C13 UNL     1       6.466 -14.055  -2.188  1.00  0.00     0.035 A 
HETATM   13 CL1  UNL     1       6.562 -15.594  -1.379  1.00  0.00    -0.084 Cl
HETATM   14  C14 UNL     1       7.442 -13.650  -3.072  1.00  0.00     0.038 A 
HETATM   15  C15 UNL     1       7.355 -12.420  -3.697  1.00  0.00     0.005 A 
HETATM   16  C16 UNL     1       8.465 -12.133  -4.554  1.00  0.00     0.056 C 
HETATM   17  C17 UNL     1       9.767 -12.628  -4.201  1.00  0.00     0.068 A 
HETATM   18  C18 UNL     1      10.735 -12.589  -5.236  1.00  0.00     0.132 A 
HETATM   19  F1  UNL     1      10.320 -12.230  -6.484  1.00  0.00    -0.205 F 
HETATM   20  C19 UNL     1      12.052 -12.899  -5.025  1.00  0.00     0.043 A 
HETATM   21  C20 UNL     1      12.511 -13.268  -3.779  1.00  0.00     0.006 A 
HETATM   22  C21 UNL     1      11.600 -13.311  -2.761  1.00  0.00     0.043 A 
HETATM   23  C22 UNL     1      10.246 -12.987  -2.996  1.00  0.00     0.132 A 
HETATM   24  F2  UNL     1       9.442 -12.906  -1.882  1.00  0.00    -0.205 F 
HETATM   25  N4  UNL     1       8.324 -11.484  -5.686  1.00  0.00    -0.384 N 
ATOM     26  H4  UNL     1       9.196 -11.355  -6.200  1.00  0.00     0.160 HD
HETATM   27  C23 UNL     1       7.162 -10.914  -6.345  1.00  0.00     0.162 C 
ENDROOT
BRANCH   1  28
HETATM   28  N1  UNL     1       3.916  -7.495  -3.213  1.00  0.00    -0.192 N 
ATOM     29  H1  UNL     1       2.922  -7.499  -3.438  1.00  0.00     0.184 HD
BRANCH  28  30
HETATM   30  C5  UNL     1       4.343  -6.598  -2.212  1.00  0.00     0.049 A 
HETATM   31  C4  UNL     1       3.550  -5.936  -1.317  1.00  0.00     0.031 A 
HETATM   32  C3  UNL     1       4.075  -5.043  -0.367  1.00  0.00     0.020 A 
HETATM   33  C2  UNL     1       5.426  -4.793  -0.291  1.00  0.00     0.041 A 
HETATM   34  C25 UNL     1       6.225  -5.461  -1.192  1.00  0.00     0.020 A 
HETATM   35  C24 UNL     1       5.724  -6.335  -2.124  1.00  0.00     0.031 A 
BRANCH  33  36
HETATM   36  C1  UNL     1       5.990  -3.875   0.683  1.00  0.00     0.209 C 
HETATM   37  O1  UNL     1       7.228  -3.695   0.700  1.00  0.00    -0.644 OA
HETATM   38  O2  UNL     1       5.202  -3.195   1.589  1.00  0.00    -0.644 OA
ENDBRANCH  33  36
ENDBRANCH  28  30
ENDBRANCH   1  28
TORSDOF 3
ENDMDL
