MODEL 2
REMARK VINA RESULT: -9.722300992      0.851      1.392
REMARK  8 active torsions:
REMARK  status: ('A' for Active; 'I' for Inactive)
REMARK    1  A    between atoms: N1_5  and  C4_6 
REMARK    2  A    between atoms: C5_8  and  C6_9 
REMARK    3  A    between atoms: C6_9  and  O3_10 
REMARK    4  A    between atoms: O3_10  and  P1_11 
REMARK    5  A    between atoms: P1_11  and  O6_14 
REMARK    6  A    between atoms: O6_14  and  P2_15 
REMARK    7  A    between atoms: C7_19  and  O10_20 
REMARK    8  A    between atoms: C8_22  and  O11_23 
ROOT
HETATM    1  C4  UNL     1      58.699 -10.961  46.206  1.00  0.00     0.263 C 
HETATM    2  O2  UNL     1      59.154 -12.128  46.821  1.00  0.00    -0.353 OA
HETATM    3  C5  UNL     1      58.011 -12.701  47.311  1.00  0.00     0.180 C 
HETATM    4  C7  UNL     1      56.832 -12.337  46.482  1.00  0.00     0.182 C 
HETATM    5  C8  UNL     1      57.596 -11.555  45.352  1.00  0.00     0.198 C 
ENDROOT
BRANCH   3   6
HETATM    6  C6  UNL     1      57.998 -14.139  47.651  1.00  0.00     0.216 C 
BRANCH   6   7
HETATM    7  O3  UNL     1      56.686 -14.641  47.344  1.00  0.00    -0.287 OA
BRANCH   7   8
HETATM    8  P1  UNL     1      56.165 -15.381  48.779  1.00  0.00     0.418 P 
HETATM    9  O4  UNL     1      57.107 -16.678  48.802  1.00  0.00    -0.624 OA
HETATM   10  O5  UNL     1      56.608 -14.568  50.161  1.00  0.00    -0.624 OA
BRANCH   8  11
HETATM   11  O6  UNL     1      54.626 -15.921  48.772  1.00  0.00    -0.173 OA
BRANCH  11  12
HETATM   12  P2  UNL     1      53.649 -14.710  48.045  1.00  0.00     0.431 P 
HETATM   13  O7  UNL     1      54.185 -13.381  48.436  1.00  0.00    -0.616 OA
HETATM   14  O8  UNL     1      52.060 -14.840  48.656  1.00  0.00    -0.616 OA
HETATM   15  O9  UNL     1      53.578 -14.916  46.389  1.00  0.00    -0.616 OA
ENDBRANCH  11  12
ENDBRANCH   8  11
ENDBRANCH   7   8
ENDBRANCH   6   7
ENDBRANCH   3   6
BRANCH   4  16
HETATM   16  O10 UNL     1      56.035 -11.400  47.140  1.00  0.00    -0.390 OA
ATOM     17  H10 UNL     1      55.182 -11.766  47.343  1.00  0.00     0.210 HD
ENDBRANCH   4  16
BRANCH   1  18
HETATM   18  N1  UNL     1      59.639 -10.098  45.600  1.00  0.00    -0.280 N 
HETATM   19  C3  UNL     1      60.705 -10.598  44.992  1.00  0.00     0.104 A 
HETATM   20  C2  UNL     1      61.504  -9.758  44.159  1.00  0.00     0.092 A 
HETATM   21  C1  UNL     1      61.115  -8.422  44.035  1.00  0.00     0.250 A 
HETATM   22  O1  UNL     1      61.825  -7.660  43.300  1.00  0.00    -0.268 OA
HETATM   23  N2  UNL     1      60.062  -7.980  44.673  1.00  0.00    -0.275 N 
HETATM   24  C9  UNL     1      59.302  -8.785  45.458  1.00  0.00     0.331 A 
ATOM     25  H2  UNL     1      59.803  -6.998  44.577  1.00  0.00     0.173 HD
HETATM   26  O12 UNL     1      58.298  -8.354  46.057  1.00  0.00    -0.246 OA
ENDBRANCH   1  18
BRANCH   5  27
HETATM   27  O11 UNL     1      56.682 -10.616  44.888  1.00  0.00    -0.388 OA
ATOM     28  H11 UNL     1      55.777 -10.848  45.059  1.00  0.00     0.210 HD
ENDBRANCH   5  27
TORSDOF 8
ENDMDL
