MODEL 5
REMARK VINA RESULT: -9.326403889      8.273     10.627
REMARK  8 active torsions:
REMARK  status: ('A' for Active; 'I' for Inactive)
REMARK    1  A    between atoms: N1_5  and  C4_6 
REMARK    2  A    between atoms: C5_8  and  C6_9 
REMARK    3  A    between atoms: C6_9  and  O3_10 
REMARK    4  A    between atoms: O3_10  and  P1_11 
REMARK    5  A    between atoms: P1_11  and  O6_14 
REMARK    6  A    between atoms: O6_14  and  P2_15 
REMARK    7  A    between atoms: C7_19  and  O10_20 
REMARK    8  A    between atoms: C8_22  and  O11_23 
ROOT
HETATM    1  C4  UNL     1      53.058 -10.227  38.459  1.00  0.00     0.263 C 
HETATM    2  O2  UNL     1      53.946  -9.836  39.463  1.00  0.00    -0.353 OA
HETATM    3  C5  UNL     1      55.177 -10.028  38.897  1.00  0.00     0.180 C 
HETATM    4  C7  UNL     1      55.119  -9.867  37.420  1.00  0.00     0.182 C 
HETATM    5  C8  UNL     1      53.619  -9.409  37.312  1.00  0.00     0.198 C 
ENDROOT
BRANCH   3   6
HETATM    6  C6  UNL     1      56.359  -9.342  39.460  1.00  0.00     0.216 C 
BRANCH   6   7
HETATM    7  O3  UNL     1      56.116  -9.148  40.863  1.00  0.00    -0.287 OA
BRANCH   7   8
HETATM    8  P1  UNL     1      56.804  -7.637  41.211  1.00  0.00     0.418 P 
HETATM    9  O4  UNL     1      57.491  -7.294  39.803  1.00  0.00    -0.624 OA
HETATM   10  O5  UNL     1      55.694  -6.412  41.398  1.00  0.00    -0.624 OA
BRANCH   8  11
HETATM   11  O6  UNL     1      57.999  -7.648  42.323  1.00  0.00    -0.173 OA
BRANCH  11  12
HETATM   12  P2  UNL     1      57.411  -8.463  43.715  1.00  0.00     0.431 P 
HETATM   13  O7  UNL     1      57.661  -9.918  43.545  1.00  0.00    -0.616 OA
HETATM   14  O8  UNL     1      55.724  -8.225  43.826  1.00  0.00    -0.616 OA
HETATM   15  O9  UNL     1      58.106  -7.848  45.103  1.00  0.00    -0.616 OA
ENDBRANCH  11  12
ENDBRANCH   8  11
ENDBRANCH   7   8
ENDBRANCH   6   7
ENDBRANCH   3   6
BRANCH   4  16
HETATM   16  O10 UNL     1      55.199 -11.107  36.785  1.00  0.00    -0.390 OA
ATOM     17  H10 UNL     1      54.363 -11.557  36.820  1.00  0.00     0.210 HD
ENDBRANCH   4  16
BRANCH   1  18
HETATM   18  N1  UNL     1      51.670 -10.175  38.717  1.00  0.00    -0.280 N 
HETATM   19  C3  UNL     1      51.151  -9.137  39.357  1.00  0.00     0.104 A 
HETATM   20  C2  UNL     1      49.736  -8.956  39.382  1.00  0.00     0.092 A 
HETATM   21  C1  UNL     1      48.956  -9.910  38.722  1.00  0.00     0.250 A 
HETATM   22  O1  UNL     1      47.690  -9.763  38.744  1.00  0.00    -0.268 OA
HETATM   23  N2  UNL     1      49.523 -10.923  38.120  1.00  0.00    -0.275 N 
HETATM   24  C9  UNL     1      50.870 -11.086  38.095  1.00  0.00     0.331 A 
ATOM     25  H2  UNL     1      48.934 -11.613  37.655  1.00  0.00     0.173 HD
HETATM   26  O12 UNL     1      51.400 -12.053  37.514  1.00  0.00    -0.246 OA
ENDBRANCH   1  18
BRANCH   5  27
HETATM   27  O11 UNL     1      53.203  -9.845  36.060  1.00  0.00    -0.388 OA
ATOM     28  H11 UNL     1      53.267  -9.180  35.384  1.00  0.00     0.210 HD
ENDBRANCH   5  27
TORSDOF 8
ENDMDL
