MODEL 17
REMARK VINA RESULT: -8.706913470      8.181     10.720
REMARK  8 active torsions:
REMARK  status: ('A' for Active; 'I' for Inactive)
REMARK    1  A    between atoms: N1_5  and  C4_6 
REMARK    2  A    between atoms: C5_8  and  C6_9 
REMARK    3  A    between atoms: C6_9  and  O3_10 
REMARK    4  A    between atoms: O3_10  and  P1_11 
REMARK    5  A    between atoms: P1_11  and  O6_14 
REMARK    6  A    between atoms: O6_14  and  P2_15 
REMARK    7  A    between atoms: C7_19  and  O10_20 
REMARK    8  A    between atoms: C8_22  and  O11_23 
ROOT
HETATM    1  C4  UNL     1      53.020 -10.017  38.683  1.00  0.00     0.263 C 
HETATM    2  O2  UNL     1      53.835  -9.602  39.737  1.00  0.00    -0.353 OA
HETATM    3  C5  UNL     1      55.102  -9.744  39.240  1.00  0.00     0.180 C 
HETATM    4  C7  UNL     1      55.121  -9.574  37.763  1.00  0.00     0.182 C 
HETATM    5  C8  UNL     1      53.613  -9.170  37.574  1.00  0.00     0.198 C 
ENDROOT
BRANCH   3   6
HETATM    6  C6  UNL     1      56.225  -9.020  39.872  1.00  0.00     0.216 C 
BRANCH   6   7
HETATM    7  O3  UNL     1      56.287  -9.437  41.246  1.00  0.00    -0.287 OA
BRANCH   7   8
HETATM    8  P1  UNL     1      56.366  -7.990  42.129  1.00  0.00     0.418 P 
HETATM    9  O4  UNL     1      55.155  -7.173  41.466  1.00  0.00    -0.624 OA
HETATM   10  O5  UNL     1      55.897  -8.138  43.718  1.00  0.00    -0.624 OA
BRANCH   8  11
HETATM   11  O6  UNL     1      57.712  -7.098  41.897  1.00  0.00    -0.173 OA
BRANCH  11  12
HETATM   12  P2  UNL     1      59.067  -8.094  42.245  1.00  0.00     0.431 P 
HETATM   13  O7  UNL     1      60.097  -7.262  42.918  1.00  0.00    -0.616 OA
HETATM   14  O8  UNL     1      59.724  -8.668  40.778  1.00  0.00    -0.616 OA
HETATM   15  O9  UNL     1      58.613  -9.420  43.154  1.00  0.00    -0.616 OA
ENDBRANCH  11  12
ENDBRANCH   8  11
ENDBRANCH   7   8
ENDBRANCH   6   7
ENDBRANCH   3   6
BRANCH   4  16
HETATM   16  O10 UNL     1      55.282 -10.805  37.126  1.00  0.00    -0.390 OA
ATOM     17  H10 UNL     1      55.730 -10.698  36.295  1.00  0.00     0.210 HD
ENDBRANCH   4  16
BRANCH   1  18
HETATM   18  N1  UNL     1      51.618 -10.018  38.863  1.00  0.00    -0.280 N 
HETATM   19  C3  UNL     1      51.030  -9.020  39.507  1.00  0.00     0.104 A 
HETATM   20  C2  UNL     1      49.611  -8.885  39.457  1.00  0.00     0.092 A 
HETATM   21  C1  UNL     1      48.901  -9.839  38.723  1.00  0.00     0.250 A 
HETATM   22  O1  UNL     1      47.631  -9.734  38.678  1.00  0.00    -0.268 OA
HETATM   23  N2  UNL     1      49.534 -10.812  38.121  1.00  0.00    -0.275 N 
HETATM   24  C9  UNL     1      50.886 -10.932  38.167  1.00  0.00     0.331 A 
ATOM     25  H2  UNL     1      48.995 -11.504  37.601  1.00  0.00     0.173 HD
HETATM   26  O12 UNL     1      51.479 -11.860  37.586  1.00  0.00    -0.246 OA
ENDBRANCH   1  18
BRANCH   5  27
HETATM   27  O11 UNL     1      53.284  -9.611  36.298  1.00  0.00    -0.388 OA
ATOM     28  H11 UNL     1      53.426 -10.541  36.167  1.00  0.00     0.210 HD
ENDBRANCH   5  27
TORSDOF 8
ENDMDL
