MODEL 1
REMARK VINA RESULT: -10.000829367      0.000      0.000
REMARK  8 active torsions:
REMARK  status: ('A' for Active; 'I' for Inactive)
REMARK    1  A    between atoms: N1_5  and  C4_6 
REMARK    2  A    between atoms: C5_8  and  C6_9 
REMARK    3  A    between atoms: C6_9  and  O3_10 
REMARK    4  A    between atoms: O3_10  and  P1_11 
REMARK    5  A    between atoms: P1_11  and  O6_14 
REMARK    6  A    between atoms: O6_14  and  P2_15 
REMARK    7  A    between atoms: C7_19  and  O10_20 
REMARK    8  A    between atoms: C8_22  and  O11_23 
ROOT
HETATM    1  C4  UNL     1      58.976 -10.696  46.145  1.00  0.00     0.263 C 
HETATM    2  O2  UNL     1      59.526 -11.788  46.818  1.00  0.00    -0.353 OA
HETATM    3  C5  UNL     1      58.445 -12.377  47.417  1.00  0.00     0.180 C 
HETATM    4  C7  UNL     1      57.204 -12.138  46.633  1.00  0.00     0.182 C 
HETATM    5  C8  UNL     1      57.861 -11.409  45.405  1.00  0.00     0.198 C 
ENDROOT
BRANCH   3   6
HETATM    6  C6  UNL     1      58.528 -13.783  47.864  1.00  0.00     0.216 C 
BRANCH   6   7
HETATM    7  O3  UNL     1      57.382 -14.039  48.692  1.00  0.00    -0.287 OA
BRANCH   7   8
HETATM    8  P1  UNL     1      56.755 -15.506  48.113  1.00  0.00     0.418 P 
HETATM    9  O4  UNL     1      57.813 -15.843  46.956  1.00  0.00    -0.624 OA
HETATM   10  O5  UNL     1      56.928 -16.781  49.167  1.00  0.00    -0.624 OA
BRANCH   8  11
HETATM   11  O6  UNL     1      55.292 -15.410  47.395  1.00  0.00    -0.173 OA
BRANCH  11  12
HETATM   12  P2  UNL     1      54.233 -14.594  48.472  1.00  0.00     0.431 P 
HETATM   13  O7  UNL     1      52.873 -15.170  48.316  1.00  0.00    -0.616 OA
HETATM   14  O8  UNL     1      54.163 -12.945  48.038  1.00  0.00    -0.616 OA
HETATM   15  O9  UNL     1      54.794 -14.684  50.043  1.00  0.00    -0.616 OA
ENDBRANCH  11  12
ENDBRANCH   8  11
ENDBRANCH   7   8
ENDBRANCH   6   7
ENDBRANCH   3   6
BRANCH   4  16
HETATM   16  O10 UNL     1      56.396 -11.193  47.265  1.00  0.00    -0.390 OA
ATOM     17  H10 UNL     1      55.612 -11.025  46.755  1.00  0.00     0.210 HD
ENDBRANCH   4  16
BRANCH   1  18
HETATM   18  N1  UNL     1      59.834  -9.838  45.421  1.00  0.00    -0.280 N 
HETATM   19  C3  UNL     1      60.864 -10.337  44.753  1.00  0.00     0.104 A 
HETATM   20  C2  UNL     1      61.563  -9.517  43.816  1.00  0.00     0.092 A 
HETATM   21  C1  UNL     1      61.119  -8.201  43.659  1.00  0.00     0.250 A 
HETATM   22  O1  UNL     1      61.740  -7.457  42.831  1.00  0.00    -0.268 OA
HETATM   23  N2  UNL     1      60.106  -7.759  44.359  1.00  0.00    -0.275 N 
HETATM   24  C9  UNL     1      59.441  -8.546  45.244  1.00  0.00     0.331 A 
ATOM     25  H2  UNL     1      59.807  -6.792  44.236  1.00  0.00     0.173 HD
HETATM   26  O12 UNL     1      58.475  -8.115  45.901  1.00  0.00    -0.246 OA
ENDBRANCH   1  18
BRANCH   5  27
HETATM   27  O11 UNL     1      56.874 -10.556  44.927  1.00  0.00    -0.388 OA
ATOM     28  H11 UNL     1      57.087 -10.157  44.091  1.00  0.00     0.210 HD
ENDBRANCH   5  27
TORSDOF 8
ENDMDL
