MODEL 13
REMARK VINA RESULT: -8.096493713      2.805      4.521
REMARK  7 active torsions:
REMARK  status: ('A' for Active; 'I' for Inactive)
REMARK    1  A    between atoms: C2_2  and  C3_3 
REMARK    2  A    between atoms: C2_2  and  C7_10 
REMARK    3  A    between atoms: C4_4  and  C5_5 
REMARK    4  A    between atoms: C5_5  and  C6_7 
REMARK    5  A    between atoms: C7_10  and  C8_12 
REMARK    6  A    between atoms: C8_12  and  C9_13 
REMARK    7  A    between atoms: C9_13  and  C10_14 
ROOT
HETATM    1  C9  UNL     1      14.372 -42.565   6.161  1.00  0.00     0.020 C 
ENDROOT
BRANCH   1   2
HETATM    2  C8  UNL     1      13.352 -41.951   5.261  1.00  0.00     0.080 C 
BRANCH   2   3
HETATM    3  C7  UNL     1      12.734 -40.773   5.971  1.00  0.00     0.134 C 
HETATM    4  O4  UNL     1      13.416 -39.807   6.096  1.00  0.00    -0.297 OA
BRANCH   3   5
HETATM    5  C2  UNL     1      11.376 -40.928   6.430  1.00  0.00     0.074 C 
HETATM    6  C1  UNL     1      10.583 -39.645   6.092  1.00  0.00     0.022 C 
BRANCH   5   7
HETATM    7  C3  UNL     1      11.102 -41.254   7.832  1.00  0.00    -0.011 C 
HETATM    8  C4  UNL     1      11.199 -40.484   8.885  1.00  0.00     0.059 C 
BRANCH   8   9
HETATM    9  C5  UNL     1      10.910 -40.870  10.256  1.00  0.00     0.247 C 
HETATM   10  O1  UNL     1      11.779 -41.620  10.835  1.00  0.00    -0.281 OA
BRANCH   9  11
HETATM   11  C6  UNL     1       9.774 -40.516  11.043  1.00  0.00     0.251 C 
HETATM   12  O2  UNL     1       9.748 -40.336  12.286  1.00  0.00    -0.642 OA
HETATM   13  O3  UNL     1       8.491 -40.322  10.462  1.00  0.00    -0.642 OA
ENDBRANCH   9  11
ENDBRANCH   8   9
ENDBRANCH   5   7
ENDBRANCH   3   5
ENDBRANCH   2   3
ENDBRANCH   1   2
BRANCH   1  14
HETATM   14  C10 UNL     1      14.387 -44.062   5.916  1.00  0.00     0.061 C 
HETATM   15  C11 UNL     1      13.842 -44.686   7.156  1.00  0.00     0.131 C 
HETATM   16  O5  UNL     1      14.507 -45.115   8.056  1.00  0.00    -0.298 OA
HETATM   17  C12 UNL     1      12.332 -44.740   7.197  1.00  0.00     0.080 C 
HETATM   18  C13 UNL     1      11.947 -45.670   6.087  1.00  0.00     0.025 C 
HETATM   19  C14 UNL     1      12.589 -45.428   4.790  1.00  0.00     0.021 C 
HETATM   20  C15 UNL     1      11.493 -45.092   3.768  1.00  0.00     0.024 C 
HETATM   21  C16 UNL     1      13.221 -46.709   4.302  1.00  0.00     0.135 C 
HETATM   22  C19 UNL     1      13.642 -44.423   4.689  1.00  0.00     0.013 C 
HETATM   23  O6  UNL     1      13.036 -47.835   4.718  1.00  0.00    -0.297 OA
HETATM   24  C17 UNL     1      14.121 -46.279   3.197  1.00  0.00     0.079 C 
HETATM   25  C18 UNL     1      14.654 -44.964   3.673  1.00  0.00     0.014 C 
ENDBRANCH   1  14
TORSDOF 7
ENDMDL
