MODEL 14
REMARK VINA RESULT: -8.095620861      3.935      8.139
REMARK  7 active torsions:
REMARK  status: ('A' for Active; 'I' for Inactive)
REMARK    1  A    between atoms: C2_2  and  C3_3 
REMARK    2  A    between atoms: C2_2  and  C7_10 
REMARK    3  A    between atoms: C4_4  and  C5_5 
REMARK    4  A    between atoms: C5_5  and  C6_7 
REMARK    5  A    between atoms: C7_10  and  C8_12 
REMARK    6  A    between atoms: C8_12  and  C9_13 
REMARK    7  A    between atoms: C9_13  and  C10_14 
ROOT
HETATM    1  C9  UNL     1      14.288 -40.704   5.809  1.00  0.00     0.020 C 
ENDROOT
BRANCH   1   2
HETATM    2  C8  UNL     1      13.819 -41.412   4.582  1.00  0.00     0.080 C 
BRANCH   2   3
HETATM    3  C7  UNL     1      15.017 -41.731   3.726  1.00  0.00     0.134 C 
HETATM    4  O4  UNL     1      15.820 -40.866   3.586  1.00  0.00    -0.297 OA
BRANCH   3   5
HETATM    5  C2  UNL     1      15.077 -43.055   3.157  1.00  0.00     0.074 C 
HETATM    6  C1  UNL     1      14.230 -43.084   1.864  1.00  0.00     0.022 C 
BRANCH   5   7
HETATM    7  C3  UNL     1      14.694 -44.221   3.956  1.00  0.00    -0.011 C 
HETATM    8  C4  UNL     1      14.337 -45.412   3.548  1.00  0.00     0.059 C 
BRANCH   8   9
HETATM    9  C5  UNL     1      13.967 -46.532   4.398  1.00  0.00     0.247 C 
HETATM   10  O1  UNL     1      14.758 -46.793   5.377  1.00  0.00    -0.281 OA
BRANCH   9  11
HETATM   11  C6  UNL     1      12.826 -47.381   4.277  1.00  0.00     0.251 C 
HETATM   12  O2  UNL     1      12.445 -48.247   5.103  1.00  0.00    -0.642 OA
HETATM   13  O3  UNL     1      11.965 -47.322   3.148  1.00  0.00    -0.642 OA
ENDBRANCH   9  11
ENDBRANCH   8   9
ENDBRANCH   5   7
ENDBRANCH   3   5
ENDBRANCH   2   3
ENDBRANCH   1   2
BRANCH   1  14
HETATM   14  C10 UNL     1      13.788 -41.465   7.022  1.00  0.00     0.061 C 
HETATM   15  C11 UNL     1      12.703 -40.629   7.612  1.00  0.00     0.131 C 
HETATM   16  O5  UNL     1      12.850 -39.854   8.515  1.00  0.00    -0.298 OA
HETATM   17  C12 UNL     1      11.353 -40.837   6.965  1.00  0.00     0.080 C 
HETATM   18  C13 UNL     1      10.982 -42.251   7.291  1.00  0.00     0.025 C 
HETATM   19  C14 UNL     1      12.018 -43.263   7.055  1.00  0.00     0.021 C 
HETATM   20  C15 UNL     1      11.495 -44.248   5.999  1.00  0.00     0.024 C 
HETATM   21  C16 UNL     1      12.212 -44.077   8.311  1.00  0.00     0.135 C 
HETATM   22  C19 UNL     1      13.358 -42.837   6.669  1.00  0.00     0.013 C 
HETATM   23  O6  UNL     1      11.487 -44.126   9.285  1.00  0.00    -0.297 OA
HETATM   24  C17 UNL     1      13.490 -44.806   8.085  1.00  0.00     0.079 C 
HETATM   25  C18 UNL     1      14.329 -43.815   7.340  1.00  0.00     0.014 C 
ENDBRANCH   1  14
TORSDOF 7
ENDMDL
