MODEL 1
REMARK VINA RESULT: -8.755227847      0.000      0.000
REMARK  7 active torsions:
REMARK  status: ('A' for Active; 'I' for Inactive)
REMARK    1  A    between atoms: C2_2  and  C3_3 
REMARK    2  A    between atoms: C2_2  and  C7_10 
REMARK    3  A    between atoms: C4_4  and  C5_5 
REMARK    4  A    between atoms: C5_5  and  C6_7 
REMARK    5  A    between atoms: C7_10  and  C8_12 
REMARK    6  A    between atoms: C8_12  and  C9_13 
REMARK    7  A    between atoms: C9_13  and  C10_14 
ROOT
HETATM    1  C9  UNL     1      11.372 -41.446   7.124  1.00  0.00     0.020 C 
ENDROOT
BRANCH   1   2
HETATM    2  C8  UNL     1      10.597 -40.304   7.693  1.00  0.00     0.080 C 
BRANCH   2   3
HETATM    3  C7  UNL     1      10.775 -40.304   9.190  1.00  0.00     0.134 C 
HETATM    4  O4  UNL     1      11.853 -40.016   9.599  1.00  0.00    -0.297 OA
BRANCH   3   5
HETATM    5  C2  UNL     1       9.622 -40.651   9.983  1.00  0.00     0.074 C 
HETATM    6  C1  UNL     1       8.424 -39.784   9.530  1.00  0.00     0.022 C 
BRANCH   5   7
HETATM    7  C3  UNL     1       9.682 -40.584  11.444  1.00  0.00    -0.011 C 
HETATM    8  C4  UNL     1       8.784 -40.129  12.281  1.00  0.00     0.059 C 
BRANCH   8   9
HETATM    9  C5  UNL     1       8.906 -40.091  13.729  1.00  0.00     0.247 C 
HETATM   10  O1  UNL     1       9.535 -39.085  14.224  1.00  0.00    -0.281 OA
BRANCH   9  11
HETATM   11  C6  UNL     1       8.410 -41.039  14.673  1.00  0.00     0.251 C 
HETATM   12  O2  UNL     1       8.039 -42.214  14.432  1.00  0.00    -0.642 OA
HETATM   13  O3  UNL     1       8.283 -40.725  16.053  1.00  0.00    -0.642 OA
ENDBRANCH   9  11
ENDBRANCH   8   9
ENDBRANCH   5   7
ENDBRANCH   3   5
ENDBRANCH   2   3
ENDBRANCH   1   2
BRANCH   1  14
HETATM   14  C10 UNL     1      12.692 -40.914   6.598  1.00  0.00     0.061 C 
HETATM   15  C11 UNL     1      13.749 -41.786   7.186  1.00  0.00     0.131 C 
HETATM   16  O5  UNL     1      14.371 -41.533   8.179  1.00  0.00    -0.298 OA
HETATM   17  C12 UNL     1      13.989 -43.060   6.409  1.00  0.00     0.080 C 
HETATM   18  C13 UNL     1      14.539 -42.612   5.090  1.00  0.00     0.025 C 
HETATM   19  C14 UNL     1      13.809 -41.529   4.420  1.00  0.00     0.021 C 
HETATM   20  C15 UNL     1      13.284 -42.062   3.078  1.00  0.00     0.024 C 
HETATM   21  C16 UNL     1      14.774 -40.423   4.070  1.00  0.00     0.135 C 
HETATM   22  C19 UNL     1      12.712 -40.868   5.118  1.00  0.00     0.013 C 
HETATM   23  O6  UNL     1      15.989 -40.470   4.062  1.00  0.00    -0.297 OA
HETATM   24  C17 UNL     1      13.903 -39.264   3.736  1.00  0.00     0.079 C 
HETATM   25  C18 UNL     1      12.765 -39.394   4.701  1.00  0.00     0.014 C 
ENDBRANCH   1  14
TORSDOF 7
ENDMDL
