MODEL 12
REMARK VINA RESULT: -8.169436300      3.861      8.135
REMARK  7 active torsions:
REMARK  status: ('A' for Active; 'I' for Inactive)
REMARK    1  A    between atoms: C2_2  and  C3_3 
REMARK    2  A    between atoms: C2_2  and  C7_10 
REMARK    3  A    between atoms: C4_4  and  C5_5 
REMARK    4  A    between atoms: C5_5  and  C6_7 
REMARK    5  A    between atoms: C7_10  and  C8_12 
REMARK    6  A    between atoms: C8_12  and  C9_13 
REMARK    7  A    between atoms: C9_13  and  C10_14 
ROOT
HETATM    1  C9  UNL     1      13.991 -40.338   5.927  1.00  0.00     0.020 C 
ENDROOT
BRANCH   1   2
HETATM    2  C8  UNL     1      13.670 -41.012   4.635  1.00  0.00     0.080 C 
BRANCH   2   3
HETATM    3  C7  UNL     1      14.908 -41.015   3.775  1.00  0.00     0.134 C 
HETATM    4  O4  UNL     1      15.498 -39.987   3.686  1.00  0.00    -0.297 OA
BRANCH   3   5
HETATM    5  C2  UNL     1      15.259 -42.262   3.142  1.00  0.00     0.074 C 
HETATM    6  C1  UNL     1      15.465 -42.015   1.629  1.00  0.00     0.022 C 
BRANCH   5   7
HETATM    7  C3  UNL     1      14.389 -43.432   3.279  1.00  0.00    -0.011 C 
HETATM    8  C4  UNL     1      14.721 -44.677   3.503  1.00  0.00     0.059 C 
BRANCH   8   9
HETATM    9  C5  UNL     1      13.802 -45.797   3.630  1.00  0.00     0.247 C 
HETATM   10  O1  UNL     1      12.826 -45.834   2.794  1.00  0.00    -0.281 OA
BRANCH   9  11
HETATM   11  C6  UNL     1      13.853 -46.867   4.573  1.00  0.00     0.251 C 
HETATM   12  O2  UNL     1      12.873 -47.452   5.097  1.00  0.00    -0.642 OA
HETATM   13  O3  UNL     1      15.087 -47.401   5.033  1.00  0.00    -0.642 OA
ENDBRANCH   9  11
ENDBRANCH   8   9
ENDBRANCH   5   7
ENDBRANCH   3   5
ENDBRANCH   2   3
ENDBRANCH   1   2
BRANCH   1  14
HETATM   14  C10 UNL     1      13.671 -41.295   7.059  1.00  0.00     0.061 C 
HETATM   15  C11 UNL     1      12.594 -40.640   7.857  1.00  0.00     0.131 C 
HETATM   16  O5  UNL     1      12.776 -39.985   8.844  1.00  0.00    -0.298 OA
HETATM   17  C12 UNL     1      11.204 -40.872   7.310  1.00  0.00     0.080 C 
HETATM   18  C13 UNL     1      10.968 -42.343   7.464  1.00  0.00     0.025 C 
HETATM   19  C14 UNL     1      12.045 -43.223   6.994  1.00  0.00     0.021 C 
HETATM   20  C15 UNL     1      11.489 -44.098   5.860  1.00  0.00     0.024 C 
HETATM   21  C16 UNL     1      12.420 -44.180   8.099  1.00  0.00     0.135 C 
HETATM   22  C19 UNL     1      13.305 -42.638   6.554  1.00  0.00     0.013 C 
HETATM   23  O6  UNL     1      11.802 -44.421   9.117  1.00  0.00    -0.297 OA
HETATM   24  C17 UNL     1      13.717 -44.762   7.658  1.00  0.00     0.079 C 
HETATM   25  C18 UNL     1      14.405 -43.613   6.990  1.00  0.00     0.014 C 
ENDBRANCH   1  14
TORSDOF 7
ENDMDL
