MODEL 1
REMARK VINA RESULT: -6.536994330      0.000      0.000
REMARK  7 active torsions:
REMARK  status: ('A' for Active; 'I' for Inactive)
REMARK    1  A    between atoms: O1_1  and  C1_3 
REMARK    2  A    between atoms: C1_3  and  C2_4 
REMARK    3  A    between atoms: C3_7  and  C4_8 
REMARK    4  A    between atoms: C4_8  and  O2_9 
REMARK    5  A    between atoms: C5_11  and  O3_12 
REMARK    6  A    between atoms: C6_14  and  O4_15 
REMARK    7  A    between atoms: C7_17  and  O5_18 
ROOT
HETATM    1  C2  UNL     1     -27.940   2.560  27.332  1.00  0.00     0.132 C 
HETATM    2  N1  UNL     1     -26.868   2.510  26.393  1.00  0.00    -0.404 N 
ATOM      3  H1  UNL     1     -27.018   2.311  25.404  1.00  0.00     0.154 HD
HETATM    4  C3  UNL     1     -25.561   2.762  26.935  1.00  0.00     0.132 C 
HETATM    5  C5  UNL     1     -25.301   1.958  28.156  1.00  0.00     0.173 C 
HETATM    6  C6  UNL     1     -26.407   1.938  29.159  1.00  0.00     0.179 C 
HETATM    7  C7  UNL     1     -27.734   1.626  28.500  1.00  0.00     0.173 C 
ENDROOT
BRANCH   1   8
HETATM    8  C1  UNL     1     -29.203   2.123  26.614  1.00  0.00     0.191 C 
BRANCH   8   9
HETATM    9  O1  UNL     1     -29.778   3.212  25.976  1.00  0.00    -0.399 OA
ATOM     10  H1  UNL     1     -30.712   3.229  26.151  1.00  0.00     0.209 HD
ENDBRANCH   8   9
ENDBRANCH   1   8
BRANCH   7  11
HETATM   11  O5  UNL     1     -27.771   0.289  28.139  1.00  0.00    -0.391 OA
ATOM     12  H5  UNL     1     -27.295  -0.272  28.739  1.00  0.00     0.210 HD
ENDBRANCH   7  11
BRANCH   4  13
HETATM   13  C4  UNL     1     -25.284   4.226  27.063  1.00  0.00     0.191 C 
BRANCH  13  14
HETATM   14  O2  UNL     1     -25.051   4.680  28.329  1.00  0.00    -0.399 OA
ATOM     15  H2  UNL     1     -24.260   5.194  28.446  1.00  0.00     0.209 HD
ENDBRANCH  13  14
ENDBRANCH   4  13
BRANCH   6  16
HETATM   16  O4  UNL     1     -26.481   3.063  29.947  1.00  0.00    -0.390 OA
ATOM     17  H4  UNL     1     -27.239   3.093  30.518  1.00  0.00     0.210 HD
ENDBRANCH   6  16
BRANCH   5  18
HETATM   18  O3  UNL     1     -24.103   2.305  28.760  1.00  0.00    -0.391 OA
ATOM     19  H3  UNL     1     -23.427   2.498  28.121  1.00  0.00     0.210 HD
ENDBRANCH   5  18
TORSDOF 7
ENDMDL
