MODEL 9
REMARK VINA RESULT: -5.256211500      3.586      5.089
REMARK  7 active torsions:
REMARK  status: ('A' for Active; 'I' for Inactive)
REMARK    1  A    between atoms: O1_1  and  C1_3 
REMARK    2  A    between atoms: C1_3  and  C2_4 
REMARK    3  A    between atoms: C3_7  and  C4_8 
REMARK    4  A    between atoms: C4_8  and  O2_9 
REMARK    5  A    between atoms: C5_11  and  O3_12 
REMARK    6  A    between atoms: C6_14  and  O4_15 
REMARK    7  A    between atoms: C7_17  and  O5_18 
ROOT
HETATM    1  C2  UNL     1     -27.745   0.272  26.719  1.00  0.00     0.132 C 
HETATM    2  N1  UNL     1     -28.269  -0.934  27.269  1.00  0.00    -0.404 N 
ATOM      3  H1  UNL     1     -28.947  -0.937  28.031  1.00  0.00     0.154 HD
HETATM    4  C3  UNL     1     -27.778  -2.148  26.674  1.00  0.00     0.132 C 
HETATM    5  C5  UNL     1     -26.298  -2.153  26.565  1.00  0.00     0.173 C 
HETATM    6  C6  UNL     1     -25.688  -0.899  26.034  1.00  0.00     0.179 C 
HETATM    7  C7  UNL     1     -26.236   0.318  26.748  1.00  0.00     0.173 C 
ENDROOT
BRANCH   1   8
HETATM    8  C1  UNL     1     -28.255   1.424  27.564  1.00  0.00     0.191 C 
BRANCH   8   9
HETATM    9  O1  UNL     1     -28.173   1.091  28.908  1.00  0.00    -0.399 OA
ATOM     10  H1  UNL     1     -27.676   1.753  29.373  1.00  0.00     0.209 HD
ENDBRANCH   8   9
ENDBRANCH   1   8
BRANCH   7  11
HETATM   11  O5  UNL     1     -25.721   0.376  28.032  1.00  0.00    -0.391 OA
ATOM     12  H5  UNL     1     -25.897   1.202  28.466  1.00  0.00     0.210 HD
ENDBRANCH   7  11
BRANCH   4  13
HETATM   13  C4  UNL     1     -28.513  -2.488  25.417  1.00  0.00     0.191 C 
BRANCH  13  14
HETATM   14  O2  UNL     1     -27.758  -2.541  24.281  1.00  0.00    -0.399 OA
ATOM     15  H2  UNL     1     -27.809  -3.351  23.787  1.00  0.00     0.209 HD
ENDBRANCH  13  14
ENDBRANCH   4  13
BRANCH   6  16
HETATM   16  O4  UNL     1     -25.762  -0.764  24.667  1.00  0.00    -0.390 OA
ATOM     17  H4  UNL     1     -26.420  -0.147  24.368  1.00  0.00     0.210 HD
ENDBRANCH   6  16
BRANCH   5  18
HETATM   18  O3  UNL     1     -25.835  -3.255  25.863  1.00  0.00    -0.391 OA
ATOM     19  H3  UNL     1     -24.947  -3.127  25.548  1.00  0.00     0.210 HD
ENDBRANCH   5  18
TORSDOF 7
ENDMDL
