MODEL 7
REMARK VINA RESULT: -5.470871180      3.286      4.184
REMARK  7 active torsions:
REMARK  status: ('A' for Active; 'I' for Inactive)
REMARK    1  A    between atoms: O1_1  and  C1_3 
REMARK    2  A    between atoms: C1_3  and  C2_4 
REMARK    3  A    between atoms: C3_7  and  C4_8 
REMARK    4  A    between atoms: C4_8  and  O2_9 
REMARK    5  A    between atoms: C5_11  and  O3_12 
REMARK    6  A    between atoms: C6_14  and  O4_15 
REMARK    7  A    between atoms: C7_17  and  O5_18 
ROOT
HETATM    1  C2  UNL     1     -28.333  -0.813  24.981  1.00  0.00     0.132 C 
HETATM    2  N1  UNL     1     -28.332   0.549  25.404  1.00  0.00    -0.404 N 
ATOM      3  H1  UNL     1     -28.819   1.280  24.886  1.00  0.00     0.154 HD
HETATM    4  C3  UNL     1     -27.598   0.821  26.610  1.00  0.00     0.132 C 
HETATM    5  C5  UNL     1     -26.241   0.220  26.581  1.00  0.00     0.173 C 
HETATM    6  C6  UNL     1     -26.173  -1.193  26.107  1.00  0.00     0.179 C 
HETATM    7  C7  UNL     1     -26.939  -1.371  24.813  1.00  0.00     0.173 C 
ENDROOT
BRANCH   1   8
HETATM    8  C1  UNL     1     -29.018  -0.876  23.629  1.00  0.00     0.191 C 
BRANCH   8   9
HETATM    9  O1  UNL     1     -28.842   0.325  22.959  1.00  0.00    -0.399 OA
ATOM     10  H1  UNL     1     -28.347   0.177  22.162  1.00  0.00     0.209 HD
ENDBRANCH   8   9
ENDBRANCH   1   8
BRANCH   7  11
HETATM   11  O5  UNL     1     -26.241  -0.781  23.773  1.00  0.00    -0.391 OA
ATOM     12  H5  UNL     1     -25.378  -0.479  24.029  1.00  0.00     0.210 HD
ENDBRANCH   7  11
BRANCH   4  13
HETATM   13  C4  UNL     1     -28.405   0.520  27.831  1.00  0.00     0.191 C 
BRANCH  13  14
HETATM   14  O2  UNL     1     -28.009   1.148  28.977  1.00  0.00    -0.399 OA
ATOM     15  H2  UNL     1     -27.982   0.607  29.758  1.00  0.00     0.209 HD
ENDBRANCH  13  14
ENDBRANCH   4  13
BRANCH   6  16
HETATM   16  O4  UNL     1     -26.539  -2.128  27.048  1.00  0.00    -0.390 OA
ATOM     17  H4  UNL     1     -27.471  -2.156  27.232  1.00  0.00     0.210 HD
ENDBRANCH   6  16
BRANCH   5  18
HETATM   18  O3  UNL     1     -25.588   0.357  27.796  1.00  0.00    -0.391 OA
ATOM     19  H3  UNL     1     -24.925   1.037  27.767  1.00  0.00     0.210 HD
ENDBRANCH   5  18
TORSDOF 7
ENDMDL
