MODEL 2
REMARK VINA RESULT: -6.498539780      1.157      3.683
REMARK  7 active torsions:
REMARK  status: ('A' for Active; 'I' for Inactive)
REMARK    1  A    between atoms: O1_1  and  C1_3 
REMARK    2  A    between atoms: C1_3  and  C2_4 
REMARK    3  A    between atoms: C3_7  and  C4_8 
REMARK    4  A    between atoms: C4_8  and  O2_9 
REMARK    5  A    between atoms: C5_11  and  O3_12 
REMARK    6  A    between atoms: C6_14  and  O4_15 
REMARK    7  A    between atoms: C7_17  and  O5_18 
ROOT
HETATM    1  C2  UNL     1     -25.835   3.409  26.822  1.00  0.00     0.132 C 
HETATM    2  N1  UNL     1     -27.220   3.717  26.970  1.00  0.00    -0.404 N 
ATOM      3  H1  UNL     1     -27.606   4.625  26.712  1.00  0.00     0.154 HD
HETATM    4  C3  UNL     1     -28.034   2.661  27.506  1.00  0.00     0.132 C 
HETATM    5  C5  UNL     1     -27.437   2.065  28.729  1.00  0.00     0.173 C 
HETATM    6  C6  UNL     1     -25.979   1.759  28.648  1.00  0.00     0.179 C 
HETATM    7  C7  UNL     1     -25.202   2.943  28.112  1.00  0.00     0.173 C 
ENDROOT
BRANCH   1   8
HETATM    8  C1  UNL     1     -25.123   4.678  26.394  1.00  0.00     0.191 C 
BRANCH   8   9
HETATM    9  O1  UNL     1     -25.597   5.752  27.131  1.00  0.00    -0.399 OA
ATOM     10  H1  UNL     1     -25.241   6.561  26.784  1.00  0.00     0.209 HD
ENDBRANCH   8   9
ENDBRANCH   1   8
BRANCH   7  11
HETATM   11  O5  UNL     1     -25.142   3.935  29.076  1.00  0.00    -0.391 OA
ATOM     12  H5  UNL     1     -24.767   3.636  29.895  1.00  0.00     0.210 HD
ENDBRANCH   7  11
BRANCH   4  13
HETATM   13  C4  UNL     1     -28.440   1.682  26.452  1.00  0.00     0.191 C 
BRANCH  13  14
HETATM   14  O2  UNL     1     -29.477   2.065  25.651  1.00  0.00    -0.399 OA
ATOM     15  H2  UNL     1     -29.584   1.571  24.846  1.00  0.00     0.209 HD
ENDBRANCH  13  14
ENDBRANCH   4  13
BRANCH   6  16
HETATM   16  O4  UNL     1     -25.677   0.601  27.968  1.00  0.00    -0.390 OA
ATOM     17  H4  UNL     1     -24.834   0.223  28.191  1.00  0.00     0.210 HD
ENDBRANCH   6  16
BRANCH   5  18
HETATM   18  O3  UNL     1     -28.144   0.955  29.162  1.00  0.00    -0.391 OA
ATOM     19  H3  UNL     1     -27.672   0.147  28.999  1.00  0.00     0.210 HD
ENDBRANCH   5  18
TORSDOF 7
ENDMDL
