MODEL 14
REMARK VINA RESULT: -4.916269144      2.787      4.429
REMARK  7 active torsions:
REMARK  status: ('A' for Active; 'I' for Inactive)
REMARK    1  A    between atoms: O1_1  and  C1_3 
REMARK    2  A    between atoms: C1_3  and  C2_4 
REMARK    3  A    between atoms: C3_7  and  C4_8 
REMARK    4  A    between atoms: C4_8  and  O2_9 
REMARK    5  A    between atoms: C5_11  and  O3_12 
REMARK    6  A    between atoms: C6_14  and  O4_15 
REMARK    7  A    between atoms: C7_17  and  O5_18 
ROOT
HETATM    1  C2  UNL     1     -28.181   1.234  27.061  1.00  0.00     0.132 C 
HETATM    2  N1  UNL     1     -26.955   1.256  26.333  1.00  0.00    -0.404 N 
ATOM      3  H1  UNL     1     -26.368   2.088  26.279  1.00  0.00     0.154 HD
HETATM    4  C3  UNL     1     -26.602   0.024  25.682  1.00  0.00     0.132 C 
HETATM    5  C5  UNL     1     -27.733  -0.535  24.899  1.00  0.00     0.173 C 
HETATM    6  C6  UNL     1     -29.053  -0.545  25.595  1.00  0.00     0.179 C 
HETATM    7  C7  UNL     1     -29.354   0.804  26.212  1.00  0.00     0.173 C 
ENDROOT
BRANCH   1   8
HETATM    8  C1  UNL     1     -28.457   2.646  27.542  1.00  0.00     0.191 C 
BRANCH   8   9
HETATM    9  O1  UNL     1     -27.875   3.558  26.675  1.00  0.00    -0.399 OA
ATOM     10  H1  UNL     1     -28.462   4.294  26.543  1.00  0.00     0.209 HD
ENDBRANCH   8   9
ENDBRANCH   1   8
BRANCH   7  11
HETATM   11  O5  UNL     1     -29.663   1.714  25.215  1.00  0.00    -0.391 OA
ATOM     12  H5  UNL     1     -30.063   2.509  25.548  1.00  0.00     0.210 HD
ENDBRANCH   7  11
BRANCH   4  13
HETATM   13  C4  UNL     1     -25.941  -0.933  26.622  1.00  0.00     0.191 C 
BRANCH  13  14
HETATM   14  O2  UNL     1     -25.235  -1.947  26.042  1.00  0.00    -0.399 OA
ATOM     15  H2  UNL     1     -24.732  -1.713  25.270  1.00  0.00     0.209 HD
ENDBRANCH  13  14
ENDBRANCH   4  13
BRANCH   6  16
HETATM   16  O4  UNL     1     -29.210  -1.567  26.502  1.00  0.00    -0.390 OA
ATOM     17  H4  UNL     1     -30.112  -1.828  26.647  1.00  0.00     0.210 HD
ENDBRANCH   6  16
BRANCH   5  18
HETATM   18  O3  UNL     1     -27.441  -1.790  24.391  1.00  0.00    -0.391 OA
ATOM     19  H3  UNL     1     -28.218  -2.333  24.317  1.00  0.00     0.210 HD
ENDBRANCH   5  18
TORSDOF 7
ENDMDL
