MODEL 6
REMARK VINA RESULT: -4.892357961      5.837      7.440
REMARK  5 active torsions:
REMARK  status: ('A' for Active; 'I' for Inactive)
REMARK    1  A    between atoms: C3_6  and  O2_7 
REMARK    2  A    between atoms: C4_9  and  O3_10 
REMARK    3  A    between atoms: C5_12  and  O4_13 
REMARK    4  A    between atoms: C6_15  and  C7_16 
REMARK    5  A    between atoms: C7_16  and  O5_17 
ROOT
HETATM    1  O1  UNL     1      -5.270 -16.854  54.104  1.00  0.00    -0.262 OA
HETATM    2  C1  UNL     1      -5.935 -17.096  53.061  1.00  0.00     0.311 C 
HETATM    3  N1  UNL     1      -7.328 -17.342  52.917  1.00  0.00    -0.329 N 
ATOM      4  H1  UNL     1      -7.965 -17.660  53.648  1.00  0.00     0.165 HD
HETATM    5  C2  UNL     1      -7.668 -17.062  51.564  1.00  0.00     0.222 C 
HETATM    6  C3  UNL     1      -8.785 -17.913  51.014  1.00  0.00     0.192 C 
HETATM    7  C4  UNL     1      -9.080 -17.333  49.643  1.00  0.00     0.181 C 
HETATM    8  C5  UNL     1      -7.858 -17.462  48.800  1.00  0.00     0.174 C 
HETATM    9  C6  UNL     1      -6.653 -18.003  49.517  1.00  0.00     0.144 C 
HETATM   10  N2  UNL     1      -6.461 -17.466  50.825  1.00  0.00    -0.311 N 
HETATM   11  C8  UNL     1      -5.393 -17.180  51.697  1.00  0.00     0.313 C 
HETATM   12  O6  UNL     1      -4.201 -17.033  51.318  1.00  0.00    -0.262 OA
ENDROOT
BRANCH   9  13
HETATM   13  C7  UNL     1      -5.452 -17.758  48.610  1.00  0.00     0.192 C 
BRANCH  13  14
HETATM   14  O5  UNL     1      -5.665 -16.643  47.803  1.00  0.00    -0.399 OA
ATOM     15  H5  UNL     1      -6.508 -16.699  47.369  1.00  0.00     0.209 HD
ENDBRANCH  13  14
ENDBRANCH   9  13
BRANCH   8  16
HETATM   16  O4  UNL     1      -8.180 -18.334  47.734  1.00  0.00    -0.391 OA
ATOM     17  H4  UNL     1      -8.971 -18.796  47.983  1.00  0.00     0.210 HD
ENDBRANCH   8  16
BRANCH   7  18
HETATM   18  O3  UNL     1      -9.367 -15.966  49.863  1.00  0.00    -0.390 OA
ATOM     19  H3  UNL     1      -9.286 -15.548  49.013  1.00  0.00     0.210 HD
ENDBRANCH   7  18
BRANCH   6  20
HETATM   20  O2  UNL     1      -9.927 -17.873  51.823  1.00  0.00    -0.389 OA
ATOM     21  H2  UNL     1     -10.246 -18.743  52.036  1.00  0.00     0.210 HD
ENDBRANCH   6  20
TORSDOF 5
ENDMDL
