MODEL 1
REMARK VINA RESULT: -6.482417223      0.000      0.000
REMARK  5 active torsions:
REMARK  status: ('A' for Active; 'I' for Inactive)
REMARK    1  A    between atoms: C3_6  and  O2_7 
REMARK    2  A    between atoms: C4_9  and  O3_10 
REMARK    3  A    between atoms: C5_12  and  O4_13 
REMARK    4  A    between atoms: C6_15  and  C7_16 
REMARK    5  A    between atoms: C7_16  and  O5_17 
ROOT
HETATM    1  O1  UNL     1      -9.241 -19.281  49.517  1.00  0.00    -0.262 OA
HETATM    2  C1  UNL     1     -10.321 -19.597  48.948  1.00  0.00     0.311 C 
HETATM    3  N1  UNL     1     -11.244 -18.774  48.247  1.00  0.00    -0.329 N 
ATOM      4  H1  UNL     1     -11.346 -17.763  48.340  1.00  0.00     0.165 HD
HETATM    5  C2  UNL     1     -11.998 -19.623  47.390  1.00  0.00     0.222 C 
HETATM    6  C3  UNL     1     -13.418 -19.173  47.159  1.00  0.00     0.192 C 
HETATM    7  C4  UNL     1     -13.963 -20.117  46.104  1.00  0.00     0.181 C 
HETATM    8  C5  UNL     1     -13.934 -21.504  46.649  1.00  0.00     0.174 C 
HETATM    9  C6  UNL     1     -13.294 -21.636  48.004  1.00  0.00     0.144 C 
HETATM   10  N2  UNL     1     -12.099 -20.873  48.161  1.00  0.00    -0.311 N 
HETATM   11  C8  UNL     1     -10.891 -20.950  48.882  1.00  0.00     0.313 C 
HETATM   12  O6  UNL     1     -10.430 -22.019  49.361  1.00  0.00    -0.262 OA
ENDROOT
BRANCH   9  13
HETATM   13  C7  UNL     1     -13.066 -23.125  48.242  1.00  0.00     0.192 C 
BRANCH  13  14
HETATM   14  O5  UNL     1     -12.957 -23.805  47.031  1.00  0.00    -0.399 OA
ATOM     15  H5  UNL     1     -13.816 -23.981  46.666  1.00  0.00     0.209 HD
ENDBRANCH  13  14
ENDBRANCH   9  13
BRANCH   8  16
HETATM   16  O4  UNL     1     -15.276 -21.942  46.738  1.00  0.00    -0.391 OA
ATOM     17  H4  UNL     1     -15.415 -22.232  47.631  1.00  0.00     0.210 HD
ENDBRANCH   8  16
BRANCH   7  18
HETATM   18  O3  UNL     1     -13.074 -20.016  45.009  1.00  0.00    -0.390 OA
ATOM     19  H3  UNL     1     -13.070 -20.876  44.603  1.00  0.00     0.210 HD
ENDBRANCH   7  18
BRANCH   6  20
HETATM   20  O2  UNL     1     -13.486 -17.846  46.716  1.00  0.00    -0.389 OA
ATOM     21  H2  UNL     1     -14.313 -17.434  46.941  1.00  0.00     0.210 HD
ENDBRANCH   6  20
TORSDOF 5
ENDMDL
