MODEL 4
REMARK VINA RESULT: -5.205828256      1.990      4.070
REMARK  5 active torsions:
REMARK  status: ('A' for Active; 'I' for Inactive)
REMARK    1  A    between atoms: C3_6  and  O2_7 
REMARK    2  A    between atoms: C4_9  and  O3_10 
REMARK    3  A    between atoms: C5_12  and  O4_13 
REMARK    4  A    between atoms: C6_15  and  C7_16 
REMARK    5  A    between atoms: C7_16  and  O5_17 
ROOT
HETATM    1  O1  UNL     1      -9.951 -21.995  52.464  1.00  0.00    -0.262 OA
HETATM    2  C1  UNL     1     -10.270 -21.546  51.330  1.00  0.00     0.311 C 
HETATM    3  N1  UNL     1     -11.278 -21.997  50.434  1.00  0.00    -0.329 N 
ATOM      4  H1  UNL     1     -11.701 -22.925  50.418  1.00  0.00     0.165 HD
HETATM    5  C2  UNL     1     -11.585 -20.913  49.565  1.00  0.00     0.222 C 
HETATM    6  C3  UNL     1     -11.991 -21.326  48.174  1.00  0.00     0.192 C 
HETATM    7  C4  UNL     1     -12.425 -20.041  47.494  1.00  0.00     0.181 C 
HETATM    8  C5  UNL     1     -11.259 -19.114  47.446  1.00  0.00     0.174 C 
HETATM    9  C6  UNL     1     -10.029 -19.611  48.154  1.00  0.00     0.144 C 
HETATM   10  N2  UNL     1     -10.290 -20.230  49.413  1.00  0.00    -0.311 N 
HETATM   11  C8  UNL     1      -9.644 -20.403  50.652  1.00  0.00     0.313 C 
HETATM   12  O6  UNL     1      -8.700 -19.674  51.056  1.00  0.00    -0.262 OA
ENDROOT
BRANCH   9  13
HETATM   13  C7  UNL     1      -9.081 -18.423  48.278  1.00  0.00     0.192 C 
BRANCH  13  14
HETATM   14  O5  UNL     1      -9.656 -17.413  49.046  1.00  0.00    -0.399 OA
ATOM     15  H5  UNL     1      -9.057 -16.682  49.140  1.00  0.00     0.209 HD
ENDBRANCH  13  14
ENDBRANCH   9  13
BRANCH   8  16
HETATM   16  O4  UNL     1     -10.946 -18.912  46.082  1.00  0.00    -0.391 OA
ATOM     17  H4  UNL     1     -11.766 -18.766  45.627  1.00  0.00     0.210 HD
ENDBRANCH   8  16
BRANCH   7  18
HETATM   18  O3  UNL     1     -13.435 -19.497  48.320  1.00  0.00    -0.390 OA
ATOM     19  H3  UNL     1     -14.242 -19.918  48.047  1.00  0.00     0.210 HD
ENDBRANCH   7  18
BRANCH   6  20
HETATM   20  O2  UNL     1     -13.038 -22.257  48.184  1.00  0.00    -0.389 OA
ATOM     21  H2  UNL     1     -13.139 -22.674  49.032  1.00  0.00     0.210 HD
ENDBRANCH   6  20
TORSDOF 5
ENDMDL
