MODEL 3
REMARK VINA RESULT: -5.238718928      1.834      4.688
REMARK  5 active torsions:
REMARK  status: ('A' for Active; 'I' for Inactive)
REMARK    1  A    between atoms: C3_6  and  O2_7 
REMARK    2  A    between atoms: C4_9  and  O3_10 
REMARK    3  A    between atoms: C5_12  and  O4_13 
REMARK    4  A    between atoms: C6_15  and  C7_16 
REMARK    5  A    between atoms: C7_16  and  O5_17 
ROOT
HETATM    1  O1  UNL     1     -13.324 -19.873  46.269  1.00  0.00    -0.262 OA
HETATM    2  C1  UNL     1     -12.322 -19.911  47.033  1.00  0.00     0.311 C 
HETATM    3  N1  UNL     1     -11.158 -19.094  47.034  1.00  0.00    -0.329 N 
ATOM      4  H1  UNL     1     -10.800 -18.550  46.249  1.00  0.00     0.165 HD
HETATM    5  C2  UNL     1     -10.586 -19.177  48.334  1.00  0.00     0.222 C 
HETATM    6  C3  UNL     1      -9.083 -19.061  48.362  1.00  0.00     0.192 C 
HETATM    7  C4  UNL     1      -8.721 -19.008  49.834  1.00  0.00     0.181 C 
HETATM    8  C5  UNL     1      -9.161 -20.279  50.477  1.00  0.00     0.174 C 
HETATM    9  C6  UNL     1      -9.924 -21.209  49.575  1.00  0.00     0.144 C 
HETATM   10  N2  UNL     1     -10.884 -20.559  48.743  1.00  0.00    -0.311 N 
HETATM   11  C8  UNL     1     -12.125 -20.851  48.146  1.00  0.00     0.313 C 
HETATM   12  O6  UNL     1     -12.892 -21.770  48.539  1.00  0.00    -0.262 OA
ENDROOT
BRANCH   9  13
HETATM   13  C7  UNL     1     -10.557 -22.270  50.469  1.00  0.00     0.192 C 
BRANCH  13  14
HETATM   14  O5  UNL     1     -10.847 -21.744  51.727  1.00  0.00    -0.399 OA
ATOM     15  H5  UNL     1     -11.058 -22.439  52.339  1.00  0.00     0.209 HD
ENDBRANCH  13  14
ENDBRANCH   9  13
BRANCH   8  16
HETATM   16  O4  UNL     1      -7.995 -20.941  50.927  1.00  0.00    -0.391 OA
ATOM     17  H4  UNL     1      -8.026 -21.825  50.582  1.00  0.00     0.210 HD
ENDBRANCH   8  16
BRANCH   7  18
HETATM   18  O3  UNL     1      -9.455 -17.924  50.367  1.00  0.00    -0.390 OA
ATOM     19  H3  UNL     1      -8.841 -17.200  50.418  1.00  0.00     0.210 HD
ENDBRANCH   7  18
BRANCH   6  20
HETATM   20  O2  UNL     1      -8.629 -17.913  47.700  1.00  0.00    -0.389 OA
ATOM     21  H2  UNL     1      -9.242 -17.190  47.777  1.00  0.00     0.210 HD
ENDBRANCH   6  20
TORSDOF 5
ENDMDL
