MODEL 1
REMARK VINA RESULT: -5.422066003      0.000      0.000
REMARK  12 active torsions:
REMARK  status: ('A' for Active; 'I' for Inactive)
REMARK    1  A    between atoms: O1_2  and  C2_3 
REMARK    2  A    between atoms: C3_5  and  C4_6 
REMARK    3  A    between atoms: C4_6  and  O3_7 
REMARK    4  A    between atoms: C5_9  and  O4_10 
REMARK    5  A    between atoms: C6_12  and  O5_13 
REMARK    6  A    between atoms: C7_15  and  O6_16 
REMARK    7  A    between atoms: O6_16  and  C8_17 
REMARK    8  A    between atoms: C9_19  and  C10_20 
REMARK    9  A    between atoms: C10_20  and  O8_21 
REMARK   10  A    between atoms: C11_23  and  O9_24 
REMARK   11  A    between atoms: C12_26  and  O10_27 
REMARK   12  A    between atoms: C13_29  and  O11_30 
ROOT
HETATM    1  O6  UNL     1      11.512  19.368  77.197  1.00  0.00    -0.346 OA
ENDROOT
BRANCH   1   2
HETATM    2  C7  UNL     1      12.003  18.657  76.136  1.00  0.00     0.211 C 
HETATM    3  C2  UNL     1      11.959  17.148  76.367  1.00  0.00     0.291 C 
HETATM    4  O2  UNL     1      12.816  16.580  75.448  1.00  0.00    -0.349 OA
HETATM    5  C3  UNL     1      12.284  16.707  74.188  1.00  0.00     0.179 C 
HETATM    6  C5  UNL     1      11.997  18.107  73.766  1.00  0.00     0.180 C 
HETATM    7  C6  UNL     1      11.259  18.899  74.842  1.00  0.00     0.183 C 
BRANCH   3   8
HETATM    8  O1  UNL     1      12.197  16.801  77.669  1.00  0.00    -0.363 OA
HETATM    9  C1  UNL     1      13.441  16.177  77.787  1.00  0.00     0.204 C 
ENDBRANCH   3   8
BRANCH   5  10
HETATM   10  C4  UNL     1      13.231  16.094  73.184  1.00  0.00     0.198 C 
BRANCH  10  11
HETATM   11  O3  UNL     1      13.531  14.776  73.488  1.00  0.00    -0.398 OA
ATOM     12  H3  UNL     1      14.224  14.431  72.937  1.00  0.00     0.209 HD
ENDBRANCH  10  11
ENDBRANCH   5  10
BRANCH   6  13
HETATM   13  O4  UNL     1      13.158  18.796  73.366  1.00  0.00    -0.390 OA
ATOM     14  H4  UNL     1      13.050  19.739  73.401  1.00  0.00     0.210 HD
ENDBRANCH   6  13
BRANCH   7  15
HETATM   15  O5  UNL     1      11.176  20.223  74.496  1.00  0.00    -0.390 OA
ATOM     16  H5  UNL     1      10.799  20.318  73.629  1.00  0.00     0.210 HD
ENDBRANCH   7  15
ENDBRANCH   1   2
BRANCH   1  17
HETATM   17  C8  UNL     1      12.383  20.364  77.656  1.00  0.00     0.292 C 
HETATM   18  O7  UNL     1      11.629  21.415  78.090  1.00  0.00    -0.348 OA
HETATM   19  C9  UNL     1      11.989  21.889  79.325  1.00  0.00     0.179 C 
HETATM   20  C11 UNL     1      13.447  22.234  79.308  1.00  0.00     0.180 C 
HETATM   21  C12 UNL     1      14.218  20.938  79.175  1.00  0.00     0.183 C 
HETATM   22  C13 UNL     1      13.383  19.833  78.619  1.00  0.00     0.204 C 
BRANCH  19  23
HETATM   23  C10 UNL     1      11.119  23.045  79.745  1.00  0.00     0.198 C 
BRANCH  23  24
HETATM   24  O8  UNL     1      11.012  23.895  78.620  1.00  0.00    -0.398 OA
ATOM     25  H8  UNL     1      10.424  23.463  78.011  1.00  0.00     0.209 HD
ENDBRANCH  23  24
ENDBRANCH  19  23
BRANCH  20  26
HETATM   26  O9  UNL     1      13.792  23.030  78.212  1.00  0.00    -0.390 OA
ATOM     27  H9  UNL     1      14.516  23.615  78.403  1.00  0.00     0.210 HD
ENDBRANCH  20  26
BRANCH  21  28
HETATM   28  O10 UNL     1      15.347  21.148  78.389  1.00  0.00    -0.390 OA
ATOM     29  H10 UNL     1      16.035  21.530  78.921  1.00  0.00     0.210 HD
ENDBRANCH  21  28
BRANCH  22  30
HETATM   30  O11 UNL     1      12.846  19.028  79.615  1.00  0.00    -0.388 OA
ATOM     31  H11 UNL     1      13.384  18.959  80.395  1.00  0.00     0.210 HD
ENDBRANCH  22  30
ENDBRANCH   1  17
TORSDOF 12
ENDMDL
