MODEL 2
REMARK VINA RESULT: -5.243824439      0.973      1.171
REMARK  12 active torsions:
REMARK  status: ('A' for Active; 'I' for Inactive)
REMARK    1  A    between atoms: O1_2  and  C2_3 
REMARK    2  A    between atoms: C3_5  and  C4_6 
REMARK    3  A    between atoms: C4_6  and  O3_7 
REMARK    4  A    between atoms: C5_9  and  O4_10 
REMARK    5  A    between atoms: C6_12  and  O5_13 
REMARK    6  A    between atoms: C7_15  and  O6_16 
REMARK    7  A    between atoms: O6_16  and  C8_17 
REMARK    8  A    between atoms: C9_19  and  C10_20 
REMARK    9  A    between atoms: C10_20  and  O8_21 
REMARK   10  A    between atoms: C11_23  and  O9_24 
REMARK   11  A    between atoms: C12_26  and  O10_27 
REMARK   12  A    between atoms: C13_29  and  O11_30 
ROOT
HETATM    1  O6  UNL     1      12.109  19.394  77.192  1.00  0.00    -0.346 OA
ENDROOT
BRANCH   1   2
HETATM    2  C7  UNL     1      12.469  18.633  76.113  1.00  0.00     0.211 C 
HETATM    3  C2  UNL     1      12.302  17.136  76.365  1.00  0.00     0.291 C 
HETATM    4  O2  UNL     1      13.047  16.486  75.405  1.00  0.00    -0.349 OA
HETATM    5  C3  UNL     1      12.453  16.651  74.177  1.00  0.00     0.179 C 
HETATM    6  C5  UNL     1      12.269  18.068  73.755  1.00  0.00     0.180 C 
HETATM    7  C6  UNL     1      11.673  18.932  74.863  1.00  0.00     0.183 C 
BRANCH   3   8
HETATM    8  O1  UNL     1      12.587  16.779  77.656  1.00  0.00    -0.363 OA
HETATM    9  C1  UNL     1      11.586  15.949  78.164  1.00  0.00     0.204 C 
ENDBRANCH   3   8
BRANCH   5  10
HETATM   10  C4  UNL     1      13.279  15.947  73.126  1.00  0.00     0.198 C 
BRANCH  10  11
HETATM   11  O3  UNL     1      13.513  14.620  73.451  1.00  0.00    -0.398 OA
ATOM     12  H3  UNL     1      14.425  14.379  73.332  1.00  0.00     0.209 HD
ENDBRANCH  10  11
ENDBRANCH   5  10
BRANCH   6  13
HETATM   13  O4  UNL     1      13.462  18.645  73.278  1.00  0.00    -0.390 OA
ATOM     14  H4  UNL     1      13.429  19.594  73.275  1.00  0.00     0.210 HD
ENDBRANCH   6  13
BRANCH   7  15
HETATM   15  O5  UNL     1      11.688  20.255  74.505  1.00  0.00    -0.390 OA
ATOM     16  H5  UNL     1      11.115  20.407  73.763  1.00  0.00     0.210 HD
ENDBRANCH   7  15
ENDBRANCH   1   2
BRANCH   1  17
HETATM   17  C8  UNL     1      13.197  19.974  77.857  1.00  0.00     0.292 C 
HETATM   18  O7  UNL     1      12.957  21.312  77.970  1.00  0.00    -0.348 OA
HETATM   19  C9  UNL     1      13.163  21.813  79.228  1.00  0.00     0.179 C 
HETATM   20  C11 UNL     1      14.554  21.471  79.667  1.00  0.00     0.180 C 
HETATM   21  C12 UNL     1      14.613  19.969  79.857  1.00  0.00     0.183 C 
HETATM   22  C13 UNL     1      13.528  19.259  79.118  1.00  0.00     0.204 C 
BRANCH  19  23
HETATM   23  C10 UNL     1      12.880  23.292  79.284  1.00  0.00     0.198 C 
BRANCH  23  24
HETATM   24  O8  UNL     1      13.628  23.883  78.240  1.00  0.00    -0.398 OA
ATOM     25  H8  UNL     1      13.393  24.803  78.228  1.00  0.00     0.209 HD
ENDBRANCH  23  24
ENDBRANCH  19  23
BRANCH  20  26
HETATM   26  O9  UNL     1      15.511  21.798  78.702  1.00  0.00    -0.390 OA
ATOM     27  H9  UNL     1      16.190  21.137  78.628  1.00  0.00     0.210 HD
ENDBRANCH  20  26
BRANCH  21  28
HETATM   28  O10 UNL     1      15.864  19.501  79.470  1.00  0.00    -0.390 OA
ATOM     29  H10 UNL     1      16.153  18.831  80.077  1.00  0.00     0.210 HD
ENDBRANCH  21  28
BRANCH  22  30
HETATM   30  O11 UNL     1      12.431  18.988  79.926  1.00  0.00    -0.388 OA
ATOM     31  H11 UNL     1      12.423  18.112  80.293  1.00  0.00     0.210 HD
ENDBRANCH  22  30
ENDBRANCH   1  17
TORSDOF 12
ENDMDL
