MODEL 12
REMARK VINA RESULT: -4.832064445      2.672      5.942
REMARK  12 active torsions:
REMARK  status: ('A' for Active; 'I' for Inactive)
REMARK    1  A    between atoms: O1_2  and  C2_3 
REMARK    2  A    between atoms: C3_5  and  C4_6 
REMARK    3  A    between atoms: C4_6  and  O3_7 
REMARK    4  A    between atoms: C5_9  and  O4_10 
REMARK    5  A    between atoms: C6_12  and  O5_13 
REMARK    6  A    between atoms: C7_15  and  O6_16 
REMARK    7  A    between atoms: O6_16  and  C8_17 
REMARK    8  A    between atoms: C9_19  and  C10_20 
REMARK    9  A    between atoms: C10_20  and  O8_21 
REMARK   10  A    between atoms: C11_23  and  O9_24 
REMARK   11  A    between atoms: C12_26  and  O10_27 
REMARK   12  A    between atoms: C13_29  and  O11_30 
ROOT
HETATM    1  O6  UNL     1      12.241  17.454  77.853  1.00  0.00    -0.346 OA
ENDROOT
BRANCH   1   2
HETATM    2  C7  UNL     1      13.278  16.647  78.236  1.00  0.00     0.211 C 
HETATM    3  C2  UNL     1      14.304  17.377  79.101  1.00  0.00     0.291 C 
HETATM    4  O2  UNL     1      15.452  16.614  79.083  1.00  0.00    -0.349 OA
HETATM    5  C3  UNL     1      15.240  15.454  79.787  1.00  0.00     0.179 C 
HETATM    6  C5  UNL     1      14.108  14.618  79.292  1.00  0.00     0.180 C 
HETATM    7  C6  UNL     1      12.847  15.440  79.038  1.00  0.00     0.183 C 
BRANCH   3   8
HETATM    8  O1  UNL     1      14.475  18.685  78.733  1.00  0.00    -0.363 OA
HETATM    9  C1  UNL     1      15.643  18.831  77.981  1.00  0.00     0.204 C 
ENDBRANCH   3   8
BRANCH   5  10
HETATM   10  C4  UNL     1      16.496  14.615  79.755  1.00  0.00     0.198 C 
BRANCH  10  11
HETATM   11  O3  UNL     1      16.309  13.376  80.347  1.00  0.00    -0.398 OA
ATOM     12  H3  UNL     1      16.196  12.686  79.703  1.00  0.00     0.209 HD
ENDBRANCH  10  11
ENDBRANCH   5  10
BRANCH   6  13
HETATM   13  O4  UNL     1      14.448  13.882  78.141  1.00  0.00    -0.390 OA
ATOM     14  H4  UNL     1      14.697  12.988  78.343  1.00  0.00     0.210 HD
ENDBRANCH   6  13
BRANCH   7  15
HETATM   15  O5  UNL     1      11.892  14.678  78.415  1.00  0.00    -0.390 OA
ATOM     16  H5  UNL     1      12.208  14.369  77.574  1.00  0.00     0.210 HD
ENDBRANCH   7  15
ENDBRANCH   1   2
BRANCH   1  17
HETATM   17  C8  UNL     1      12.363  17.939  76.545  1.00  0.00     0.292 C 
HETATM   18  O7  UNL     1      12.543  16.871  75.715  1.00  0.00    -0.348 OA
HETATM   19  C9  UNL     1      11.734  16.879  74.610  1.00  0.00     0.179 C 
HETATM   20  C11 UNL     1      11.919  18.173  73.879  1.00  0.00     0.180 C 
HETATM   21  C12 UNL     1      11.352  19.273  74.754  1.00  0.00     0.183 C 
HETATM   22  C13 UNL     1      11.258  18.867  76.187  1.00  0.00     0.204 C 
BRANCH  19  23
HETATM   23  C10 UNL     1      11.983  15.675  73.738  1.00  0.00     0.198 C 
BRANCH  23  24
HETATM   24  O8  UNL     1      13.370  15.409  73.809  1.00  0.00    -0.398 OA
ATOM     25  H8  UNL     1      13.594  14.936  73.016  1.00  0.00     0.209 HD
ENDBRANCH  23  24
ENDBRANCH  19  23
BRANCH  20  26
HETATM   26  O9  UNL     1      13.267  18.475  73.665  1.00  0.00    -0.390 OA
ATOM     27  H9  UNL     1      13.641  17.971  72.950  1.00  0.00     0.210 HD
ENDBRANCH  20  26
BRANCH  21  28
HETATM   28  O10 UNL     1      12.126  20.420  74.615  1.00  0.00    -0.390 OA
ATOM     29  H10 UNL     1      11.888  20.866  73.810  1.00  0.00     0.210 HD
ENDBRANCH  21  28
BRANCH  22  30
HETATM   30  O11 UNL     1       9.991  18.402  76.519  1.00  0.00    -0.388 OA
ATOM     31  H11 UNL     1       9.288  19.012  76.327  1.00  0.00     0.210 HD
ENDBRANCH  22  30
ENDBRANCH   1  17
TORSDOF 12
ENDMDL
