MODEL 3
REMARK VINA RESULT: -5.243619857      2.233      6.249
REMARK  12 active torsions:
REMARK  status: ('A' for Active; 'I' for Inactive)
REMARK    1  A    between atoms: O1_2  and  C2_3 
REMARK    2  A    between atoms: C3_5  and  C4_6 
REMARK    3  A    between atoms: C4_6  and  O3_7 
REMARK    4  A    between atoms: C5_9  and  O4_10 
REMARK    5  A    between atoms: C6_12  and  O5_13 
REMARK    6  A    between atoms: C7_15  and  O6_16 
REMARK    7  A    between atoms: O6_16  and  C8_17 
REMARK    8  A    between atoms: C9_19  and  C10_20 
REMARK    9  A    between atoms: C10_20  and  O8_21 
REMARK   10  A    between atoms: C11_23  and  O9_24 
REMARK   11  A    between atoms: C12_26  and  O10_27 
REMARK   12  A    between atoms: C13_29  and  O11_30 
ROOT
HETATM    1  O6  UNL     1       9.691  18.792  75.977  1.00  0.00    -0.346 OA
ENDROOT
BRANCH   1   2
HETATM    2  C7  UNL     1       9.828  19.965  76.669  1.00  0.00     0.211 C 
HETATM    3  C2  UNL     1       8.639  20.905  76.477  1.00  0.00     0.291 C 
HETATM    4  O2  UNL     1       9.057  22.158  76.871  1.00  0.00    -0.349 OA
HETATM    5  C3  UNL     1       9.234  22.174  78.232  1.00  0.00     0.179 C 
HETATM    6  C5  UNL     1      10.205  21.167  78.750  1.00  0.00     0.180 C 
HETATM    7  C6  UNL     1       9.970  19.778  78.163  1.00  0.00     0.183 C 
BRANCH   3   8
HETATM    8  O1  UNL     1       8.110  20.842  75.217  1.00  0.00    -0.363 OA
HETATM    9  C1  UNL     1       8.258  22.068  74.565  1.00  0.00     0.204 C 
ENDBRANCH   3   8
BRANCH   5  10
HETATM   10  C4  UNL     1       9.704  23.546  78.658  1.00  0.00     0.198 C 
BRANCH  10  11
HETATM   11  O3  UNL     1       9.667  24.455  77.612  1.00  0.00    -0.398 OA
ATOM     12  H3  UNL     1      10.285  24.235  76.926  1.00  0.00     0.209 HD
ENDBRANCH  10  11
ENDBRANCH   5  10
BRANCH   6  13
HETATM   13  O4  UNL     1      11.542  21.559  78.551  1.00  0.00    -0.390 OA
ATOM     14  H4  UNL     1      11.947  21.109  77.819  1.00  0.00     0.210 HD
ENDBRANCH   6  13
BRANCH   7  15
HETATM   15  O5  UNL     1      10.985  18.927  78.516  1.00  0.00    -0.390 OA
ATOM     16  H5  UNL     1      10.634  18.118  78.870  1.00  0.00     0.210 HD
ENDBRANCH   7  15
ENDBRANCH   1   2
BRANCH   1  17
HETATM   17  C8  UNL     1      10.755  18.528  75.106  1.00  0.00     0.292 C 
HETATM   18  O7  UNL     1      11.835  19.245  75.531  1.00  0.00    -0.348 OA
HETATM   19  C9  UNL     1      12.992  18.515  75.615  1.00  0.00     0.179 C 
HETATM   20  C11 UNL     1      13.257  17.867  74.290  1.00  0.00     0.180 C 
HETATM   21  C12 UNL     1      12.181  16.823  74.074  1.00  0.00     0.183 C 
HETATM   22  C13 UNL     1      10.972  17.070  74.912  1.00  0.00     0.204 C 
BRANCH  19  23
HETATM   23  C10 UNL     1      14.143  19.363  76.091  1.00  0.00     0.198 C 
BRANCH  23  24
HETATM   24  O8  UNL     1      13.605  20.635  76.394  1.00  0.00    -0.398 OA
ATOM     25  H8  UNL     1      14.344  21.207  76.564  1.00  0.00     0.209 HD
ENDBRANCH  23  24
ENDBRANCH  19  23
BRANCH  20  26
HETATM   26  O9  UNL     1      13.167  18.773  73.228  1.00  0.00    -0.390 OA
ATOM     27  H9  UNL     1      12.325  19.214  73.200  1.00  0.00     0.210 HD
ENDBRANCH  20  26
BRANCH  21  28
HETATM   28  O10 UNL     1      11.847  16.774  72.724  1.00  0.00    -0.390 OA
ATOM     29  H10 UNL     1      11.765  15.868  72.451  1.00  0.00     0.210 HD
ENDBRANCH  21  28
BRANCH  22  30
HETATM   30  O11 UNL     1      10.988  16.334  76.090  1.00  0.00    -0.388 OA
ATOM     31  H11 UNL     1      10.562  15.487  76.027  1.00  0.00     0.210 HD
ENDBRANCH  22  30
ENDBRANCH   1  17
TORSDOF 12
ENDMDL
