MODEL 6
REMARK VINA RESULT: -8.044076319      2.277      2.730
REMARK  7 active torsions:
REMARK  status: ('A' for Active; 'I' for Inactive)
REMARK    1  A    between atoms: C2_2  and  C3_3 
REMARK    2  A    between atoms: C2_2  and  N3_29 
REMARK    3  A    between atoms: C6_6  and  N1_7 
REMARK    4  A    between atoms: C9_10  and  N2_11 
REMARK    5  A    between atoms: N2_11  and  S1_13 
REMARK    6  A    between atoms: S1_13  and  C10_16 
REMARK    7  A    between atoms: C11_17  and  C12_18 
ROOT
HETATM    1  N1  UNL     1       6.383   6.192  20.347  1.00  0.00    -0.313 N 
HETATM    2  C7  UNL     1       4.976   6.561  20.294  1.00  0.00     0.135 C 
HETATM    3  C8  UNL     1       4.718   7.498  21.461  1.00  0.00     0.056 C 
HETATM    4  C9  UNL     1       6.093   8.108  21.688  1.00  0.00     0.187 C 
HETATM    5  C16 UNL     1       6.984   6.981  21.356  1.00  0.00     0.247 C 
HETATM    6  O3  UNL     1       8.098   6.757  21.884  1.00  0.00    -0.271 OA
ENDROOT
BRANCH   4   7
HETATM    7  N2  UNL     1       6.300   9.307  20.972  1.00  0.00    -0.302 N 
ATOM      8  H2  UNL     1       5.820   9.482  20.089  1.00  0.00     0.173 HD
BRANCH   7   9
HETATM    9  S1  UNL     1       7.368  10.441  21.625  1.00  0.00     0.249 S 
HETATM   10  O1  UNL     1       8.235  10.999  20.538  1.00  0.00    -0.201 OA
HETATM   11  O2  UNL     1       6.680  11.607  22.273  1.00  0.00    -0.201 OA
BRANCH   9  12
HETATM   12  C10 UNL     1       8.467   9.665  22.772  1.00  0.00     0.132 C 
HETATM   13  C11 UNL     1       8.305   9.733  24.053  1.00  0.00     0.032 C 
BRANCH  13  14
HETATM   14  C12 UNL     1       9.274   9.050  24.955  1.00  0.00     0.007 A 
HETATM   15  C13 UNL     1       9.011   8.350  26.103  1.00  0.00     0.021 A 
HETATM   16  C14 UNL     1      10.065   7.824  26.750  1.00  0.00     0.033 A 
HETATM   17  C15 UNL     1      11.305   8.032  26.209  1.00  0.00     0.075 A 
HETATM   18 CL1  UNL     1      12.845   7.441  26.865  1.00  0.00    -0.076 Cl
HETATM   19  S2  UNL     1      10.969   8.951  24.818  1.00  0.00    -0.078 SA
ENDBRANCH  13  14
ENDBRANCH   9  12
ENDBRANCH   7   9
ENDBRANCH   4   7
BRANCH   1  20
HETATM   20  C6  UNL     1       7.015   5.202  19.511  1.00  0.00     0.076 A 
HETATM   21  C5  UNL     1       7.585   4.076  20.050  1.00  0.00     0.033 A 
HETATM   22  C4  UNL     1       8.206   3.115  19.282  1.00  0.00     0.012 A 
HETATM   23  C3  UNL     1       8.273   3.266  17.916  1.00  0.00    -0.022 A 
HETATM   24  C18 UNL     1       7.709   4.384  17.341  1.00  0.00     0.054 A 
HETATM   25  C17 UNL     1       7.096   5.326  18.132  1.00  0.00     0.143 A 
HETATM   26  F1  UNL     1       6.539   6.423  17.578  1.00  0.00    -0.204 F 
BRANCH  23  27
HETATM   27  C2  UNL     1       8.957   2.202  17.110  1.00  0.00     0.251 C 
HETATM   28  C1  UNL     1      10.389   2.028  17.653  1.00  0.00     0.048 C 
BRANCH  27  29
HETATM   29  N3  UNL     1       8.221   0.980  17.281  1.00  0.00     0.088 N 
HETATM   30  C19 UNL     1       9.023  -0.127  16.759  1.00  0.00     0.310 C 
HETATM   31  C20 UNL     1       7.006   1.081  16.465  1.00  0.00     0.310 C 
ENDBRANCH  27  29
ENDBRANCH  23  27
ENDBRANCH   1  20
TORSDOF 7
ENDMDL
