MODEL 1
REMARK VINA RESULT: -8.334170068      0.000      0.000
REMARK  7 active torsions:
REMARK  status: ('A' for Active; 'I' for Inactive)
REMARK    1  A    between atoms: C2_2  and  C3_3 
REMARK    2  A    between atoms: C2_2  and  N3_29 
REMARK    3  A    between atoms: C6_6  and  N1_7 
REMARK    4  A    between atoms: C9_10  and  N2_11 
REMARK    5  A    between atoms: N2_11  and  S1_13 
REMARK    6  A    between atoms: S1_13  and  C10_16 
REMARK    7  A    between atoms: C11_17  and  C12_18 
ROOT
HETATM    1  N1  UNL     1       5.050   5.878  21.081  1.00  0.00    -0.313 N 
HETATM    2  C7  UNL     1       4.540   7.049  20.383  1.00  0.00     0.135 C 
HETATM    3  C8  UNL     1       3.693   7.825  21.377  1.00  0.00     0.056 C 
HETATM    4  C9  UNL     1       4.308   7.415  22.706  1.00  0.00     0.187 C 
HETATM    5  C16 UNL     1       4.695   6.017  22.444  1.00  0.00     0.247 C 
HETATM    6  O3  UNL     1       4.708   5.095  23.293  1.00  0.00    -0.271 OA
ENDROOT
BRANCH   4   7
HETATM    7  N2  UNL     1       5.334   8.282  23.141  1.00  0.00    -0.302 N 
ATOM      8  H2  UNL     1       5.920   8.780  22.471  1.00  0.00     0.173 HD
BRANCH   7   9
HETATM    9  S1  UNL     1       5.559   8.467  24.804  1.00  0.00     0.249 S 
HETATM   10  O1  UNL     1       5.451   9.917  25.169  1.00  0.00    -0.201 OA
HETATM   11  O2  UNL     1       4.543   7.735  25.631  1.00  0.00    -0.201 OA
BRANCH   9  12
HETATM   12  C10 UNL     1       7.193   7.973  25.265  1.00  0.00     0.132 C 
HETATM   13  C11 UNL     1       8.119   8.819  25.579  1.00  0.00     0.032 C 
BRANCH  13  14
HETATM   14  C12 UNL     1       9.472   8.324  25.959  1.00  0.00     0.007 A 
HETATM   15  C13 UNL     1       9.798   7.434  26.948  1.00  0.00     0.021 A 
HETATM   16  C14 UNL     1      11.102   7.146  27.100  1.00  0.00     0.033 A 
HETATM   17  C15 UNL     1      11.987   7.762  26.258  1.00  0.00     0.075 A 
HETATM   18 CL1  UNL     1      13.749   7.547  26.252  1.00  0.00    -0.076 Cl
HETATM   19  S2  UNL     1      10.982   8.724  25.279  1.00  0.00    -0.078 SA
ENDBRANCH  13  14
ENDBRANCH   9  12
ENDBRANCH   7   9
ENDBRANCH   4   7
BRANCH   1  20
HETATM   20  C6  UNL     1       5.778   4.795  20.468  1.00  0.00     0.076 A 
HETATM   21  C5  UNL     1       5.127   3.794  19.792  1.00  0.00     0.033 A 
HETATM   22  C4  UNL     1       5.790   2.739  19.203  1.00  0.00     0.012 A 
HETATM   23  C3  UNL     1       7.162   2.662  19.281  1.00  0.00    -0.022 A 
HETATM   24  C18 UNL     1       7.848   3.653  19.950  1.00  0.00     0.054 A 
HETATM   25  C17 UNL     1       7.160   4.692  20.528  1.00  0.00     0.143 A 
HETATM   26  F1  UNL     1       7.822   5.667  21.184  1.00  0.00    -0.204 F 
BRANCH  23  27
HETATM   27  C2  UNL     1       7.853   1.500  18.630  1.00  0.00     0.251 C 
HETATM   28  C1  UNL     1       7.031   1.078  17.397  1.00  0.00     0.048 C 
BRANCH  27  29
HETATM   29  N3  UNL     1       9.157   1.941  18.217  1.00  0.00     0.088 N 
HETATM   30  C19 UNL     1       9.064   2.465  16.854  1.00  0.00     0.310 C 
HETATM   31  C20 UNL     1      10.030   0.762  18.189  1.00  0.00     0.310 C 
ENDBRANCH  27  29
ENDBRANCH  23  27
ENDBRANCH   1  20
TORSDOF 7
ENDMDL
