MODEL 11
REMARK VINA RESULT: -7.634973845      5.178      7.052
REMARK  7 active torsions:
REMARK  status: ('A' for Active; 'I' for Inactive)
REMARK    1  A    between atoms: C2_2  and  C3_3 
REMARK    2  A    between atoms: C2_2  and  N3_29 
REMARK    3  A    between atoms: C6_6  and  N1_7 
REMARK    4  A    between atoms: C9_10  and  N2_11 
REMARK    5  A    between atoms: N2_11  and  S1_13 
REMARK    6  A    between atoms: S1_13  and  C10_16 
REMARK    7  A    between atoms: C11_17  and  C12_18 
ROOT
HETATM    1  N1  UNL     1       7.169   8.365  21.623  1.00  0.00    -0.313 N 
HETATM    2  C7  UNL     1       6.246   8.467  22.743  1.00  0.00     0.135 C 
HETATM    3  C8  UNL     1       6.625   9.717  23.519  1.00  0.00     0.056 C 
HETATM    4  C9  UNL     1       7.279  10.571  22.444  1.00  0.00     0.187 C 
HETATM    5  C16 UNL     1       7.937   9.553  21.605  1.00  0.00     0.247 C 
HETATM    6  O3  UNL     1       9.009   9.713  20.976  1.00  0.00    -0.271 OA
ENDROOT
BRANCH   4   7
HETATM    7  N2  UNL     1       6.377  11.438  21.791  1.00  0.00    -0.302 N 
ATOM      8  H2  UNL     1       5.375  11.397  21.982  1.00  0.00     0.173 HD
BRANCH   7   9
HETATM    9  S1  UNL     1       7.008  12.545  20.682  1.00  0.00     0.249 S 
HETATM   10  O1  UNL     1       6.128  13.756  20.622  1.00  0.00    -0.201 OA
HETATM   11  O2  UNL     1       8.385  13.027  21.035  1.00  0.00    -0.201 OA
BRANCH   9  12
HETATM   12  C10 UNL     1       7.000  11.859  19.052  1.00  0.00     0.132 C 
HETATM   13  C11 UNL     1       5.958  11.888  18.286  1.00  0.00     0.032 C 
BRANCH  13  14
HETATM   14  C12 UNL     1       6.031  11.290  16.923  1.00  0.00     0.007 A 
HETATM   15  C13 UNL     1       6.990  11.486  15.964  1.00  0.00     0.021 A 
HETATM   16  C14 UNL     1       6.830  10.831  14.802  1.00  0.00     0.033 A 
HETATM   17  C15 UNL     1       5.729  10.029  14.675  1.00  0.00     0.075 A 
HETATM   18 CL1  UNL     1       5.297   9.062  13.251  1.00  0.00    -0.076 Cl
HETATM   19  S2  UNL     1       4.948  10.207  16.176  1.00  0.00    -0.078 SA
ENDBRANCH  13  14
ENDBRANCH   9  12
ENDBRANCH   7   9
ENDBRANCH   4   7
BRANCH   1  20
HETATM   20  C6  UNL     1       7.258   7.246  20.718  1.00  0.00     0.076 A 
HETATM   21  C5  UNL     1       7.662   6.010  21.154  1.00  0.00     0.033 A 
HETATM   22  C4  UNL     1       7.768   4.922  20.314  1.00  0.00     0.012 A 
HETATM   23  C3  UNL     1       7.463   5.053  18.979  1.00  0.00    -0.022 A 
HETATM   24  C18 UNL     1       7.051   6.282  18.507  1.00  0.00     0.054 A 
HETATM   25  C17 UNL     1       6.955   7.349  19.368  1.00  0.00     0.143 A 
HETATM   26  F1  UNL     1       6.551   8.554  18.917  1.00  0.00    -0.204 F 
BRANCH  23  27
HETATM   27  C2  UNL     1       7.590   3.850  18.092  1.00  0.00     0.251 C 
HETATM   28  C1  UNL     1       9.061   3.390  18.109  1.00  0.00     0.048 C 
BRANCH  27  29
HETATM   29  N3  UNL     1       6.751   2.816  18.633  1.00  0.00     0.088 N 
HETATM   30  C19 UNL     1       7.450   1.536  18.514  1.00  0.00     0.310 C 
HETATM   31  C20 UNL     1       5.544   2.750  17.802  1.00  0.00     0.310 C 
ENDBRANCH  27  29
ENDBRANCH  23  27
ENDBRANCH   1  20
TORSDOF 7
ENDMDL
