MODEL 10
REMARK VINA RESULT: -7.680598635      4.997      6.143
REMARK  7 active torsions:
REMARK  status: ('A' for Active; 'I' for Inactive)
REMARK    1  A    between atoms: C2_2  and  C3_3 
REMARK    2  A    between atoms: C2_2  and  N3_29 
REMARK    3  A    between atoms: C6_6  and  N1_7 
REMARK    4  A    between atoms: C9_10  and  N2_11 
REMARK    5  A    between atoms: N2_11  and  S1_13 
REMARK    6  A    between atoms: S1_13  and  C10_16 
REMARK    7  A    between atoms: C11_17  and  C12_18 
ROOT
HETATM    1  N1  UNL     1       6.262  10.870  20.297  1.00  0.00    -0.313 N 
HETATM    2  C7  UNL     1       7.579  10.746  20.904  1.00  0.00     0.135 C 
HETATM    3  C8  UNL     1       7.392  10.895  22.405  1.00  0.00     0.056 C 
HETATM    4  C9  UNL     1       5.955  10.433  22.592  1.00  0.00     0.187 C 
HETATM    5  C16 UNL     1       5.318  10.908  21.350  1.00  0.00     0.247 C 
HETATM    6  O3  UNL     1       4.128  11.287  21.243  1.00  0.00    -0.271 OA
ENDROOT
BRANCH   4   7
HETATM    7  N2  UNL     1       5.841   9.054  22.871  1.00  0.00    -0.302 N 
ATOM      8  H2  UNL     1       5.733   8.372  22.120  1.00  0.00     0.173 HD
BRANCH   7   9
HETATM    9  S1  UNL     1       5.888   8.570  24.488  1.00  0.00     0.249 S 
HETATM   10  O1  UNL     1       5.558   9.734  25.372  1.00  0.00    -0.201 OA
HETATM   11  O2  UNL     1       4.907   7.483  24.817  1.00  0.00    -0.201 OA
BRANCH   9  12
HETATM   12  C10 UNL     1       7.525   8.071  24.936  1.00  0.00     0.132 C 
HETATM   13  C11 UNL     1       8.274   8.760  25.733  1.00  0.00     0.032 C 
BRANCH  13  14
HETATM   14  C12 UNL     1       9.642   8.272  26.064  1.00  0.00     0.007 A 
HETATM   15  C13 UNL     1      10.010   7.386  27.043  1.00  0.00     0.021 A 
HETATM   16  C14 UNL     1      11.319   7.105  27.147  1.00  0.00     0.033 A 
HETATM   17  C15 UNL     1      12.170   7.723  26.272  1.00  0.00     0.075 A 
HETATM   18 CL1  UNL     1      13.931   7.517  26.202  1.00  0.00    -0.076 Cl
HETATM   19  S2  UNL     1      11.125   8.678  25.329  1.00  0.00    -0.078 SA
ENDBRANCH  13  14
ENDBRANCH   9  12
ENDBRANCH   7   9
ENDBRANCH   4   7
BRANCH   1  20
HETATM   20  C6  UNL     1       6.003  10.937  18.880  1.00  0.00     0.076 A 
HETATM   21  C5  UNL     1       5.793  12.139  18.253  1.00  0.00     0.033 A 
HETATM   22  C4  UNL     1       5.532  12.239  16.903  1.00  0.00     0.012 A 
HETATM   23  C3  UNL     1       5.475  11.102  16.129  1.00  0.00    -0.022 A 
HETATM   24  C18 UNL     1       5.683   9.878  16.727  1.00  0.00     0.054 A 
HETATM   25  C17 UNL     1       5.941   9.809  18.075  1.00  0.00     0.143 A 
HETATM   26  F1  UNL     1       6.149   8.616  18.669  1.00  0.00    -0.204 F 
BRANCH  23  27
HETATM   27  C2  UNL     1       5.188  11.247  14.664  1.00  0.00     0.251 C 
HETATM   28  C1  UNL     1       5.728  12.612  14.197  1.00  0.00     0.048 C 
BRANCH  27  29
HETATM   29  N3  UNL     1       5.876  10.189  13.976  1.00  0.00     0.088 N 
HETATM   30  C19 UNL     1       7.020  10.762  13.264  1.00  0.00     0.310 C 
HETATM   31  C20 UNL     1       4.952   9.640  12.977  1.00  0.00     0.310 C 
ENDBRANCH  27  29
ENDBRANCH  23  27
ENDBRANCH   1  20
TORSDOF 7
ENDMDL
