MODEL 3
REMARK VINA RESULT: -8.222633710      2.168      2.619
REMARK  7 active torsions:
REMARK  status: ('A' for Active; 'I' for Inactive)
REMARK    1  A    between atoms: C2_2  and  C3_3 
REMARK    2  A    between atoms: C2_2  and  N3_29 
REMARK    3  A    between atoms: C6_6  and  N1_7 
REMARK    4  A    between atoms: C9_10  and  N2_11 
REMARK    5  A    between atoms: N2_11  and  S1_13 
REMARK    6  A    between atoms: S1_13  and  C10_16 
REMARK    7  A    between atoms: C11_17  and  C12_18 
ROOT
HETATM    1  N1  UNL     1       6.423   6.079  20.504  1.00  0.00    -0.313 N 
HETATM    2  C7  UNL     1       5.015   6.437  20.433  1.00  0.00     0.135 C 
HETATM    3  C8  UNL     1       4.744   7.404  21.572  1.00  0.00     0.056 C 
HETATM    4  C9  UNL     1       6.114   8.028  21.790  1.00  0.00     0.187 C 
HETATM    5  C16 UNL     1       7.013   6.899  21.494  1.00  0.00     0.247 C 
HETATM    6  O3  UNL     1       8.126   6.696  22.034  1.00  0.00    -0.271 OA
ENDROOT
BRANCH   4   7
HETATM    7  N2  UNL     1       6.317   9.209  21.042  1.00  0.00    -0.302 N 
ATOM      8  H2  UNL     1       5.831   9.362  20.158  1.00  0.00     0.173 HD
BRANCH   7   9
HETATM    9  S1  UNL     1       7.390  10.358  21.658  1.00  0.00     0.249 S 
HETATM   10  O1  UNL     1       8.230  10.910  20.546  1.00  0.00    -0.201 OA
HETATM   11  O2  UNL     1       6.709  11.526  22.308  1.00  0.00    -0.201 OA
BRANCH   9  12
HETATM   12  C10 UNL     1       8.521   9.603  22.789  1.00  0.00     0.132 C 
HETATM   13  C11 UNL     1       8.404   9.710  24.073  1.00  0.00     0.032 C 
BRANCH  13  14
HETATM   14  C12 UNL     1       9.396   9.041  24.961  1.00  0.00     0.007 A 
HETATM   15  C13 UNL     1       9.161   8.344  26.116  1.00  0.00     0.021 A 
HETATM   16  C14 UNL     1      10.232   7.834  26.747  1.00  0.00     0.033 A 
HETATM   17  C15 UNL     1      11.460   8.052  26.183  1.00  0.00     0.075 A 
HETATM   18 CL1  UNL     1      13.018   7.482  26.815  1.00  0.00    -0.076 Cl
HETATM   19  S2  UNL     1      11.090   8.961  24.794  1.00  0.00    -0.078 SA
ENDBRANCH  13  14
ENDBRANCH   9  12
ENDBRANCH   7   9
ENDBRANCH   4   7
BRANCH   1  20
HETATM   20  C6  UNL     1       7.066   5.069  19.700  1.00  0.00     0.076 A 
HETATM   21  C5  UNL     1       7.472   5.335  18.417  1.00  0.00     0.033 A 
HETATM   22  C4  UNL     1       8.081   4.392  17.617  1.00  0.00     0.012 A 
HETATM   23  C3  UNL     1       8.301   3.122  18.100  1.00  0.00    -0.022 A 
HETATM   24  C18 UNL     1       7.907   2.821  19.386  1.00  0.00     0.054 A 
HETATM   25  C17 UNL     1       7.303   3.782  20.161  1.00  0.00     0.143 A 
HETATM   26  F1  UNL     1       6.916   3.498  21.421  1.00  0.00    -0.204 F 
BRANCH  23  27
HETATM   27  C2  UNL     1       8.964   2.119  17.203  1.00  0.00     0.251 C 
HETATM   28  C1  UNL     1      10.393   1.873  17.725  1.00  0.00     0.048 C 
BRANCH  27  29
HETATM   29  N3  UNL     1       8.205   0.900  17.272  1.00  0.00     0.088 N 
HETATM   30  C19 UNL     1       9.005  -0.182  16.698  1.00  0.00     0.310 C 
HETATM   31  C20 UNL     1       7.015   1.076  16.432  1.00  0.00     0.310 C 
ENDBRANCH  27  29
ENDBRANCH  23  27
ENDBRANCH   1  20
TORSDOF 7
ENDMDL
