MODEL 8
REMARK VINA RESULT: -7.759668587      4.811      8.483
REMARK  7 active torsions:
REMARK  status: ('A' for Active; 'I' for Inactive)
REMARK    1  A    between atoms: C2_2  and  C3_3 
REMARK    2  A    between atoms: C2_2  and  N3_29 
REMARK    3  A    between atoms: C6_6  and  N1_7 
REMARK    4  A    between atoms: C9_10  and  N2_11 
REMARK    5  A    between atoms: N2_11  and  S1_13 
REMARK    6  A    between atoms: S1_13  and  C10_16 
REMARK    7  A    between atoms: C11_17  and  C12_18 
ROOT
HETATM    1  N1  UNL     1       6.352   9.012  20.664  1.00  0.00    -0.313 N 
HETATM    2  C7  UNL     1       4.908   9.183  20.611  1.00  0.00     0.135 C 
HETATM    3  C8  UNL     1       4.525   9.266  19.143  1.00  0.00     0.056 C 
HETATM    4  C9  UNL     1       5.649   8.489  18.477  1.00  0.00     0.187 C 
HETATM    5  C16 UNL     1       6.800   8.822  19.336  1.00  0.00     0.247 C 
HETATM    6  O3  UNL     1       7.989   8.923  18.951  1.00  0.00    -0.271 OA
ENDROOT
BRANCH   4   7
HETATM    7  N2  UNL     1       5.361   7.116  18.314  1.00  0.00    -0.302 N 
ATOM      8  H2  UNL     1       5.120   6.530  19.113  1.00  0.00     0.173 HD
BRANCH   7   9
HETATM    9  S1  UNL     1       5.430   6.476  16.752  1.00  0.00     0.249 S 
HETATM   10  O1  UNL     1       4.085   5.938  16.369  1.00  0.00    -0.201 OA
HETATM   11  O2  UNL     1       5.808   7.485  15.707  1.00  0.00    -0.201 OA
BRANCH   9  12
HETATM   12  C10 UNL     1       6.537   5.097  16.698  1.00  0.00     0.132 C 
HETATM   13  C11 UNL     1       7.207   4.697  17.729  1.00  0.00     0.032 C 
BRANCH  13  14
HETATM   14  C12 UNL     1       8.118   3.524  17.605  1.00  0.00     0.007 A 
HETATM   15  C13 UNL     1       9.385   3.382  18.106  1.00  0.00     0.021 A 
HETATM   16  C14 UNL     1      10.012   2.220  17.854  1.00  0.00     0.033 A 
HETATM   17  C15 UNL     1       9.334   1.284  17.122  1.00  0.00     0.075 A 
HETATM   18 CL1  UNL     1       9.937  -0.321  16.662  1.00  0.00    -0.076 Cl
HETATM   19  S2  UNL     1       7.846   2.045  16.806  1.00  0.00    -0.078 SA
ENDBRANCH  13  14
ENDBRANCH   9  12
ENDBRANCH   7   9
ENDBRANCH   4   7
BRANCH   1  20
HETATM   20  C6  UNL     1       7.148   9.036  21.866  1.00  0.00     0.076 A 
HETATM   21  C5  UNL     1       7.665   7.883  22.399  1.00  0.00     0.033 A 
HETATM   22  C4  UNL     1       8.421   7.868  23.552  1.00  0.00     0.012 A 
HETATM   23  C3  UNL     1       8.683   9.045  24.216  1.00  0.00    -0.022 A 
HETATM   24  C18 UNL     1       8.180  10.223  23.707  1.00  0.00     0.054 A 
HETATM   25  C17 UNL     1       7.429  10.207  22.556  1.00  0.00     0.143 A 
HETATM   26  F1  UNL     1       6.934  11.354  22.048  1.00  0.00    -0.204 F 
BRANCH  23  27
HETATM   27  C2  UNL     1       9.508   8.994  25.468  1.00  0.00     0.251 C 
HETATM   28  C1  UNL     1       8.688   8.278  26.559  1.00  0.00     0.048 C 
BRANCH  27  29
HETATM   29  N3  UNL     1      10.697   8.241  25.179  1.00  0.00     0.088 N 
HETATM   30  C19 UNL     1      11.344   7.885  26.443  1.00  0.00     0.310 C 
HETATM   31  C20 UNL     1      11.606   9.123  24.439  1.00  0.00     0.310 C 
ENDBRANCH  27  29
ENDBRANCH  23  27
ENDBRANCH   1  20
TORSDOF 7
ENDMDL
