MODEL 9
REMARK VINA RESULT: -8.354911147      1.318      1.766
REMARK  7 active torsions:
REMARK  status: ('A' for Active; 'I' for Inactive)
REMARK    1  A    between atoms: C2_2  and  C3_3 
REMARK    2  A    between atoms: C2_2  and  N3_29 
REMARK    3  A    between atoms: C6_6  and  N1_7 
REMARK    4  A    between atoms: C9_10  and  N2_11 
REMARK    5  A    between atoms: N2_11  and  S1_13 
REMARK    6  A    between atoms: S1_13  and  C10_16 
REMARK    7  A    between atoms: C11_17  and  C12_18 
ROOT
HETATM    1  N1  UNL     1       6.328   6.082  19.874  1.00  0.00    -0.313 N 
HETATM    2  C7  UNL     1       5.535   7.212  19.410  1.00  0.00     0.135 C 
HETATM    3  C8  UNL     1       4.658   7.580  20.613  1.00  0.00     0.056 C 
HETATM    4  C9  UNL     1       5.573   7.235  21.767  1.00  0.00     0.187 C 
HETATM    5  C16 UNL     1       6.659   6.397  21.227  1.00  0.00     0.247 C 
HETATM    6  O3  UNL     1       7.679   6.028  21.834  1.00  0.00    -0.271 OA
ENDROOT
BRANCH   4   7
HETATM    7  N2  UNL     1       6.021   8.385  22.485  1.00  0.00    -0.302 N 
ATOM      8  H2  UNL     1       6.297   9.246  22.010  1.00  0.00     0.173 HD
BRANCH   7   9
HETATM    9  S1  UNL     1       6.068   8.237  24.175  1.00  0.00     0.249 S 
HETATM   10  O1  UNL     1       5.805   9.610  24.761  1.00  0.00    -0.201 OA
HETATM   11  O2  UNL     1       5.015   7.328  24.722  1.00  0.00    -0.201 OA
BRANCH   9  12
HETATM   12  C10 UNL     1       7.668   7.759  24.694  1.00  0.00     0.132 C 
HETATM   13  C11 UNL     1       8.400   8.457  25.512  1.00  0.00     0.032 C 
BRANCH  13  14
HETATM   14  C12 UNL     1       9.751   8.025  25.930  1.00  0.00     0.007 A 
HETATM   15  C13 UNL     1      10.087   7.275  27.027  1.00  0.00     0.021 A 
HETATM   16  C14 UNL     1      11.381   7.001  27.210  1.00  0.00     0.033 A 
HETATM   17  C15 UNL     1      12.267   7.492  26.289  1.00  0.00     0.075 A 
HETATM   18 CL1  UNL     1      14.031   7.294  26.271  1.00  0.00    -0.076 Cl
HETATM   19  S2  UNL     1      11.260   8.323  25.193  1.00  0.00    -0.078 SA
ENDBRANCH  13  14
ENDBRANCH   9  12
ENDBRANCH   7   9
ENDBRANCH   4   7
BRANCH   1  20
HETATM   20  C6  UNL     1       6.709   4.898  19.147  1.00  0.00     0.076 A 
HETATM   21  C5  UNL     1       8.027   4.691  18.787  1.00  0.00     0.033 A 
HETATM   22  C4  UNL     1       8.429   3.564  18.086  1.00  0.00     0.012 A 
HETATM   23  C3  UNL     1       7.515   2.596  17.718  1.00  0.00    -0.022 A 
HETATM   24  C18 UNL     1       6.199   2.793  18.073  1.00  0.00     0.054 A 
HETATM   25  C17 UNL     1       5.815   3.921  18.770  1.00  0.00     0.143 A 
HETATM   26  F1  UNL     1       4.506   4.083  19.104  1.00  0.00    -0.204 F 
BRANCH  23  27
HETATM   27  C2  UNL     1       7.904   1.373  16.969  1.00  0.00     0.251 C 
HETATM   28  C1  UNL     1       6.784   0.360  17.074  1.00  0.00     0.048 C 
BRANCH  27  29
HETATM   29  N3  UNL     1       9.134   0.840  17.493  1.00  0.00     0.088 N 
HETATM   30  C19 UNL     1       8.937   0.420  18.871  1.00  0.00     0.310 C 
HETATM   31  C20 UNL     1       9.551  -0.321  16.734  1.00  0.00     0.310 C 
ENDBRANCH  27  29
ENDBRANCH  23  27
ENDBRANCH   1  20
TORSDOF 7
ENDMDL
