MODEL 1
REMARK VINA RESULT: -9.199210906      0.000      0.000
REMARK  7 active torsions:
REMARK  status: ('A' for Active; 'I' for Inactive)
REMARK    1  A    between atoms: C2_2  and  C3_3 
REMARK    2  A    between atoms: C2_2  and  N3_29 
REMARK    3  A    between atoms: C6_6  and  N1_7 
REMARK    4  A    between atoms: C9_10  and  N2_11 
REMARK    5  A    between atoms: N2_11  and  S1_13 
REMARK    6  A    between atoms: S1_13  and  C10_16 
REMARK    7  A    between atoms: C11_17  and  C12_18 
ROOT
HETATM    1  N1  UNL     1       6.252   4.999  20.660  1.00  0.00    -0.313 N 
HETATM    2  C7  UNL     1       4.888   5.430  20.391  1.00  0.00     0.135 C 
HETATM    3  C8  UNL     1       4.340   5.831  21.767  1.00  0.00     0.056 C 
HETATM    4  C9  UNL     1       5.585   6.363  22.441  1.00  0.00     0.187 C 
HETATM    5  C16 UNL     1       6.740   5.912  21.644  1.00  0.00     0.247 C 
HETATM    6  O3  UNL     1       7.924   6.258  21.796  1.00  0.00    -0.271 OA
ENDROOT
BRANCH   4   7
HETATM    7  N2  UNL     1       5.540   7.774  22.661  1.00  0.00    -0.302 N 
ATOM      8  H2  UNL     1       5.342   8.433  21.908  1.00  0.00     0.173 HD
BRANCH   7   9
HETATM    9  S1  UNL     1       5.834   8.289  24.252  1.00  0.00     0.249 S 
HETATM   10  O1  UNL     1       5.825   9.805  24.249  1.00  0.00    -0.201 OA
HETATM   11  O2  UNL     1       4.784   7.855  25.222  1.00  0.00    -0.201 OA
BRANCH   9  12
HETATM   12  C10 UNL     1       7.431   7.789  24.761  1.00  0.00     0.132 C 
HETATM   13  C11 UNL     1       8.233   8.539  25.458  1.00  0.00     0.032 C 
BRANCH  13  14
HETATM   14  C12 UNL     1       9.579   8.087  25.872  1.00  0.00     0.007 A 
HETATM   15  C13 UNL     1       9.906   7.324  26.962  1.00  0.00     0.021 A 
HETATM   16  C14 UNL     1      11.197   7.032  27.142  1.00  0.00     0.033 A 
HETATM   17  C15 UNL     1      12.089   7.520  26.225  1.00  0.00     0.075 A 
HETATM   18 CL1  UNL     1      13.850   7.301  26.204  1.00  0.00    -0.076 Cl
HETATM   19  S2  UNL     1      11.091   8.373  25.136  1.00  0.00    -0.078 SA
ENDBRANCH  13  14
ENDBRANCH   9  12
ENDBRANCH   7   9
ENDBRANCH   4   7
BRANCH   1  20
HETATM   20  C6  UNL     1       6.975   3.899  20.072  1.00  0.00     0.076 A 
HETATM   21  C5  UNL     1       6.634   2.595  20.375  1.00  0.00     0.033 A 
HETATM   22  C4  UNL     1       7.308   1.513  19.830  1.00  0.00     0.012 A 
HETATM   23  C3  UNL     1       8.359   1.703  18.953  1.00  0.00    -0.022 A 
HETATM   24  C18 UNL     1       8.706   3.000  18.644  1.00  0.00     0.054 A 
HETATM   25  C17 UNL     1       8.025   4.065  19.196  1.00  0.00     0.143 A 
HETATM   26  F1  UNL     1       8.395   5.333  18.869  1.00  0.00    -0.204 F 
BRANCH  23  27
HETATM   27  C2  UNL     1       9.107   0.572  18.344  1.00  0.00     0.251 C 
HETATM   28  C1  UNL     1      10.422   1.092  17.802  1.00  0.00     0.048 C 
BRANCH  27  29
HETATM   29  N3  UNL     1       8.324  -0.038  17.303  1.00  0.00     0.088 N 
HETATM   30  C19 UNL     1       7.934   0.970  16.329  1.00  0.00     0.310 C 
HETATM   31  C20 UNL     1       9.096  -1.046  16.607  1.00  0.00     0.310 C 
ENDBRANCH  27  29
ENDBRANCH  23  27
ENDBRANCH   1  20
TORSDOF 7
ENDMDL
