MODEL 2
REMARK VINA RESULT: -9.172760569      0.846      1.205
REMARK  7 active torsions:
REMARK  status: ('A' for Active; 'I' for Inactive)
REMARK    1  A    between atoms: C2_2  and  C3_3 
REMARK    2  A    between atoms: C2_2  and  N3_29 
REMARK    3  A    between atoms: C6_6  and  N1_7 
REMARK    4  A    between atoms: C9_10  and  N2_11 
REMARK    5  A    between atoms: N2_11  and  S1_13 
REMARK    6  A    between atoms: S1_13  and  C10_16 
REMARK    7  A    between atoms: C11_17  and  C12_18 
ROOT
HETATM    1  N1  UNL     1       6.330   5.088  20.578  1.00  0.00    -0.313 N 
HETATM    2  C7  UNL     1       4.998   5.569  20.239  1.00  0.00     0.135 C 
HETATM    3  C8  UNL     1       4.386   5.969  21.588  1.00  0.00     0.056 C 
HETATM    4  C9  UNL     1       5.607   6.448  22.340  1.00  0.00     0.187 C 
HETATM    5  C16 UNL     1       6.790   5.970  21.603  1.00  0.00     0.247 C 
HETATM    6  O3  UNL     1       7.974   6.273  21.828  1.00  0.00    -0.271 OA
ENDROOT
BRANCH   4   7
HETATM    7  N2  UNL     1       5.596   7.856  22.581  1.00  0.00    -0.302 N 
ATOM      8  H2  UNL     1       5.432   8.531  21.834  1.00  0.00     0.173 HD
BRANCH   7   9
HETATM    9  S1  UNL     1       5.871   8.340  24.185  1.00  0.00     0.249 S 
HETATM   10  O1  UNL     1       5.854   9.855  24.213  1.00  0.00    -0.201 OA
HETATM   11  O2  UNL     1       4.813   7.881  25.135  1.00  0.00    -0.201 OA
BRANCH   9  12
HETATM   12  C10 UNL     1       7.464   7.838  24.701  1.00  0.00     0.132 C 
HETATM   13  C11 UNL     1       8.250   8.571  25.434  1.00  0.00     0.032 C 
BRANCH  13  14
HETATM   14  C12 UNL     1       9.593   8.117  25.852  1.00  0.00     0.007 A 
HETATM   15  C13 UNL     1       9.919   7.369  26.953  1.00  0.00     0.021 A 
HETATM   16  C14 UNL     1      11.208   7.072  27.135  1.00  0.00     0.033 A 
HETATM   17  C15 UNL     1      12.101   7.541  26.209  1.00  0.00     0.075 A 
HETATM   18 CL1  UNL     1      13.861   7.311  26.189  1.00  0.00    -0.076 Cl
HETATM   19  S2  UNL     1      11.106   8.383  25.110  1.00  0.00    -0.078 SA
ENDBRANCH  13  14
ENDBRANCH   9  12
ENDBRANCH   7   9
ENDBRANCH   4   7
BRANCH   1  20
HETATM   20  C6  UNL     1       7.049   3.973  20.014  1.00  0.00     0.076 A 
HETATM   21  C5  UNL     1       8.047   4.181  19.083  1.00  0.00     0.033 A 
HETATM   22  C4  UNL     1       8.758   3.132  18.519  1.00  0.00     0.012 A 
HETATM   23  C3  UNL     1       8.488   1.824  18.874  1.00  0.00    -0.022 A 
HETATM   24  C18 UNL     1       7.494   1.606  19.802  1.00  0.00     0.054 A 
HETATM   25  C17 UNL     1       6.797   2.662  20.353  1.00  0.00     0.143 A 
HETATM   26  F1  UNL     1       5.821   2.410  21.267  1.00  0.00    -0.204 F 
BRANCH  23  27
HETATM   27  C2  UNL     1       9.227   0.671  18.296  1.00  0.00     0.251 C 
HETATM   28  C1  UNL     1      10.561   1.159  17.772  1.00  0.00     0.048 C 
BRANCH  27  29
HETATM   29  N3  UNL     1       8.452   0.061  17.248  1.00  0.00     0.088 N 
HETATM   30  C19 UNL     1       8.147   1.050  16.226  1.00  0.00     0.310 C 
HETATM   31  C20 UNL     1       9.199  -1.007  16.617  1.00  0.00     0.310 C 
ENDBRANCH  27  29
ENDBRANCH  23  27
ENDBRANCH   1  20
TORSDOF 7
ENDMDL
