MODEL 3
REMARK VINA RESULT: -9.047895619      1.299      1.723
REMARK  7 active torsions:
REMARK  status: ('A' for Active; 'I' for Inactive)
REMARK    1  A    between atoms: C2_2  and  C3_3 
REMARK    2  A    between atoms: C2_2  and  N3_29 
REMARK    3  A    between atoms: C6_6  and  N1_7 
REMARK    4  A    between atoms: C9_10  and  N2_11 
REMARK    5  A    between atoms: N2_11  and  S1_13 
REMARK    6  A    between atoms: S1_13  and  C10_16 
REMARK    7  A    between atoms: C11_17  and  C12_18 
ROOT
HETATM    1  N1  UNL     1       6.691   5.216  20.270  1.00  0.00    -0.313 N 
HETATM    2  C7  UNL     1       5.308   5.485  20.636  1.00  0.00     0.135 C 
HETATM    3  C8  UNL     1       5.412   6.332  21.911  1.00  0.00     0.056 C 
HETATM    4  C9  UNL     1       6.687   7.103  21.655  1.00  0.00     0.187 C 
HETATM    5  C16 UNL     1       7.388   6.432  20.546  1.00  0.00     0.247 C 
HETATM    6  O3  UNL     1       8.401   6.843  19.955  1.00  0.00    -0.271 OA
ENDROOT
BRANCH   4   7
HETATM    7  N2  UNL     1       6.462   8.498  21.448  1.00  0.00    -0.302 N 
ATOM      8  H2  UNL     1       6.079   8.861  20.574  1.00  0.00     0.173 HD
BRANCH   7   9
HETATM    9  S1  UNL     1       6.869   9.518  22.742  1.00  0.00     0.249 S 
HETATM   10  O1  UNL     1       7.195  10.881  22.164  1.00  0.00    -0.201 OA
HETATM   11  O2  UNL     1       5.752   9.722  23.714  1.00  0.00    -0.201 OA
BRANCH   9  12
HETATM   12  C10 UNL     1       8.317   8.940  23.534  1.00  0.00     0.132 C 
HETATM   13  C11 UNL     1       8.417   8.769  24.820  1.00  0.00     0.032 C 
BRANCH  13  14
HETATM   14  C12 UNL     1       9.657   8.279  25.458  1.00  0.00     0.007 A 
HETATM   15  C13 UNL     1       9.773   7.564  26.622  1.00  0.00     0.021 A 
HETATM   16  C14 UNL     1      11.004   7.224  27.014  1.00  0.00     0.033 A 
HETATM   17  C15 UNL     1      12.050   7.617  26.222  1.00  0.00     0.075 A 
HETATM   18 CL1  UNL     1      13.779   7.316  26.485  1.00  0.00    -0.076 Cl
HETATM   19  S2  UNL     1      11.277   8.452  24.952  1.00  0.00    -0.078 SA
ENDBRANCH  13  14
ENDBRANCH   9  12
ENDBRANCH   7   9
ENDBRANCH   4   7
BRANCH   1  20
HETATM   20  C6  UNL     1       7.257   4.001  19.741  1.00  0.00     0.076 A 
HETATM   21  C5  UNL     1       8.039   4.029  18.603  1.00  0.00     0.033 A 
HETATM   22  C4  UNL     1       8.598   2.879  18.066  1.00  0.00     0.012 A 
HETATM   23  C3  UNL     1       8.388   1.648  18.657  1.00  0.00    -0.022 A 
HETATM   24  C18 UNL     1       7.609   1.610  19.792  1.00  0.00     0.054 A 
HETATM   25  C17 UNL     1       7.061   2.763  20.314  1.00  0.00     0.143 A 
HETATM   26  F1  UNL     1       6.296   2.688  21.437  1.00  0.00    -0.204 F 
BRANCH  23  27
HETATM   27  C2  UNL     1       8.969   0.392  18.115  1.00  0.00     0.251 C 
HETATM   28  C1  UNL     1      10.479   0.511  18.119  1.00  0.00     0.048 C 
BRANCH  27  29
HETATM   29  N3  UNL     1       8.474   0.149  16.786  1.00  0.00     0.088 N 
HETATM   30  C19 UNL     1       9.023  -1.099  16.279  1.00  0.00     0.310 C 
HETATM   31  C20 UNL     1       7.031   0.025  16.793  1.00  0.00     0.310 C 
ENDBRANCH  27  29
ENDBRANCH  23  27
ENDBRANCH   1  20
TORSDOF 7
ENDMDL
