MODEL 7
REMARK VINA RESULT: -8.471071630      4.239      8.593
REMARK  7 active torsions:
REMARK  status: ('A' for Active; 'I' for Inactive)
REMARK    1  A    between atoms: C2_2  and  C3_3 
REMARK    2  A    between atoms: C2_2  and  N3_29 
REMARK    3  A    between atoms: C6_6  and  N1_7 
REMARK    4  A    between atoms: C9_10  and  N2_11 
REMARK    5  A    between atoms: N2_11  and  S1_13 
REMARK    6  A    between atoms: S1_13  and  C10_16 
REMARK    7  A    between atoms: C11_17  and  C12_18 
ROOT
HETATM    1  N1  UNL     1       6.605   7.624  21.282  1.00  0.00    -0.313 N 
HETATM    2  C7  UNL     1       5.681   8.556  20.652  1.00  0.00     0.135 C 
HETATM    3  C8  UNL     1       5.831   8.281  19.151  1.00  0.00     0.056 C 
HETATM    4  C9  UNL     1       6.123   6.797  19.146  1.00  0.00     0.187 C 
HETATM    5  C16 UNL     1       6.487   6.419  20.523  1.00  0.00     0.247 C 
HETATM    6  O3  UNL     1       6.661   5.266  20.952  1.00  0.00    -0.271 OA
ENDROOT
BRANCH   4   7
HETATM    7  N2  UNL     1       5.061   6.023  18.586  1.00  0.00    -0.302 N 
ATOM      8  H2  UNL     1       4.148   5.951  19.037  1.00  0.00     0.173 HD
BRANCH   7   9
HETATM    9  S1  UNL     1       5.408   5.228  17.127  1.00  0.00     0.249 S 
HETATM   10  O1  UNL     1       4.087   4.827  16.501  1.00  0.00    -0.201 OA
HETATM   11  O2  UNL     1       6.110   6.092  16.130  1.00  0.00    -0.201 OA
BRANCH   9  12
HETATM   12  C10 UNL     1       6.293   3.753  17.440  1.00  0.00     0.132 C 
HETATM   13  C11 UNL     1       7.572   3.715  17.677  1.00  0.00     0.032 C 
BRANCH  13  14
HETATM   14  C12 UNL     1       8.291   2.450  17.936  1.00  0.00     0.007 A 
HETATM   15  C13 UNL     1       7.924   1.437  18.784  1.00  0.00     0.021 A 
HETATM   16  C14 UNL     1       8.733   0.377  18.860  1.00  0.00     0.033 A 
HETATM   17  C15 UNL     1       9.863   0.388  18.088  1.00  0.00     0.075 A 
HETATM   18 CL1  UNL     1      11.114  -0.867  17.983  1.00  0.00    -0.076 Cl
HETATM   19  S2  UNL     1       9.759   1.883  17.277  1.00  0.00    -0.078 SA
ENDBRANCH  13  14
ENDBRANCH   9  12
ENDBRANCH   7   9
ENDBRANCH   4   7
BRANCH   1  20
HETATM   20  C6  UNL     1       7.458   7.842  22.423  1.00  0.00     0.076 A 
HETATM   21  C5  UNL     1       8.704   8.417  22.267  1.00  0.00     0.033 A 
HETATM   22  C4  UNL     1       9.551   8.641  23.341  1.00  0.00     0.012 A 
HETATM   23  C3  UNL     1       9.174   8.292  24.624  1.00  0.00    -0.022 A 
HETATM   24  C18 UNL     1       7.933   7.718  24.790  1.00  0.00     0.054 A 
HETATM   25  C17 UNL     1       7.103   7.503  23.710  1.00  0.00     0.143 A 
HETATM   26  F1  UNL     1       5.883   6.933  23.911  1.00  0.00    -0.204 F 
BRANCH  23  27
HETATM   27  C2  UNL     1      10.050   8.516  25.803  1.00  0.00     0.251 C 
HETATM   28  C1  UNL     1      10.963   9.689  25.517  1.00  0.00     0.048 C 
BRANCH  27  29
HETATM   29  N3  UNL     1      10.810   7.328  26.089  1.00  0.00     0.088 N 
HETATM   30  C19 UNL     1      12.231   7.642  26.084  1.00  0.00     0.310 C 
HETATM   31  C20 UNL     1      10.479   6.813  27.402  1.00  0.00     0.310 C 
ENDBRANCH  27  29
ENDBRANCH  23  27
ENDBRANCH   1  20
TORSDOF 7
ENDMDL
