MODEL 4
REMARK VINA RESULT: -8.619904834      4.426      8.727
REMARK  7 active torsions:
REMARK  status: ('A' for Active; 'I' for Inactive)
REMARK    1  A    between atoms: C2_2  and  C3_3 
REMARK    2  A    between atoms: C2_2  and  N3_29 
REMARK    3  A    between atoms: C6_6  and  N1_7 
REMARK    4  A    between atoms: C9_10  and  N2_11 
REMARK    5  A    between atoms: N2_11  and  S1_13 
REMARK    6  A    between atoms: S1_13  and  C10_16 
REMARK    7  A    between atoms: C11_17  and  C12_18 
ROOT
HETATM    1  N1  UNL     1       6.589   7.432  21.048  1.00  0.00    -0.313 N 
HETATM    2  C7  UNL     1       5.536   8.252  20.464  1.00  0.00     0.135 C 
HETATM    3  C8  UNL     1       5.701   8.058  18.951  1.00  0.00     0.056 C 
HETATM    4  C9  UNL     1       6.194   6.629  18.884  1.00  0.00     0.187 C 
HETATM    5  C16 UNL     1       6.626   6.253  20.242  1.00  0.00     0.247 C 
HETATM    6  O3  UNL     1       6.964   5.120  20.623  1.00  0.00    -0.271 OA
ENDROOT
BRANCH   4   7
HETATM    7  N2  UNL     1       5.241   5.738  18.304  1.00  0.00    -0.302 N 
ATOM      8  H2  UNL     1       4.428   5.402  18.823  1.00  0.00     0.173 HD
BRANCH   7   9
HETATM    9  S1  UNL     1       5.539   5.270  16.700  1.00  0.00     0.249 S 
HETATM   10  O1  UNL     1       4.215   4.847  16.095  1.00  0.00    -0.201 OA
HETATM   11  O2  UNL     1       6.067   6.376  15.846  1.00  0.00    -0.201 OA
BRANCH   9  12
HETATM   12  C10 UNL     1       6.586   3.870  16.665  1.00  0.00     0.132 C 
HETATM   13  C11 UNL     1       7.556   3.674  17.509  1.00  0.00     0.032 C 
BRANCH  13  14
HETATM   14  C12 UNL     1       8.425   2.479  17.452  1.00  0.00     0.007 A 
HETATM   15  C13 UNL     1       9.644   2.300  18.053  1.00  0.00     0.021 A 
HETATM   16  C14 UNL     1      10.257   1.129  17.864  1.00  0.00     0.033 A 
HETATM   17  C15 UNL     1       9.620   0.202  17.083  1.00  0.00     0.075 A 
HETATM   18 CL1  UNL     1      10.184  -1.426  16.656  1.00  0.00    -0.076 Cl
HETATM   19  S2  UNL     1       8.180   1.000  16.638  1.00  0.00    -0.078 SA
ENDBRANCH  13  14
ENDBRANCH   9  12
ENDBRANCH   7   9
ENDBRANCH   4   7
BRANCH   1  20
HETATM   20  C6  UNL     1       7.420   7.723  22.188  1.00  0.00     0.076 A 
HETATM   21  C5  UNL     1       6.982   7.436  23.467  1.00  0.00     0.033 A 
HETATM   22  C4  UNL     1       7.755   7.703  24.586  1.00  0.00     0.012 A 
HETATM   23  C3  UNL     1       9.007   8.274  24.462  1.00  0.00    -0.022 A 
HETATM   24  C18 UNL     1       9.453   8.564  23.191  1.00  0.00     0.054 A 
HETATM   25  C17 UNL     1       8.670   8.292  22.088  1.00  0.00     0.143 A 
HETATM   26  F1  UNL     1       9.143   8.592  20.847  1.00  0.00    -0.204 F 
BRANCH  23  27
HETATM   27  C2  UNL     1       9.868   8.576  25.635  1.00  0.00     0.251 C 
HETATM   28  C1  UNL     1      10.810   9.704  25.272  1.00  0.00     0.048 C 
BRANCH  27  29
HETATM   29  N3  UNL     1      10.598   7.400  26.030  1.00  0.00     0.088 N 
HETATM   30  C19 UNL     1      12.024   7.686  26.028  1.00  0.00     0.310 C 
HETATM   31  C20 UNL     1      10.232   6.998  27.372  1.00  0.00     0.310 C 
ENDBRANCH  27  29
ENDBRANCH  23  27
ENDBRANCH   1  20
TORSDOF 7
ENDMDL
