MODEL 5
REMARK VINA RESULT: -8.600920813      0.933      1.126
REMARK  7 active torsions:
REMARK  status: ('A' for Active; 'I' for Inactive)
REMARK    1  A    between atoms: C2_2  and  C3_3 
REMARK    2  A    between atoms: C2_2  and  N3_29 
REMARK    3  A    between atoms: C6_6  and  N1_7 
REMARK    4  A    between atoms: C9_10  and  N2_11 
REMARK    5  A    between atoms: N2_11  and  S1_13 
REMARK    6  A    between atoms: S1_13  and  C10_16 
REMARK    7  A    between atoms: C11_17  and  C12_18 
ROOT
HETATM    1  N1  UNL     1       5.734   4.999  20.718  1.00  0.00    -0.313 N 
HETATM    2  C7  UNL     1       4.306   5.186  20.500  1.00  0.00     0.135 C 
HETATM    3  C8  UNL     1       3.754   5.535  21.888  1.00  0.00     0.056 C 
HETATM    4  C9  UNL     1       4.917   6.291  22.491  1.00  0.00     0.187 C 
HETATM    5  C16 UNL     1       6.098   6.013  21.655  1.00  0.00     0.247 C 
HETATM    6  O3  UNL     1       7.212   6.558  21.745  1.00  0.00    -0.271 OA
ENDROOT
BRANCH   4   7
HETATM    7  N2  UNL     1       4.642   7.680  22.677  1.00  0.00    -0.302 N 
ATOM      8  H2  UNL     1       4.290   8.267  21.920  1.00  0.00     0.173 HD
BRANCH   7   9
HETATM    9  S1  UNL     1       4.935   8.296  24.231  1.00  0.00     0.249 S 
HETATM   10  O1  UNL     1       4.741   9.798  24.170  1.00  0.00    -0.201 OA
HETATM   11  O2  UNL     1       3.987   7.782  25.264  1.00  0.00    -0.201 OA
BRANCH   9  12
HETATM   12  C10 UNL     1       6.600   8.016  24.686  1.00  0.00     0.132 C 
HETATM   13  C11 UNL     1       7.569   8.845  24.425  1.00  0.00     0.032 C 
BRANCH  13  14
HETATM   14  C12 UNL     1       8.967   8.577  24.823  1.00  0.00     0.007 A 
HETATM   15  C13 UNL     1      10.110   8.920  24.147  1.00  0.00     0.021 A 
HETATM   16  C14 UNL     1      11.276   8.574  24.698  1.00  0.00     0.033 A 
HETATM   17  C15 UNL     1      11.237   7.904  25.892  1.00  0.00     0.075 A 
HETATM   18 CL1  UNL     1      12.612   7.320  26.851  1.00  0.00    -0.076 Cl
HETATM   19  S2  UNL     1       9.566   7.780  26.207  1.00  0.00    -0.078 SA
ENDBRANCH  13  14
ENDBRANCH   9  12
ENDBRANCH   7   9
ENDBRANCH   4   7
BRANCH   1  20
HETATM   20  C6  UNL     1       6.608   4.017  20.127  1.00  0.00     0.076 A 
HETATM   21  C5  UNL     1       6.470   2.678  20.438  1.00  0.00     0.033 A 
HETATM   22  C4  UNL     1       7.294   1.707  19.890  1.00  0.00     0.012 A 
HETATM   23  C3  UNL     1       8.296   2.049  19.003  1.00  0.00    -0.022 A 
HETATM   24  C18 UNL     1       8.442   3.382  18.686  1.00  0.00     0.054 A 
HETATM   25  C17 UNL     1       7.612   4.335  19.241  1.00  0.00     0.143 A 
HETATM   26  F1  UNL     1       7.785   5.643  18.905  1.00  0.00    -0.204 F 
BRANCH  23  27
HETATM   27  C2  UNL     1       9.200   1.040  18.391  1.00  0.00     0.251 C 
HETATM   28  C1  UNL     1      10.352   1.759  17.722  1.00  0.00     0.048 C 
BRANCH  27  29
HETATM   29  N3  UNL     1       8.476   0.233  17.445  1.00  0.00     0.088 N 
HETATM   30  C19 UNL     1       7.969   1.074  16.371  1.00  0.00     0.310 C 
HETATM   31  C20 UNL     1       9.345  -0.762  16.852  1.00  0.00     0.310 C 
ENDBRANCH  27  29
ENDBRANCH  23  27
ENDBRANCH   1  20
TORSDOF 7
ENDMDL
