MODEL 12
REMARK VINA RESULT: -8.148680192      4.012      8.303
REMARK  7 active torsions:
REMARK  status: ('A' for Active; 'I' for Inactive)
REMARK    1  A    between atoms: C2_2  and  C3_3 
REMARK    2  A    between atoms: C2_2  and  N3_29 
REMARK    3  A    between atoms: C6_6  and  N1_7 
REMARK    4  A    between atoms: C9_10  and  N2_11 
REMARK    5  A    between atoms: N2_11  and  S1_13 
REMARK    6  A    between atoms: S1_13  and  C10_16 
REMARK    7  A    between atoms: C11_17  and  C12_18 
ROOT
HETATM    1  N1  UNL     1       6.532   7.888  21.344  1.00  0.00    -0.313 N 
HETATM    2  C7  UNL     1       6.131   8.878  20.355  1.00  0.00     0.135 C 
HETATM    3  C8  UNL     1       6.091   8.099  19.034  1.00  0.00     0.056 C 
HETATM    4  C9  UNL     1       5.658   6.729  19.507  1.00  0.00     0.187 C 
HETATM    5  C16 UNL     1       5.844   6.693  20.969  1.00  0.00     0.247 C 
HETATM    6  O3  UNL     1       5.475   5.791  21.740  1.00  0.00    -0.271 OA
ENDROOT
BRANCH   4   7
HETATM    7  N2  UNL     1       4.342   6.381  19.075  1.00  0.00    -0.302 N 
ATOM      8  H2  UNL     1       3.578   7.058  19.067  1.00  0.00     0.173 HD
BRANCH   7   9
HETATM    9  S1  UNL     1       4.123   4.774  18.576  1.00  0.00     0.249 S 
HETATM   10  O1  UNL     1       3.499   4.018  19.732  1.00  0.00    -0.201 OA
HETATM   11  O2  UNL     1       3.190   4.632  17.417  1.00  0.00    -0.201 OA
BRANCH   9  12
HETATM   12  C10 UNL     1       5.670   4.026  18.254  1.00  0.00     0.132 C 
HETATM   13  C11 UNL     1       6.170   3.064  18.973  1.00  0.00     0.032 C 
BRANCH  13  14
HETATM   14  C12 UNL     1       7.484   2.454  18.674  1.00  0.00     0.007 A 
HETATM   15  C13 UNL     1       8.637   3.093  18.298  1.00  0.00     0.021 A 
HETATM   16  C14 UNL     1       9.715   2.336  18.079  1.00  0.00     0.033 A 
HETATM   17  C15 UNL     1       9.581   0.983  18.245  1.00  0.00     0.075 A 
HETATM   18 CL1  UNL     1      10.826  -0.263  18.026  1.00  0.00    -0.076 Cl
HETATM   19  S2  UNL     1       7.948   0.813  18.706  1.00  0.00    -0.078 SA
ENDBRANCH  13  14
ENDBRANCH   9  12
ENDBRANCH   7   9
ENDBRANCH   4   7
BRANCH   1  20
HETATM   20  C6  UNL     1       7.422   8.053  22.465  1.00  0.00     0.076 A 
HETATM   21  C5  UNL     1       6.970   7.850  23.755  1.00  0.00     0.033 A 
HETATM   22  C4  UNL     1       7.798   8.001  24.857  1.00  0.00     0.012 A 
HETATM   23  C3  UNL     1       9.122   8.366  24.702  1.00  0.00    -0.022 A 
HETATM   24  C18 UNL     1       9.582   8.571  23.420  1.00  0.00     0.054 A 
HETATM   25  C17 UNL     1       8.744   8.416  22.335  1.00  0.00     0.143 A 
HETATM   26  F1  UNL     1       9.233   8.626  21.082  1.00  0.00    -0.204 F 
BRANCH  23  27
HETATM   27  C2  UNL     1      10.043   8.538  25.855  1.00  0.00     0.251 C 
HETATM   28  C1  UNL     1      11.025   9.645  25.535  1.00  0.00     0.048 C 
BRANCH  27  29
HETATM   29  N3  UNL     1      10.729   7.303  26.130  1.00  0.00     0.088 N 
HETATM   30  C19 UNL     1      12.162   7.543  26.197  1.00  0.00     0.310 C 
HETATM   31  C20 UNL     1      10.314   6.762  27.408  1.00  0.00     0.310 C 
ENDBRANCH  27  29
ENDBRANCH  23  27
ENDBRANCH   1  20
TORSDOF 7
ENDMDL
