MODEL 16
REMARK VINA RESULT: -8.994881033      3.350      5.436
REMARK  8 active torsions:
REMARK  status: ('A' for Active; 'I' for Inactive)
REMARK    1  A    between atoms: N1_5  and  C4_6 
REMARK    2  A    between atoms: C5_8  and  C6_9 
REMARK    3  A    between atoms: C6_9  and  O3_10 
REMARK    4  A    between atoms: O3_10  and  P1_11 
REMARK    5  A    between atoms: P1_11  and  O6_14 
REMARK    6  A    between atoms: O6_14  and  P2_15 
REMARK    7  A    between atoms: C7_19  and  O10_20 
REMARK    8  A    between atoms: C8_22  and  O11_23 
ROOT
HETATM    1  C4  UNL     1       3.197   1.117  19.710  1.00  0.00     0.263 C 
HETATM    2  O2  UNL     1       3.354  -0.129  19.122  1.00  0.00    -0.353 OA
HETATM    3  C5  UNL     1       3.640   0.056  17.793  1.00  0.00     0.180 C 
HETATM    4  C7  UNL     1       4.159   1.460  17.615  1.00  0.00     0.182 C 
HETATM    5  C8  UNL     1       4.363   1.885  19.073  1.00  0.00     0.198 C 
ENDROOT
BRANCH   3   6
HETATM    6  C6  UNL     1       4.735  -0.906  17.407  1.00  0.00     0.216 C 
BRANCH   6   7
HETATM    7  O3  UNL     1       5.731  -0.867  18.340  1.00  0.00    -0.287 OA
BRANCH   7   8
HETATM    8  P1  UNL     1       7.270  -0.778  17.810  1.00  0.00     0.418 P 
HETATM    9  O4  UNL     1       6.936  -0.878  16.331  1.00  0.00    -0.624 OA
HETATM   10  O5  UNL     1       7.922   0.779  17.508  1.00  0.00    -0.624 OA
BRANCH   8  11
HETATM   11  O6  UNL     1       8.272  -2.052  17.812  1.00  0.00    -0.173 OA
BRANCH  11  12
HETATM   12  P2  UNL     1       9.279  -2.368  18.904  1.00  0.00     0.431 P 
HETATM   13  O7  UNL     1       9.446  -3.917  18.415  1.00  0.00    -0.616 OA
HETATM   14  O8  UNL     1      10.365  -1.226  18.415  1.00  0.00    -0.616 OA
HETATM   15  O9  UNL     1       8.130  -2.005  20.051  1.00  0.00    -0.616 OA
ENDBRANCH  11  12
ENDBRANCH   8  11
ENDBRANCH   7   8
ENDBRANCH   6   7
ENDBRANCH   3   6
BRANCH   4  16
HETATM   16  O10 UNL     1       3.161   2.239  17.050  1.00  0.00    -0.390 OA
ATOM     17  H10 UNL     1       3.246   2.208  16.104  1.00  0.00     0.210 HD
ENDBRANCH   4  16
BRANCH   1  18
HETATM   18  N1  UNL     1       3.396   1.085  21.137  1.00  0.00    -0.280 N 
HETATM   19  C3  UNL     1       4.593   0.930  21.717  1.00  0.00     0.104 A 
HETATM   20  C2  UNL     1       4.670   0.912  23.094  1.00  0.00     0.092 A 
HETATM   21  C1  UNL     1       3.551   1.049  23.905  1.00  0.00     0.250 A 
HETATM   22  O1  UNL     1       3.647   1.029  25.159  1.00  0.00    -0.268 OA
HETATM   23  N2  UNL     1       2.374   1.200  23.272  1.00  0.00    -0.275 N 
HETATM   24  C9  UNL     1       2.313   1.216  21.924  1.00  0.00     0.331 A 
ATOM     25  H2  UNL     1       1.518   1.304  23.817  1.00  0.00     0.173 HD
HETATM   26  O12 UNL     1       1.172   1.363  21.394  1.00  0.00    -0.246 OA
ENDBRANCH   1  18
BRANCH   5  27
HETATM   27  O11 UNL     1       4.247   3.241  19.240  1.00  0.00    -0.388 OA
ATOM     28  H11 UNL     1       3.643   3.631  18.619  1.00  0.00     0.210 HD
ENDBRANCH   5  27
TORSDOF 8
ENDMDL
