MODEL 4
REMARK VINA RESULT: -9.691283421      1.761      2.714
REMARK  8 active torsions:
REMARK  status: ('A' for Active; 'I' for Inactive)
REMARK    1  A    between atoms: N1_5  and  C4_6 
REMARK    2  A    between atoms: C5_8  and  C6_9 
REMARK    3  A    between atoms: C6_9  and  O3_10 
REMARK    4  A    between atoms: O3_10  and  P1_11 
REMARK    5  A    between atoms: P1_11  and  O6_14 
REMARK    6  A    between atoms: O6_14  and  P2_15 
REMARK    7  A    between atoms: C7_19  and  O10_20 
REMARK    8  A    between atoms: C8_22  and  O11_23 
ROOT
HETATM    1  C4  UNL     1       0.346   1.018  23.625  1.00  0.00     0.263 C 
HETATM    2  O2  UNL     1       1.234   0.577  22.656  1.00  0.00    -0.353 OA
HETATM    3  C5  UNL     1       1.861   1.672  22.116  1.00  0.00     0.180 C 
HETATM    4  C7  UNL     1       1.733   2.814  23.092  1.00  0.00     0.182 C 
HETATM    5  C8  UNL     1       1.196   2.085  24.329  1.00  0.00     0.198 C 
ENDROOT
BRANCH   3   6
HETATM    6  C6  UNL     1       3.325   1.347  21.956  1.00  0.00     0.216 C 
BRANCH   6   7
HETATM    7  O3  UNL     1       3.704   0.452  22.914  1.00  0.00    -0.287 OA
BRANCH   7   8
HETATM    8  P1  UNL     1       5.191   0.611  23.562  1.00  0.00     0.418 P 
HETATM    9  O4  UNL     1       4.876   1.853  24.379  1.00  0.00    -0.624 OA
HETATM   10  O5  UNL     1       5.515  -0.214  25.029  1.00  0.00    -0.624 OA
BRANCH   8  11
HETATM   11  O6  UNL     1       6.428   1.284  22.759  1.00  0.00    -0.173 OA
BRANCH  11  12
HETATM   12  P2  UNL     1       7.240   0.598  21.675  1.00  0.00     0.431 P 
HETATM   13  O7  UNL     1       6.846  -0.893  22.211  1.00  0.00    -0.616 OA
HETATM   14  O8  UNL     1       6.398   1.277  20.429  1.00  0.00    -0.616 OA
HETATM   15  O9  UNL     1       8.616   1.326  22.261  1.00  0.00    -0.616 OA
ENDBRANCH  11  12
ENDBRANCH   8  11
ENDBRANCH   7   8
ENDBRANCH   6   7
ENDBRANCH   3   6
BRANCH   4  16
HETATM   16  O10 UNL     1       0.769   3.695  22.629  1.00  0.00    -0.390 OA
ATOM     17  H10 UNL     1       1.069   4.584  22.776  1.00  0.00     0.210 HD
ENDBRANCH   4  16
BRANCH   1  18
HETATM   18  N1  UNL     1       0.017  -0.008  24.582  1.00  0.00    -0.280 N 
HETATM   19  C3  UNL     1       0.803  -1.060  24.842  1.00  0.00     0.104 A 
HETATM   20  C2  UNL     1       0.391  -1.986  25.778  1.00  0.00     0.092 A 
HETATM   21  C1  UNL     1      -0.812  -1.870  26.462  1.00  0.00     0.250 A 
HETATM   22  O1  UNL     1      -1.166  -2.727  27.311  1.00  0.00    -0.268 OA
HETATM   23  N2  UNL     1      -1.563  -0.795  26.163  1.00  0.00    -0.275 N 
HETATM   24  C9  UNL     1      -1.147   0.103  25.245  1.00  0.00     0.331 A 
ATOM     25  H2  UNL     1      -2.458  -0.658  26.634  1.00  0.00     0.173 HD
HETATM   26  O12 UNL     1      -1.905   1.091  25.012  1.00  0.00    -0.246 OA
ENDBRANCH   1  18
BRANCH   5  27
HETATM   27  O11 UNL     1       0.444   2.906  25.130  1.00  0.00    -0.388 OA
ATOM     28  H11 UNL     1      -0.311   2.460  25.496  1.00  0.00     0.210 HD
ENDBRANCH   5  27
TORSDOF 8
ENDMDL
