MODEL 9
REMARK VINA RESULT: -9.345165567      1.944      3.250
REMARK  8 active torsions:
REMARK  status: ('A' for Active; 'I' for Inactive)
REMARK    1  A    between atoms: N1_5  and  C4_6 
REMARK    2  A    between atoms: C5_8  and  C6_9 
REMARK    3  A    between atoms: C6_9  and  O3_10 
REMARK    4  A    between atoms: O3_10  and  P1_11 
REMARK    5  A    between atoms: P1_11  and  O6_14 
REMARK    6  A    between atoms: O6_14  and  P2_15 
REMARK    7  A    between atoms: C7_19  and  O10_20 
REMARK    8  A    between atoms: C8_22  and  O11_23 
ROOT
HETATM    1  C4  UNL     1       2.442   1.817  23.350  1.00  0.00     0.263 C 
HETATM    2  O2  UNL     1       2.599   1.827  21.972  1.00  0.00    -0.353 OA
HETATM    3  C5  UNL     1       3.930   1.653  21.689  1.00  0.00     0.180 C 
HETATM    4  C7  UNL     1       4.588   1.030  22.894  1.00  0.00     0.182 C 
HETATM    5  C8  UNL     1       3.364   0.652  23.735  1.00  0.00     0.198 C 
ENDROOT
BRANCH   3   6
HETATM    6  C6  UNL     1       4.046   0.689  20.535  1.00  0.00     0.216 C 
BRANCH   6   7
HETATM    7  O3  UNL     1       4.988   1.139  19.655  1.00  0.00    -0.287 OA
BRANCH   7   8
HETATM    8  P1  UNL     1       4.547   1.329  18.097  1.00  0.00     0.418 P 
HETATM    9  O4  UNL     1       3.349   2.221  18.378  1.00  0.00    -0.624 OA
HETATM   10  O5  UNL     1       5.247   2.627  17.223  1.00  0.00    -0.624 OA
BRANCH   8  11
HETATM   11  O6  UNL     1       3.700   0.212  17.284  1.00  0.00    -0.173 OA
BRANCH  11  12
HETATM   12  P2  UNL     1       4.069  -1.258  17.181  1.00  0.00     0.431 P 
HETATM   13  O7  UNL     1       3.439  -1.394  15.681  1.00  0.00    -0.616 OA
HETATM   14  O8  UNL     1       5.688  -1.001  17.377  1.00  0.00    -0.616 OA
HETATM   15  O9  UNL     1       3.100  -1.580  18.494  1.00  0.00    -0.616 OA
ENDBRANCH  11  12
ENDBRANCH   8  11
ENDBRANCH   7   8
ENDBRANCH   6   7
ENDBRANCH   3   6
BRANCH   4  16
HETATM   16  O10 UNL     1       5.315   2.004  23.561  1.00  0.00    -0.390 OA
ATOM     17  H10 UNL     1       4.851   2.245  24.354  1.00  0.00     0.210 HD
ENDBRANCH   4  16
BRANCH   1  18
HETATM   18  N1  UNL     1       1.097   1.488  23.751  1.00  0.00    -0.280 N 
HETATM   19  C3  UNL     1       0.693   0.246  24.046  1.00  0.00     0.104 A 
HETATM   20  C2  UNL     1      -0.619   0.042  24.418  1.00  0.00     0.092 A 
HETATM   21  C1  UNL     1      -1.540   1.078  24.501  1.00  0.00     0.250 A 
HETATM   22  O1  UNL     1      -2.732   0.866  24.843  1.00  0.00    -0.268 OA
HETATM   23  N2  UNL     1      -1.083   2.304  24.193  1.00  0.00    -0.275 N 
HETATM   24  C9  UNL     1       0.204   2.490  23.830  1.00  0.00     0.331 A 
ATOM     25  H2  UNL     1      -1.715   3.104  24.235  1.00  0.00     0.173 HD
HETATM   26  O12 UNL     1       0.568   3.671  23.555  1.00  0.00    -0.246 OA
ENDBRANCH   1  18
BRANCH   5  27
HETATM   27  O11 UNL     1       3.643   0.631  25.078  1.00  0.00    -0.388 OA
ATOM     28  H11 UNL     1       3.187  -0.069  25.530  1.00  0.00     0.210 HD
ENDBRANCH   5  27
TORSDOF 8
ENDMDL
