MODEL 13
REMARK VINA RESULT: -9.118838232      3.358      5.390
REMARK  8 active torsions:
REMARK  status: ('A' for Active; 'I' for Inactive)
REMARK    1  A    between atoms: N1_5  and  C4_6 
REMARK    2  A    between atoms: C5_8  and  C6_9 
REMARK    3  A    between atoms: C6_9  and  O3_10 
REMARK    4  A    between atoms: O3_10  and  P1_11 
REMARK    5  A    between atoms: P1_11  and  O6_14 
REMARK    6  A    between atoms: O6_14  and  P2_15 
REMARK    7  A    between atoms: C7_19  and  O10_20 
REMARK    8  A    between atoms: C8_22  and  O11_23 
ROOT
HETATM    1  C4  UNL     1       3.660   0.965  19.775  1.00  0.00     0.263 C 
HETATM    2  O2  UNL     1       4.349  -0.108  19.231  1.00  0.00    -0.353 OA
HETATM    3  C5  UNL     1       4.684   0.206  17.938  1.00  0.00     0.180 C 
HETATM    4  C7  UNL     1       4.637   1.706  17.792  1.00  0.00     0.182 C 
HETATM    5  C8  UNL     1       4.502   2.139  19.256  1.00  0.00     0.198 C 
ENDROOT
BRANCH   3   6
HETATM    6  C6  UNL     1       6.101  -0.249  17.693  1.00  0.00     0.216 C 
BRANCH   6   7
HETATM    7  O3  UNL     1       6.421  -1.247  18.569  1.00  0.00    -0.287 OA
BRANCH   7   8
HETATM    8  P1  UNL     1       7.797  -1.095  19.429  1.00  0.00     0.418 P 
HETATM    9  O4  UNL     1       7.605   0.371  19.779  1.00  0.00    -0.624 OA
HETATM   10  O5  UNL     1       7.734  -1.453  21.105  1.00  0.00    -0.624 OA
BRANCH   8  11
HETATM   11  O6  UNL     1       9.245  -0.883  18.733  1.00  0.00    -0.173 OA
BRANCH  11  12
HETATM   12  P2  UNL     1       9.969  -1.921  17.894  1.00  0.00     0.431 P 
HETATM   13  O7  UNL     1       9.176  -3.162  18.598  1.00  0.00    -0.616 OA
HETATM   14  O8  UNL     1       9.441  -1.315  16.452  1.00  0.00    -0.616 OA
HETATM   15  O9  UNL     1      11.416  -1.419  18.542  1.00  0.00    -0.616 OA
ENDBRANCH  11  12
ENDBRANCH   8  11
ENDBRANCH   7   8
ENDBRANCH   6   7
ENDBRANCH   3   6
BRANCH   4  16
HETATM   16  O10 UNL     1       3.484   2.054  17.106  1.00  0.00    -0.390 OA
ATOM     17  H10 UNL     1       2.742   1.624  17.514  1.00  0.00     0.210 HD
ENDBRANCH   4  16
BRANCH   1  18
HETATM   18  N1  UNL     1       3.699   0.975  21.215  1.00  0.00    -0.280 N 
HETATM   19  C3  UNL     1       4.826   0.854  21.929  1.00  0.00     0.104 A 
HETATM   20  C2  UNL     1       4.750   0.875  23.305  1.00  0.00     0.092 A 
HETATM   21  C1  UNL     1       3.546   1.018  23.983  1.00  0.00     0.250 A 
HETATM   22  O1  UNL     1       3.502   1.035  25.240  1.00  0.00    -0.268 OA
HETATM   23  N2  UNL     1       2.445   1.135  23.220  1.00  0.00    -0.275 N 
HETATM   24  C9  UNL     1       2.534   1.113  21.873  1.00  0.00     0.331 A 
ATOM     25  H2  UNL     1       1.532   1.242  23.663  1.00  0.00     0.173 HD
HETATM   26  O12 UNL     1       1.458   1.229  21.216  1.00  0.00    -0.246 OA
ENDBRANCH   1  18
BRANCH   5  27
HETATM   27  O11 UNL     1       3.854   3.341  19.384  1.00  0.00    -0.388 OA
ATOM     28  H11 UNL     1       3.750   3.786  18.551  1.00  0.00     0.210 HD
ENDBRANCH   5  27
TORSDOF 8
ENDMDL
