MODEL 3
REMARK VINA RESULT: -9.696155097      2.234      3.534
REMARK  14 active torsions:
REMARK  status: ('A' for Active; 'I' for Inactive)
REMARK    1  A    between atoms: N5_13  and  C6_14 
REMARK    2  A    between atoms: C7_16  and  C8_17 
REMARK    3  A    between atoms: C8_17  and  O2_18 
REMARK    4  A    between atoms: O2_18  and  P1_19 
REMARK    5  A    between atoms: P1_19  and  O5_22 
REMARK    6  A    between atoms: O5_22  and  P2_23 
REMARK    7  A    between atoms: P2_23  and  O8_26 
REMARK    8  A    between atoms: O8_26  and  C9_27 
REMARK    9  A    between atoms: C9_27  and  C10_28 
REMARK   10  A    between atoms: C12_31  and  O10_32 
REMARK   11  A    between atoms: C13_34  and  O11_35 
REMARK   12  A    between atoms: C14_37  and  O12_38 
REMARK   13  A    between atoms: C15_40  and  O13_41 
REMARK   14  A    between atoms: O13_41  and  P3_42 
ROOT
HETATM    1  C6  UNL     1       9.449  48.186   1.825  1.00  0.00     0.263 C 
HETATM    2  O1  UNL     1       9.163  47.442   0.693  1.00  0.00    -0.353 OA
HETATM    3  C7  UNL     1       9.424  48.190  -0.425  1.00  0.00     0.180 C 
HETATM    4  C14 UNL     1      10.581  49.095  -0.058  1.00  0.00     0.183 C 
HETATM    5  C15 UNL     1      10.406  49.218   1.424  1.00  0.00     0.216 C 
ENDROOT
BRANCH   3   6
HETATM    6  C8  UNL     1       9.828  47.257  -1.543  1.00  0.00     0.216 C 
BRANCH   6   7
HETATM    7  O2  UNL     1       8.902  46.216  -1.571  1.00  0.00    -0.287 OA
BRANCH   7   8
HETATM    8  P1  UNL     1       9.001  45.099  -2.638  1.00  0.00     0.417 P 
HETATM    9  O3  UNL     1      10.491  45.724  -3.044  1.00  0.00    -0.624 OA
HETATM   10  O4  UNL     1       8.947  43.890  -1.545  1.00  0.00    -0.624 OA
BRANCH   8  11
HETATM   11  O5  UNL     1       9.126  44.172  -3.865  1.00  0.00    -0.180 OA
BRANCH  11  12
HETATM   12  P2  UNL     1       9.383  44.541  -5.339  1.00  0.00     0.417 P 
HETATM   13  O6  UNL     1       7.797  45.081  -5.332  1.00  0.00    -0.624 OA
HETATM   14  O7  UNL     1       9.447  44.887  -6.835  1.00  0.00    -0.624 OA
BRANCH  12  15
HETATM   15  O8  UNL     1       9.736  42.962  -5.637  1.00  0.00    -0.287 OA
BRANCH  15  16
HETATM   16  C9  UNL     1      11.016  42.693  -5.264  1.00  0.00     0.216 C 
BRANCH  16  17
HETATM   17  C10 UNL     1      11.794  42.293  -6.502  1.00  0.00     0.177 C 
HETATM   18  O9  UNL     1      10.979  41.973  -7.559  1.00  0.00    -0.378 OA
HETATM   19  C11 UNL     1      11.669  42.228  -8.722  1.00  0.00     0.202 C 
HETATM   20  C12 UNL     1      12.597  43.388  -8.424  1.00  0.00     0.173 C 
HETATM   21  C13 UNL     1      12.746  43.366  -6.931  1.00  0.00     0.180 C 
BRANCH  20  22
HETATM   22  O10 UNL     1      13.843  43.239  -9.025  1.00  0.00    -0.391 OA
ATOM     23  H10 UNL     1      14.558  43.372  -8.414  1.00  0.00     0.210 HD
ENDBRANCH  20  22
BRANCH  21  24
HETATM   24  O11 UNL     1      14.037  43.067  -6.525  1.00  0.00    -0.390 OA
ATOM     25  H11 UNL     1      14.424  42.410  -7.092  1.00  0.00     0.210 HD
ENDBRANCH  21  24
ENDBRANCH  16  17
ENDBRANCH  15  16
ENDBRANCH  12  15
ENDBRANCH  11  12
ENDBRANCH   8  11
ENDBRANCH   7   8
ENDBRANCH   6   7
ENDBRANCH   3   6
BRANCH   4  26
HETATM   26  O12 UNL     1      10.418  50.341  -0.693  1.00  0.00    -0.390 OA
ATOM     27  H12 UNL     1      11.109  50.930  -0.413  1.00  0.00     0.210 HD
ENDBRANCH   4  26
BRANCH   1  28
HETATM   28  N5  UNL     1       9.976  47.215   2.798  1.00  0.00    -0.297 N 
HETATM   29  C3  UNL     1       9.820  47.266   4.137  1.00  0.00     0.142 A 
HETATM   30  N3  UNL     1       9.179  48.163   4.913  1.00  0.00    -0.336 N 
HETATM   31  C4  UNL     1      10.449  46.192   4.724  1.00  0.00     0.119 A 
HETATM   32  C2  UNL     1       9.133  48.043   6.256  1.00  0.00     0.183 A 
ATOM     33  H3  UNL     1       8.716  48.957   4.472  1.00  0.00     0.168 HD
HETATM   34  N2  UNL     1       9.739  47.005   6.828  1.00  0.00    -0.339 N 
HETATM   35  C1  UNL     1      10.397  46.075   6.095  1.00  0.00     0.148 A 
ATOM     36  H2  UNL     1       9.707  46.907   7.843  1.00  0.00     0.167 HD
HETATM   37  N1  UNL     1      11.011  45.008   6.784  1.00  0.00    -0.080 NA
HETATM   38  N4  UNL     1      10.988  45.487   3.725  1.00  0.00    -0.346 N 
HETATM   39  C5  UNL     1      10.699  46.113   2.543  1.00  0.00     0.188 A 
ATOM     40  H4  UNL     1      11.524  44.625   3.827  1.00  0.00     0.167 HD
ENDBRANCH   1  28
BRANCH   5  41
HETATM   41  O13 UNL     1      10.139  50.498   1.837  1.00  0.00    -0.270 OA
BRANCH  41  42
HETATM   42  P3  UNL     1      10.980  51.190   2.997  1.00  0.00     0.422 P 
HETATM   43  O14 UNL     1      10.856  52.842   3.258  1.00  0.00    -0.617 OA
HETATM   44  O15 UNL     1       9.999  50.903   4.123  1.00  0.00    -0.617 OA
HETATM   45  O16 UNL     1      12.184  50.334   3.809  1.00  0.00    -0.617 OA
ENDBRANCH  41  42
ENDBRANCH   5  41
TORSDOF 14
ENDMDL
