MODEL 1
REMARK VINA RESULT: -9.750453121      0.000      0.000
REMARK  14 active torsions:
REMARK  status: ('A' for Active; 'I' for Inactive)
REMARK    1  A    between atoms: N5_13  and  C6_14 
REMARK    2  A    between atoms: C7_16  and  C8_17 
REMARK    3  A    between atoms: C8_17  and  O2_18 
REMARK    4  A    between atoms: O2_18  and  P1_19 
REMARK    5  A    between atoms: P1_19  and  O5_22 
REMARK    6  A    between atoms: O5_22  and  P2_23 
REMARK    7  A    between atoms: P2_23  and  O8_26 
REMARK    8  A    between atoms: O8_26  and  C9_27 
REMARK    9  A    between atoms: C9_27  and  C10_28 
REMARK   10  A    between atoms: C12_31  and  O10_32 
REMARK   11  A    between atoms: C13_34  and  O11_35 
REMARK   12  A    between atoms: C14_37  and  O12_38 
REMARK   13  A    between atoms: C15_40  and  O13_41 
REMARK   14  A    between atoms: O13_41  and  P3_42 
ROOT
HETATM    1  C6  UNL     1       9.332  48.607   4.476  1.00  0.00     0.263 C 
HETATM    2  O1  UNL     1       9.571  48.367   3.134  1.00  0.00    -0.353 OA
HETATM    3  C7  UNL     1       9.907  49.540   2.511  1.00  0.00     0.180 C 
HETATM    4  C14 UNL     1      10.634  50.367   3.549  1.00  0.00     0.183 C 
HETATM    5  C15 UNL     1      10.043  49.839   4.820  1.00  0.00     0.216 C 
ENDROOT
BRANCH   3   6
HETATM    6  C8  UNL     1      10.832  49.224   1.358  1.00  0.00     0.216 C 
BRANCH   6   7
HETATM    7  O2  UNL     1      10.095  49.363   0.184  1.00  0.00    -0.287 OA
BRANCH   7   8
HETATM    8  P1  UNL     1       9.372  48.146  -0.444  1.00  0.00     0.417 P 
HETATM    9  O3  UNL     1       9.580  48.883  -1.923  1.00  0.00    -0.624 OA
HETATM   10  O4  UNL     1      10.501  47.076   0.046  1.00  0.00    -0.624 OA
BRANCH   8  11
HETATM   11  O5  UNL     1       8.490  47.101  -1.160  1.00  0.00    -0.180 OA
BRANCH  11  12
HETATM   12  P2  UNL     1       8.242  46.910  -2.669  1.00  0.00     0.417 P 
HETATM   13  O6  UNL     1       6.705  46.424  -2.210  1.00  0.00    -0.624 OA
HETATM   14  O7  UNL     1       7.861  46.586  -4.122  1.00  0.00    -0.624 OA
BRANCH  12  15
HETATM   15  O8  UNL     1       9.491  45.839  -2.704  1.00  0.00    -0.287 OA
BRANCH  15  16
HETATM   16  C9  UNL     1       9.010  44.566  -2.715  1.00  0.00     0.216 C 
BRANCH  16  17
HETATM   17  C10 UNL     1       9.962  43.712  -3.529  1.00  0.00     0.177 C 
HETATM   18  O9  UNL     1       9.319  42.717  -4.222  1.00  0.00    -0.378 OA
HETATM   19  C11 UNL     1      10.069  42.420  -5.337  1.00  0.00     0.202 C 
HETATM   20  C12 UNL     1      10.760  43.706  -5.743  1.00  0.00     0.173 C 
HETATM   21  C13 UNL     1      10.762  44.534  -4.491  1.00  0.00     0.180 C 
BRANCH  20  22
HETATM   22  O10 UNL     1      12.066  43.495  -6.171  1.00  0.00    -0.391 OA
ATOM     23  H10 UNL     1      12.133  43.428  -7.116  1.00  0.00     0.210 HD
ENDBRANCH  20  22
BRANCH  21  24
HETATM   24  O11 UNL     1      12.039  44.760  -3.999  1.00  0.00    -0.390 OA
ATOM     25  H11 UNL     1      12.329  45.640  -4.210  1.00  0.00     0.210 HD
ENDBRANCH  21  24
ENDBRANCH  16  17
ENDBRANCH  15  16
ENDBRANCH  12  15
ENDBRANCH  11  12
ENDBRANCH   8  11
ENDBRANCH   7   8
ENDBRANCH   6   7
ENDBRANCH   3   6
BRANCH   4  26
HETATM   26  O12 UNL     1      10.314  51.727   3.369  1.00  0.00    -0.390 OA
ATOM     27  H12 UNL     1      10.379  51.947   2.447  1.00  0.00     0.210 HD
ENDBRANCH   4  26
BRANCH   1  28
HETATM   28  N5  UNL     1       9.824  47.407   5.173  1.00  0.00    -0.297 N 
HETATM   29  C3  UNL     1       9.236  46.802   6.225  1.00  0.00     0.142 A 
HETATM   30  N3  UNL     1       8.105  47.105   6.894  1.00  0.00    -0.336 N 
HETATM   31  C4  UNL     1       9.978  45.710   6.614  1.00  0.00     0.119 A 
HETATM   32  C2  UNL     1       7.673  46.368   7.939  1.00  0.00     0.183 A 
ATOM     33  H3  UNL     1       7.560  47.916   6.601  1.00  0.00     0.168 HD
HETATM   34  N2  UNL     1       8.387  45.310   8.317  1.00  0.00    -0.339 N 
HETATM   35  C1  UNL     1       9.532  44.962   7.679  1.00  0.00     0.148 A 
ATOM     36  H2  UNL     1       8.066  44.749   9.105  1.00  0.00     0.167 HD
HETATM   37  N1  UNL     1      10.225  43.827   8.148  1.00  0.00    -0.080 NA
HETATM   38  N4  UNL     1      11.024  45.659   5.783  1.00  0.00    -0.346 N 
HETATM   39  C5  UNL     1      10.931  46.699   4.899  1.00  0.00     0.188 A 
ATOM     40  H4  UNL     1      11.767  44.961   5.804  1.00  0.00     0.167 HD
ENDBRANCH   1  28
BRANCH   5  41
HETATM   41  O13 UNL     1       9.339  50.779   5.527  1.00  0.00    -0.270 OA
BRANCH  41  42
HETATM   42  P3  UNL     1       9.115  50.643   7.096  1.00  0.00     0.422 P 
HETATM   43  O14 UNL     1       9.641  49.273   7.908  1.00  0.00    -0.617 OA
HETATM   44  O15 UNL     1      10.356  51.413   7.519  1.00  0.00    -0.617 OA
HETATM   45  O16 UNL     1       8.137  51.741   7.920  1.00  0.00    -0.617 OA
ENDBRANCH  41  42
ENDBRANCH   5  41
TORSDOF 14
ENDMDL
