MODEL 2
REMARK VINA RESULT: -9.705215566      2.272      3.729
REMARK  14 active torsions:
REMARK  status: ('A' for Active; 'I' for Inactive)
REMARK    1  A    between atoms: N5_13  and  C6_14 
REMARK    2  A    between atoms: C7_16  and  C8_17 
REMARK    3  A    between atoms: C8_17  and  O2_18 
REMARK    4  A    between atoms: O2_18  and  P1_19 
REMARK    5  A    between atoms: P1_19  and  O5_22 
REMARK    6  A    between atoms: O5_22  and  P2_23 
REMARK    7  A    between atoms: P2_23  and  O8_26 
REMARK    8  A    between atoms: O8_26  and  C9_27 
REMARK    9  A    between atoms: C9_27  and  C10_28 
REMARK   10  A    between atoms: C12_31  and  O10_32 
REMARK   11  A    between atoms: C13_34  and  O11_35 
REMARK   12  A    between atoms: C14_37  and  O12_38 
REMARK   13  A    between atoms: C15_40  and  O13_41 
REMARK   14  A    between atoms: O13_41  and  P3_42 
ROOT
HETATM    1  C6  UNL     1       9.378  48.268   1.956  1.00  0.00     0.263 C 
HETATM    2  O1  UNL     1       9.010  47.514   0.855  1.00  0.00    -0.353 OA
HETATM    3  C7  UNL     1       9.230  48.236  -0.288  1.00  0.00     0.180 C 
HETATM    4  C14 UNL     1      10.429  49.114  -0.001  1.00  0.00     0.183 C 
HETATM    5  C15 UNL     1      10.339  49.266   1.486  1.00  0.00     0.216 C 
ENDROOT
BRANCH   3   6
HETATM    6  C8  UNL     1       9.548  47.274  -1.410  1.00  0.00     0.216 C 
BRANCH   6   7
HETATM    7  O2  UNL     1       8.589  47.464  -2.403  1.00  0.00    -0.287 OA
BRANCH   7   8
HETATM    8  P1  UNL     1       8.790  46.871  -3.819  1.00  0.00     0.417 P 
HETATM    9  O3  UNL     1       7.259  46.229  -3.686  1.00  0.00    -0.624 OA
HETATM   10  O4  UNL     1       8.952  48.328  -4.533  1.00  0.00    -0.624 OA
BRANCH   8  11
HETATM   11  O5  UNL     1       8.948  46.059  -5.123  1.00  0.00    -0.180 OA
BRANCH  11  12
HETATM   12  P2  UNL     1       8.906  44.533  -5.327  1.00  0.00     0.417 P 
HETATM   13  O6  UNL     1       9.911  44.468  -3.987  1.00  0.00    -0.624 OA
HETATM   14  O7  UNL     1       9.039  43.006  -5.444  1.00  0.00    -0.624 OA
BRANCH  12  15
HETATM   15  O8  UNL     1       9.524  44.752  -6.836  1.00  0.00    -0.287 OA
BRANCH  15  16
HETATM   16  C9  UNL     1      10.124  43.609  -7.263  1.00  0.00     0.216 C 
BRANCH  16  17
HETATM   17  C10 UNL     1      11.620  43.852  -7.307  1.00  0.00     0.177 C 
HETATM   18  O9  UNL     1      12.291  43.206  -6.298  1.00  0.00    -0.378 OA
HETATM   19  C11 UNL     1      13.573  42.955  -6.732  1.00  0.00     0.202 C 
HETATM   20  C12 UNL     1      13.487  42.757  -8.231  1.00  0.00     0.173 C 
HETATM   21  C13 UNL     1      12.211  43.445  -8.621  1.00  0.00     0.180 C 
BRANCH  20  22
HETATM   22  O10 UNL     1      14.558  43.334  -8.905  1.00  0.00    -0.391 OA
ATOM     23  H10 UNL     1      14.663  44.255  -8.699  1.00  0.00     0.210 HD
ENDBRANCH  20  22
BRANCH  21  24
HETATM   24  O11 UNL     1      12.423  44.553  -9.427  1.00  0.00    -0.390 OA
ATOM     25  H11 UNL     1      13.353  44.722  -9.528  1.00  0.00     0.210 HD
ENDBRANCH  21  24
ENDBRANCH  16  17
ENDBRANCH  15  16
ENDBRANCH  12  15
ENDBRANCH  11  12
ENDBRANCH   8  11
ENDBRANCH   7   8
ENDBRANCH   6   7
ENDBRANCH   3   6
BRANCH   4  26
HETATM   26  O12 UNL     1      10.266  50.354  -0.649  1.00  0.00    -0.390 OA
ATOM     27  H12 UNL     1      11.110  50.663  -0.954  1.00  0.00     0.210 HD
ENDBRANCH   4  26
BRANCH   1  28
HETATM   28  N5  UNL     1       9.931  47.298   2.917  1.00  0.00    -0.297 N 
HETATM   29  C3  UNL     1       9.803  47.347   4.259  1.00  0.00     0.142 A 
HETATM   30  N3  UNL     1       9.173  48.239   5.049  1.00  0.00    -0.336 N 
HETATM   31  C4  UNL     1      10.450  46.276   4.831  1.00  0.00     0.119 A 
HETATM   32  C2  UNL     1       9.155  48.116   6.393  1.00  0.00     0.183 A 
ATOM     33  H3  UNL     1       8.695  49.031   4.619  1.00  0.00     0.168 HD
HETATM   34  N2  UNL     1       9.779  47.081   6.951  1.00  0.00    -0.339 N 
HETATM   35  C1  UNL     1      10.427  46.156   6.202  1.00  0.00     0.148 A 
ATOM     36  H2  UNL     1       9.768  46.982   7.966  1.00  0.00     0.167 HD
HETATM   37  N1  UNL     1      11.062  45.093   6.877  1.00  0.00    -0.080 NA
HETATM   38  N4  UNL     1      10.972  45.575   3.820  1.00  0.00    -0.346 N 
HETATM   39  C5  UNL     1      10.655  46.201   2.644  1.00  0.00     0.188 A 
ATOM     40  H4  UNL     1      11.515  44.717   3.909  1.00  0.00     0.167 HD
ENDBRANCH   1  28
BRANCH   5  41
HETATM   41  O13 UNL     1      10.129  50.560   1.890  1.00  0.00    -0.270 OA
BRANCH  41  42
HETATM   42  P3  UNL     1      11.018  51.230   3.027  1.00  0.00     0.422 P 
HETATM   43  O14 UNL     1      10.928  52.882   3.304  1.00  0.00    -0.617 OA
HETATM   44  O15 UNL     1      10.071  50.948   4.182  1.00  0.00    -0.617 OA
HETATM   45  O16 UNL     1      12.235  50.350   3.793  1.00  0.00    -0.617 OA
ENDBRANCH  41  42
ENDBRANCH   5  41
TORSDOF 14
ENDMDL
