MODEL 13
REMARK VINA RESULT: -4.928741445      2.393      4.540
REMARK  5 active torsions:
REMARK  status: ('A' for Active; 'I' for Inactive)
REMARK    1  A    between atoms: O1_1  and  C1_3 
REMARK    2  A    between atoms: C1_3  and  C2_4 
REMARK    3  A    between atoms: C3_5  and  O2_6 
REMARK    4  A    between atoms: C4_8  and  O3_9 
REMARK    5  A    between atoms: C5_11  and  O4_12 
ROOT
HETATM    1  C2  UNL     1      43.764  24.270 100.782  1.00  0.00     0.145 C 
HETATM    2  C3  UNL     1      43.831  24.693  99.335  1.00  0.00     0.175 C 
HETATM    3  C4  UNL     1      45.072  23.973  98.788  1.00  0.00     0.185 C 
HETATM    4  C5  UNL     1      44.684  22.522  98.664  1.00  0.00     0.217 C 
HETATM    5  C6  UNL     1      43.875  22.095  99.814  1.00  0.00     0.115 A 
HETATM    6  N1  UNL     1      43.440  20.819 100.054  1.00  0.00    -0.352 N 
ATOM      7  H1  UNL     1      43.629  20.014  99.458  1.00  0.00     0.166 HD
HETATM    8  C7  UNL     1      42.732  20.785 101.184  1.00  0.00     0.106 A 
HETATM    9  C8  UNL     1      42.730  22.081 101.656  1.00  0.00     0.110 A 
HETATM   10  N2  UNL     1      43.434  22.874 100.809  1.00  0.00    -0.334 N 
ENDROOT
BRANCH   1  11
HETATM   11  C1  UNL     1      42.887  25.140 101.613  1.00  0.00     0.192 C 
BRANCH  11  12
HETATM   12  O1  UNL     1      43.639  26.196 102.106  1.00  0.00    -0.399 OA
ATOM     13  H1  UNL     1      43.107  26.694 102.716  1.00  0.00     0.209 HD
ENDBRANCH  11  12
ENDBRANCH   1  11
BRANCH   2  14
HETATM   14  O2  UNL     1      43.915  26.053  99.170  1.00  0.00    -0.391 OA
ATOM     15  H2  UNL     1      44.778  26.345  98.901  1.00  0.00     0.210 HD
ENDBRANCH   2  14
BRANCH   3  16
HETATM   16  O3  UNL     1      45.522  24.533  97.622  1.00  0.00    -0.390 OA
ATOM     17  H3  UNL     1      46.373  24.196  97.368  1.00  0.00     0.210 HD
ENDBRANCH   3  16
BRANCH   4  18
HETATM   18  O4  UNL     1      43.878  22.369  97.517  1.00  0.00    -0.385 OA
ATOM     19  H4  UNL     1      44.142  23.015  96.872  1.00  0.00     0.210 HD
ENDBRANCH   4  18
TORSDOF 5
ENDMDL
