MODEL 5
REMARK VINA RESULT: -5.691346242      2.002      4.542
REMARK  5 active torsions:
REMARK  status: ('A' for Active; 'I' for Inactive)
REMARK    1  A    between atoms: O1_1  and  C1_3 
REMARK    2  A    between atoms: C1_3  and  C2_4 
REMARK    3  A    between atoms: C3_5  and  O2_6 
REMARK    4  A    between atoms: C4_8  and  O3_9 
REMARK    5  A    between atoms: C5_11  and  O4_12 
ROOT
HETATM    1  C2  UNL     1      43.544  25.024 101.302  1.00  0.00     0.145 C 
HETATM    2  C3  UNL     1      42.779  24.673 100.049  1.00  0.00     0.175 C 
HETATM    3  C4  UNL     1      43.863  24.226  99.057  1.00  0.00     0.185 C 
HETATM    4  C5  UNL     1      44.315  22.868  99.528  1.00  0.00     0.217 C 
HETATM    5  C6  UNL     1      44.416  22.828 100.995  1.00  0.00     0.115 A 
HETATM    6  N1  UNL     1      44.886  21.776 101.734  1.00  0.00    -0.352 N 
ATOM      7  H1  UNL     1      45.222  20.893 101.349  1.00  0.00     0.166 HD
HETATM    8  C7  UNL     1      44.839  22.076 103.033  1.00  0.00     0.106 A 
HETATM    9  C8  UNL     1      44.325  23.353 103.096  1.00  0.00     0.110 A 
HETATM   10  N2  UNL     1      44.070  23.804 101.843  1.00  0.00    -0.334 N 
ENDROOT
BRANCH   1  11
HETATM   11  C1  UNL     1      42.762  25.851 102.260  1.00  0.00     0.192 C 
BRANCH  11  12
HETATM   12  O1  UNL     1      43.455  27.025 102.513  1.00  0.00    -0.399 OA
ATOM     13  H1  UNL     1      42.842  27.750 102.520  1.00  0.00     0.209 HD
ENDBRANCH  11  12
ENDBRANCH   1  11
BRANCH   2  14
HETATM   14  O2  UNL     1      42.036  25.717  99.557  1.00  0.00    -0.391 OA
ATOM     15  H2  UNL     1      41.234  25.439  99.130  1.00  0.00     0.210 HD
ENDBRANCH   2  14
BRANCH   3  16
HETATM   16  O3  UNL     1      43.419  24.249  97.762  1.00  0.00    -0.390 OA
ATOM     17  H3  UNL     1      44.124  24.404  97.145  1.00  0.00     0.210 HD
ENDBRANCH   3  16
BRANCH   4  18
HETATM   18  O4  UNL     1      43.342  21.917  99.160  1.00  0.00    -0.385 OA
ATOM     19  H4  UNL     1      43.107  21.411  99.929  1.00  0.00     0.210 HD
ENDBRANCH   4  18
TORSDOF 5
ENDMDL
