MODEL 1
REMARK VINA RESULT: -6.870766443      0.000      0.000
REMARK  5 active torsions:
REMARK  status: ('A' for Active; 'I' for Inactive)
REMARK    1  A    between atoms: O1_1  and  C1_3 
REMARK    2  A    between atoms: C1_3  and  C2_4 
REMARK    3  A    between atoms: C3_5  and  O2_6 
REMARK    4  A    between atoms: C4_8  and  O3_9 
REMARK    5  A    between atoms: C5_11  and  O4_12 
ROOT
HETATM    1  C2  UNL     1      44.077  22.407 101.034  1.00  0.00     0.145 C 
HETATM    2  C3  UNL     1      43.401  22.759 102.337  1.00  0.00     0.175 C 
HETATM    3  C4  UNL     1      44.214  23.945 102.876  1.00  0.00     0.185 C 
HETATM    4  C5  UNL     1      43.844  25.123 102.012  1.00  0.00     0.217 C 
HETATM    5  C6  UNL     1      43.730  24.725 100.602  1.00  0.00     0.115 A 
HETATM    6  N1  UNL     1      43.499  25.569  99.550  1.00  0.00    -0.352 N 
ATOM      7  H1  UNL     1      43.379  26.579  99.625  1.00  0.00     0.166 HD
HETATM    8  C7  UNL     1      43.454  24.876  98.411  1.00  0.00     0.106 A 
HETATM    9  C8  UNL     1      43.665  23.563  98.772  1.00  0.00     0.110 A 
HETATM   10  N2  UNL     1      43.833  23.481 100.116  1.00  0.00    -0.334 N 
ENDROOT
BRANCH   1  11
HETATM   11  C1  UNL     1      43.719  21.053 100.529  1.00  0.00     0.192 C 
BRANCH  11  12
HETATM   12  O1  UNL     1      42.348  20.882 100.634  1.00  0.00    -0.399 OA
ATOM     13  H1  UNL     1      42.173  20.053 101.065  1.00  0.00     0.209 HD
ENDBRANCH  11  12
ENDBRANCH   1  11
BRANCH   2  14
HETATM   14  O2  UNL     1      43.365  21.717 103.228  1.00  0.00    -0.391 OA
ATOM     15  H2  UNL     1      43.541  21.982 104.123  1.00  0.00     0.210 HD
ENDBRANCH   2  14
BRANCH   3  16
HETATM   16  O3  UNL     1      44.007  24.146 104.214  1.00  0.00    -0.390 OA
ATOM     17  H3  UNL     1      44.609  24.784 104.577  1.00  0.00     0.210 HD
ENDBRANCH   3  16
BRANCH   4  18
HETATM   18  O4  UNL     1      42.574  25.591 102.408  1.00  0.00    -0.385 OA
ATOM     19  H4  UNL     1      42.664  26.486 102.714  1.00  0.00     0.210 HD
ENDBRANCH   4  18
TORSDOF 5
ENDMDL
