MODEL 9
REMARK VINA RESULT: -5.335433975      2.602      4.200
REMARK  5 active torsions:
REMARK  status: ('A' for Active; 'I' for Inactive)
REMARK    1  A    between atoms: O1_1  and  C1_3 
REMARK    2  A    between atoms: C1_3  and  C2_4 
REMARK    3  A    between atoms: C3_5  and  O2_6 
REMARK    4  A    between atoms: C4_8  and  O3_9 
REMARK    5  A    between atoms: C5_11  and  O4_12 
ROOT
HETATM    1  C2  UNL     1      43.109  25.094  97.861  1.00  0.00     0.145 C 
HETATM    2  C3  UNL     1      42.891  25.403  99.322  1.00  0.00     0.175 C 
HETATM    3  C4  UNL     1      42.968  24.034 100.013  1.00  0.00     0.185 C 
HETATM    4  C5  UNL     1      44.424  23.647  99.997  1.00  0.00     0.217 C 
HETATM    5  C6  UNL     1      45.048  24.002  98.715  1.00  0.00     0.115 A 
HETATM    6  N1  UNL     1      46.331  23.706  98.342  1.00  0.00    -0.352 N 
ATOM      7  H1  UNL     1      47.005  23.200  98.915  1.00  0.00     0.166 HD
HETATM    8  C7  UNL     1      46.569  24.176  97.117  1.00  0.00     0.106 A 
HETATM    9  C8  UNL     1      45.395  24.782  96.721  1.00  0.00     0.110 A 
HETATM   10  N2  UNL     1      44.470  24.669  97.707  1.00  0.00    -0.334 N 
ENDROOT
BRANCH   1  11
HETATM   11  C1  UNL     1      42.688  26.197  96.954  1.00  0.00     0.192 C 
BRANCH  11  12
HETATM   12  O1  UNL     1      43.080  27.407  97.505  1.00  0.00    -0.399 OA
ATOM     13  H1  UNL     1      43.013  28.084  96.842  1.00  0.00     0.209 HD
ENDBRANCH  11  12
ENDBRANCH   1  11
BRANCH   2  14
HETATM   14  O2  UNL     1      41.699  26.035  99.571  1.00  0.00    -0.391 OA
ATOM     15  H2  UNL     1      41.525  26.757  98.979  1.00  0.00     0.210 HD
ENDBRANCH   2  14
BRANCH   3  16
HETATM   16  O3  UNL     1      42.408  24.055 101.263  1.00  0.00    -0.390 OA
ATOM     17  H3  UNL     1      42.063  24.911 101.486  1.00  0.00     0.210 HD
ENDBRANCH   3  16
BRANCH   4  18
HETATM   18  O4  UNL     1      45.096  24.381 100.996  1.00  0.00    -0.385 OA
ATOM     19  H4  UNL     1      45.138  25.291 100.726  1.00  0.00     0.210 HD
ENDBRANCH   4  18
TORSDOF 5
ENDMDL
