MODEL 11
REMARK VINA RESULT: -5.048955145      1.288      1.508
REMARK  5 active torsions:
REMARK  status: ('A' for Active; 'I' for Inactive)
REMARK    1  A    between atoms: O1_1  and  C1_3 
REMARK    2  A    between atoms: C1_3  and  C2_4 
REMARK    3  A    between atoms: C3_5  and  O2_6 
REMARK    4  A    between atoms: C4_8  and  O3_9 
REMARK    5  A    between atoms: C5_11  and  O4_12 
ROOT
HETATM    1  C2  UNL     1      44.298  22.627  99.699  1.00  0.00     0.145 C 
HETATM    2  C3  UNL     1      43.591  22.108 100.927  1.00  0.00     0.175 C 
HETATM    3  C4  UNL     1      43.956  23.115 102.028  1.00  0.00     0.185 C 
HETATM    4  C5  UNL     1      43.165  24.361 101.724  1.00  0.00     0.217 C 
HETATM    5  C6  UNL     1      43.145  24.631 100.279  1.00  0.00     0.115 A 
HETATM    6  N1  UNL     1      42.593  25.731  99.680  1.00  0.00    -0.352 N 
ATOM      7  H1  UNL     1      42.130  26.495 100.172  1.00  0.00     0.166 HD
HETATM    8  C7  UNL     1      42.751  25.657  98.358  1.00  0.00     0.106 A 
HETATM    9  C8  UNL     1      43.422  24.473  98.134  1.00  0.00     0.110 A 
HETATM   10  N2  UNL     1      43.659  23.853  99.318  1.00  0.00    -0.334 N 
ENDROOT
BRANCH   1  11
HETATM   11  C1  UNL     1      44.418  21.616  98.613  1.00  0.00     0.192 C 
BRANCH  11  12
HETATM   12  O1  UNL     1      43.311  20.783  98.650  1.00  0.00    -0.399 OA
ATOM     13  H1  UNL     1      42.595  21.240  99.077  1.00  0.00     0.209 HD
ENDBRANCH  11  12
ENDBRANCH   1  11
BRANCH   2  14
HETATM   14  O2  UNL     1      43.956  20.829 101.263  1.00  0.00    -0.391 OA
ATOM     15  H2  UNL     1      43.811  20.626 102.180  1.00  0.00     0.210 HD
ENDBRANCH   2  14
BRANCH   3  16
HETATM   16  O3  UNL     1      43.742  22.608 103.281  1.00  0.00    -0.390 OA
ATOM     17  H3  UNL     1      42.842  22.719 103.563  1.00  0.00     0.210 HD
ENDBRANCH   3  16
BRANCH   4  18
HETATM   18  O4  UNL     1      41.828  24.152 102.119  1.00  0.00    -0.385 OA
ATOM     19  H4  UNL     1      41.815  23.502 102.812  1.00  0.00     0.210 HD
ENDBRANCH   4  18
TORSDOF 5
ENDMDL
