MODEL 3
REMARK VINA RESULT: -9.601242067      0.962      1.019
REMARK  2 active torsions:
REMARK  status: ('A' for Active; 'I' for Inactive)
REMARK    1  A    between atoms: C3_3  and  C4_4 
REMARK    2  A    between atoms: C25_30  and  O4_31 
ROOT
HETATM    1  C1  UNL     1       0.949  29.622  -4.187  1.00  0.00     0.044 C 
HETATM    2  C2  UNL     1       1.510  28.267  -3.790  1.00  0.00    -0.070 C 
HETATM    3  C3  UNL     1       1.559  28.024  -2.520  1.00  0.00    -0.048 C 
HETATM    4  C9  UNL     1       2.113  26.688  -2.075  1.00  0.00     0.038 C 
HETATM    5  C10 UNL     1       3.113  26.224  -3.069  1.00  0.00     0.021 C 
HETATM    6  C11 UNL     1       2.509  26.069  -4.466  1.00  0.00     0.009 C 
HETATM    7  C12 UNL     1       1.423  25.003  -4.321  1.00  0.00     0.021 C 
HETATM    8  C13 UNL     1       2.003  23.789  -3.588  1.00  0.00     0.046 C 
HETATM    9  C14 UNL     1       3.217  23.281  -4.326  1.00  0.00     0.061 C 
HETATM   10  N1  UNL     1       3.824  24.237  -5.143  1.00  0.00    -0.375 N 
ATOM     11  H1  UNL     1       4.581  23.885  -5.729  1.00  0.00     0.164 HD
HETATM   12  C15 UNL     1       3.579  25.487  -5.271  1.00  0.00    -0.004 C 
HETATM   13  C16 UNL     1       4.465  26.208  -6.232  1.00  0.00     0.057 C 
HETATM   14  C17 UNL     1       4.244  25.617  -7.604  1.00  0.00     0.033 C 
HETATM   15  C18 UNL     1       5.420  25.797  -8.484  1.00  0.00    -0.021 C 
HETATM   16  C19 UNL     1       5.646  26.689  -9.390  1.00  0.00    -0.059 C 
HETATM   17  C20 UNL     1       6.960  26.631 -10.148  1.00  0.00     0.046 C 
HETATM   18  C21 UNL     1       4.727  27.771  -9.751  1.00  0.00     0.154 C 
HETATM   19  O3  UNL     1       3.388  27.428  -9.798  1.00  0.00    -0.376 OA
HETATM   20  C22 UNL     1       2.770  28.560 -10.281  1.00  0.00     0.122 C 
HETATM   21  C23 UNL     1       2.559  29.652  -9.269  1.00  0.00     0.035 C 
HETATM   22  C24 UNL     1       2.294  29.020  -7.868  1.00  0.00     0.039 C 
HETATM   23  C25 UNL     1       0.909  28.551  -7.903  1.00  0.00     0.146 C 
HETATM   24  C26 UNL     1       0.395  27.572  -6.959  1.00  0.00    -0.059 C 
HETATM   25  C27 UNL     1      -0.943  26.983  -7.509  1.00  0.00     0.046 C 
HETATM   26  C28 UNL     1       0.769  27.114  -5.826  1.00  0.00    -0.012 C 
HETATM   27  C29 UNL     1       1.930  27.373  -4.924  1.00  0.00     0.051 C 
HETATM   28  C30 UNL     1       3.657  29.009 -11.421  1.00  0.00     0.039 C 
HETATM   29  C31 UNL     1       4.949  28.261 -11.177  1.00  0.00     0.017 C 
HETATM   30  C32 UNL     1       6.120  29.208 -11.281  1.00  0.00     0.013 C 
ENDROOT
BRANCH   3  31
HETATM   31  C4  UNL     1       1.135  28.905  -1.409  1.00  0.00     0.162 C 
HETATM   32  C5  UNL     1       1.783  28.536  -0.096  1.00  0.00     0.051 C 
HETATM   33  C6  UNL     1       0.873  29.221   0.903  1.00  0.00     0.084 C 
HETATM   34  C7  UNL     1       0.472  28.287   2.023  1.00  0.00     0.020 C 
HETATM   35  C8  UNL     1      -0.362  29.524   0.131  1.00  0.00     0.263 C 
HETATM   36  O1  UNL     1      -1.314  30.213   0.588  1.00  0.00    -0.265 OA
HETATM   37  O2  UNL     1      -0.216  28.914  -1.107  1.00  0.00    -0.311 OA
ENDBRANCH   3  31
BRANCH  23  38
HETATM   38  O4  UNL     1       0.061  29.694  -7.889  1.00  0.00    -0.391 OA
ATOM     39  H4  UNL     1      -0.806  29.416  -8.158  1.00  0.00     0.210 HD
ENDBRANCH  23  38
TORSDOF 2
ENDMDL
