MODEL 1
REMARK VINA RESULT: -10.194519724      0.000      0.000
REMARK  2 active torsions:
REMARK  status: ('A' for Active; 'I' for Inactive)
REMARK    1  A    between atoms: C3_3  and  C4_4 
REMARK    2  A    between atoms: C25_30  and  O4_31 
ROOT
HETATM    1  C1  UNL     1       0.534  29.294  -3.357  1.00  0.00     0.044 C 
HETATM    2  C2  UNL     1       1.336  28.069  -2.954  1.00  0.00    -0.070 C 
HETATM    3  C3  UNL     1       1.536  27.914  -1.685  1.00  0.00    -0.048 C 
HETATM    4  C9  UNL     1       2.333  26.709  -1.235  1.00  0.00     0.038 C 
HETATM    5  C10 UNL     1       3.301  26.344  -2.300  1.00  0.00     0.021 C 
HETATM    6  C11 UNL     1       2.606  26.012  -3.622  1.00  0.00     0.009 C 
HETATM    7  C12 UNL     1       1.720  24.803  -3.322  1.00  0.00     0.021 C 
HETATM    8  C13 UNL     1       2.549  23.741  -2.593  1.00  0.00     0.046 C 
HETATM    9  C14 UNL     1       3.757  23.380  -3.422  1.00  0.00     0.061 C 
HETATM   10  N1  UNL     1       4.129  24.366  -4.338  1.00  0.00    -0.375 N 
ATOM     11  H1  UNL     1       4.877  24.099  -4.979  1.00  0.00     0.164 HD
HETATM   12  C15 UNL     1       3.679  25.554  -4.500  1.00  0.00    -0.004 C 
HETATM   13  C16 UNL     1       4.349  26.342  -5.576  1.00  0.00     0.057 C 
HETATM   14  C17 UNL     1       4.103  25.640  -6.890  1.00  0.00     0.033 C 
HETATM   15  C18 UNL     1       5.152  25.944  -7.889  1.00  0.00    -0.021 C 
HETATM   16  C19 UNL     1       5.151  26.803  -8.854  1.00  0.00    -0.059 C 
HETATM   17  C20 UNL     1       6.384  26.900  -9.733  1.00  0.00     0.046 C 
HETATM   18  C21 UNL     1       4.043  27.707  -9.173  1.00  0.00     0.154 C 
HETATM   19  O3  UNL     1       2.778  27.160  -9.072  1.00  0.00    -0.376 OA
HETATM   20  C22 UNL     1       1.947  28.152  -9.544  1.00  0.00     0.122 C 
HETATM   21  C23 UNL     1       1.657  29.259  -8.568  1.00  0.00     0.035 C 
HETATM   22  C24 UNL     1       1.622  28.681  -7.120  1.00  0.00     0.039 C 
HETATM   23  C25 UNL     1       0.332  28.004  -6.997  1.00  0.00     0.146 C 
HETATM   24  C26 UNL     1       0.066  27.017  -5.962  1.00  0.00    -0.059 C 
HETATM   25  C27 UNL     1      -1.206  26.198  -6.351  1.00  0.00     0.046 C 
HETATM   26  C28 UNL     1       0.608  26.693  -4.852  1.00  0.00    -0.012 C 
HETATM   27  C29 UNL     1       1.789  27.182  -4.081  1.00  0.00     0.051 C 
HETATM   28  C30 UNL     1       2.645  28.661 -10.786  1.00  0.00     0.039 C 
HETATM   29  C31 UNL     1       4.057  28.137 -10.635  1.00  0.00     0.017 C 
HETATM   30  C32 UNL     1       5.048  29.244 -10.897  1.00  0.00     0.013 C 
ENDROOT
BRANCH   3  31
HETATM   31  C4  UNL     1       1.079  28.787  -0.580  1.00  0.00     0.162 C 
HETATM   32  C5  UNL     1       2.029  28.782   0.594  1.00  0.00     0.051 C 
HETATM   33  C6  UNL     1       1.152  29.321   1.704  1.00  0.00     0.084 C 
HETATM   34  C7  UNL     1       1.245  28.469   2.952  1.00  0.00     0.020 C 
HETATM   35  C8  UNL     1      -0.234  29.177   1.185  1.00  0.00     0.263 C 
HETATM   36  O1  UNL     1      -1.248  29.637   1.776  1.00  0.00    -0.265 OA
HETATM   37  O2  UNL     1      -0.140  28.471  -0.006  1.00  0.00    -0.311 OA
ENDBRANCH   3  31
BRANCH  23  38
HETATM   38  O4  UNL     1      -0.682  29.002  -6.953  1.00  0.00    -0.391 OA
ATOM     39  H4  UNL     1      -1.057  29.074  -7.823  1.00  0.00     0.210 HD
ENDBRANCH  23  38
TORSDOF 2
ENDMDL
