MODEL 2
REMARK VINA RESULT: -9.707521160      2.228      8.861
REMARK  2 active torsions:
REMARK  status: ('A' for Active; 'I' for Inactive)
REMARK    1  A    between atoms: C3_3  and  C4_4 
REMARK    2  A    between atoms: C25_30  and  O4_31 
ROOT
HETATM    1  C1  UNL     1       4.855  25.847  -5.934  1.00  0.00     0.044 C 
HETATM    2  C2  UNL     1       3.645  26.507  -6.574  1.00  0.00    -0.070 C 
HETATM    3  C3  UNL     1       3.797  26.911  -7.794  1.00  0.00    -0.048 C 
HETATM    4  C9  UNL     1       2.621  27.577  -8.472  1.00  0.00     0.038 C 
HETATM    5  C10 UNL     1       1.795  28.263  -7.446  1.00  0.00     0.021 C 
HETATM    6  C11 UNL     1       1.271  27.293  -6.385  1.00  0.00     0.009 C 
HETATM    7  C12 UNL     1       0.393  26.299  -7.144  1.00  0.00     0.021 C 
HETATM    8  C13 UNL     1      -0.582  27.070  -8.040  1.00  0.00     0.046 C 
HETATM    9  C14 UNL     1      -1.389  28.033  -7.203  1.00  0.00     0.061 C 
HETATM   10  N1  UNL     1      -0.780  28.380  -5.995  1.00  0.00    -0.375 N 
ATOM     11  H1  UNL     1      -1.356  28.945  -5.370  1.00  0.00     0.164 HD
HETATM   12  C15 UNL     1       0.386  28.099  -5.549  1.00  0.00    -0.004 C 
HETATM   13  C16 UNL     1       0.705  28.675  -4.210  1.00  0.00     0.057 C 
HETATM   14  C17 UNL     1      -0.257  28.084  -3.207  1.00  0.00     0.033 C 
HETATM   15  C18 UNL     1      -0.450  28.966  -2.034  1.00  0.00    -0.021 C 
HETATM   16  C19 UNL     1       0.101  28.922  -0.867  1.00  0.00    -0.059 C 
HETATM   17  C20 UNL     1      -0.293  29.972   0.156  1.00  0.00     0.046 C 
HETATM   18  C21 UNL     1       1.092  27.930  -0.443  1.00  0.00     0.154 C 
HETATM   19  O3  UNL     1       0.861  26.635  -0.867  1.00  0.00    -0.376 OA
HETATM   20  C22 UNL     1       1.838  25.898  -0.235  1.00  0.00     0.122 C 
HETATM   21  C23 UNL     1       3.201  25.970  -0.868  1.00  0.00     0.035 C 
HETATM   22  C24 UNL     1       3.051  26.112  -2.414  1.00  0.00     0.039 C 
HETATM   23  C25 UNL     1       2.708  24.777  -2.901  1.00  0.00     0.146 C 
HETATM   24  C26 UNL     1       2.109  24.555  -4.208  1.00  0.00    -0.059 C 
HETATM   25  C27 UNL     1       1.491  23.120  -4.251  1.00  0.00     0.046 C 
HETATM   26  C28 UNL     1       1.990  25.234  -5.283  1.00  0.00    -0.012 C 
HETATM   27  C29 UNL     1       2.416  26.599  -5.711  1.00  0.00     0.051 C 
HETATM   28  C30 UNL     1       1.844  26.426   1.182  1.00  0.00     0.039 C 
HETATM   29  C31 UNL     1       1.104  27.741   1.070  1.00  0.00     0.017 C 
HETATM   30  C32 UNL     1       1.875  28.828   1.777  1.00  0.00     0.013 C 
ENDROOT
BRANCH   3  31
HETATM   31  C4  UNL     1       5.007  26.808  -8.640  1.00  0.00     0.162 C 
HETATM   32  C5  UNL     1       5.197  28.014  -9.530  1.00  0.00     0.051 C 
HETATM   33  C6  UNL     1       6.156  27.481 -10.574  1.00  0.00     0.084 C 
HETATM   34  C7  UNL     1       5.692  27.809 -11.976  1.00  0.00     0.020 C 
HETATM   35  C8  UNL     1       6.077  26.002 -10.429  1.00  0.00     0.263 C 
HETATM   36  O1  UNL     1       6.833  25.203 -11.046  1.00  0.00    -0.265 OA
HETATM   37  O2  UNL     1       5.054  25.746  -9.526  1.00  0.00    -0.311 OA
ENDBRANCH   3  31
BRANCH  23  38
HETATM   38  O4  UNL     1       3.866  23.958  -2.780  1.00  0.00    -0.391 OA
ATOM     39  H4  UNL     1       3.965  23.727  -1.864  1.00  0.00     0.210 HD
ENDBRANCH  23  38
TORSDOF 2
ENDMDL
