MODEL 14
REMARK VINA RESULT: -4.620473565      2.414      4.592
REMARK  4 active torsions:
REMARK  status: ('A' for Active; 'I' for Inactive)
REMARK    1  A    between atoms: N1_1  and  C1_5 
REMARK    2  A    between atoms: C5_10  and  O1_11 
REMARK    3  A    between atoms: C7_14  and  O2_15 
REMARK    4  A    between atoms: C8_17  and  O3_18 
ROOT
HETATM    1  C1  UNL     1      55.103  42.814  69.728  1.00  0.00     0.232 C 
HETATM    2  C2  UNL     1      54.206  41.649  69.290  1.00  0.00     0.153 C 
HETATM    3  N2  UNL     1      52.894  41.972  69.564  1.00  0.00    -0.401 N 
HETATM    4  C3  UNL     1      51.855  41.728  68.687  1.00  0.00     0.120 C 
HETATM    5  C4  UNL     1      50.785  42.723  69.163  1.00  0.00     0.053 C 
HETATM    6  C5  UNL     1      51.023  42.692  70.679  1.00  0.00     0.144 C 
HETATM    7  C6  UNL     1      52.493  42.356  70.839  1.00  0.00     0.139 C 
HETATM    8  C7  UNL     1      53.301  43.602  71.229  1.00  0.00     0.173 C 
HETATM    9  C8  UNL     1      54.767  43.152  71.162  1.00  0.00     0.181 C 
ENDROOT
BRANCH   1  10
HETATM   10  N1  UNL     1      56.487  42.460  69.609  1.00  0.00    -0.071 N 
ATOM     11  H13 UNL     1      57.059  43.260  69.337  1.00  0.00     0.274 HD
ATOM     12  H12 UNL     1      56.909  42.273  70.519  1.00  0.00     0.274 HD
ATOM     13  H11 UNL     1      56.605  41.675  68.969  1.00  0.00     0.274 HD
ENDBRANCH   1  10
BRANCH   9  14
HETATM   14  O3  UNL     1      55.606  44.114  71.667  1.00  0.00    -0.391 OA
ATOM     15  H3  UNL     1      56.287  44.348  71.047  1.00  0.00     0.210 HD
ENDBRANCH   9  14
BRANCH   8  16
HETATM   16  O2  UNL     1      52.957  44.044  72.480  1.00  0.00    -0.391 OA
ATOM     17  H2  UNL     1      52.968  44.993  72.524  1.00  0.00     0.210 HD
ENDBRANCH   8  16
BRANCH   6  18
HETATM   18  O1  UNL     1      50.684  43.878  71.282  1.00  0.00    -0.393 OA
ATOM     19  H1  UNL     1      50.652  44.599  70.662  1.00  0.00     0.210 HD
ENDBRANCH   6  18
TORSDOF 4
ENDMDL
