MODEL 8
REMARK VINA RESULT: -4.754883146      3.035      4.785
REMARK  4 active torsions:
REMARK  status: ('A' for Active; 'I' for Inactive)
REMARK    1  A    between atoms: N1_1  and  C1_5 
REMARK    2  A    between atoms: C5_10  and  O1_11 
REMARK    3  A    between atoms: C7_14  and  O2_15 
REMARK    4  A    between atoms: C8_17  and  O3_18 
ROOT
HETATM    1  C1  UNL     1      54.470  43.127  71.256  1.00  0.00     0.232 C 
HETATM    2  C2  UNL     1      53.780  44.008  70.206  1.00  0.00     0.153 C 
HETATM    3  N2  UNL     1      52.613  43.393  69.808  1.00  0.00    -0.401 N 
HETATM    4  C3  UNL     1      51.421  44.069  69.635  1.00  0.00     0.120 C 
HETATM    5  C4  UNL     1      50.384  42.943  69.758  1.00  0.00     0.053 C 
HETATM    6  C5  UNL     1      51.141  41.786  69.091  1.00  0.00     0.144 C 
HETATM    7  C6  UNL     1      52.607  42.087  69.331  1.00  0.00     0.139 C 
HETATM    8  C7  UNL     1      53.180  41.183  70.431  1.00  0.00     0.173 C 
HETATM    9  C8  UNL     1      54.591  41.731  70.691  1.00  0.00     0.181 C 
ENDROOT
BRANCH   1  10
HETATM   10  N1  UNL     1      55.765  43.648  71.583  1.00  0.00    -0.071 N 
ATOM     11  H13 UNL     1      56.318  43.837  70.747  1.00  0.00     0.274 HD
ATOM     12  H12 UNL     1      55.708  44.599  71.949  1.00  0.00     0.274 HD
ATOM     13  H11 UNL     1      56.252  43.024  72.226  1.00  0.00     0.274 HD
ENDBRANCH   1  10
BRANCH   9  14
HETATM   14  O3  UNL     1      55.300  40.904  71.526  1.00  0.00    -0.391 OA
ATOM     15  H3  UNL     1      55.730  40.205  71.048  1.00  0.00     0.210 HD
ENDBRANCH   9  14
BRANCH   8  16
HETATM   16  O2  UNL     1      53.205  39.872  70.033  1.00  0.00    -0.391 OA
ATOM     17  H2  UNL     1      53.291  39.288  70.778  1.00  0.00     0.210 HD
ENDBRANCH   8  16
BRANCH   6  18
HETATM   18  O1  UNL     1      50.765  40.563  69.590  1.00  0.00    -0.393 OA
ATOM     19  H1  UNL     1      50.019  40.201  69.127  1.00  0.00     0.210 HD
ENDBRANCH   6  18
TORSDOF 4
ENDMDL
