MODEL 16
REMARK VINA RESULT: -4.572558165      8.502      9.068
REMARK  4 active torsions:
REMARK  status: ('A' for Active; 'I' for Inactive)
REMARK    1  A    between atoms: N1_1  and  C1_5 
REMARK    2  A    between atoms: C5_10  and  O1_11 
REMARK    3  A    between atoms: C7_14  and  O2_15 
REMARK    4  A    between atoms: C8_17  and  O3_18 
ROOT
HETATM    1  C1  UNL     1      54.774  47.890  78.143  1.00  0.00     0.232 C 
HETATM    2  C2  UNL     1      55.322  48.767  77.010  1.00  0.00     0.153 C 
HETATM    3  N2  UNL     1      55.334  48.029  75.845  1.00  0.00    -0.401 N 
HETATM    4  C3  UNL     1      54.925  48.533  74.625  1.00  0.00     0.120 C 
HETATM    5  C4  UNL     1      54.596  47.255  73.837  1.00  0.00     0.053 C 
HETATM    6  C5  UNL     1      55.680  46.307  74.370  1.00  0.00     0.144 C 
HETATM    7  C6  UNL     1      55.976  46.798  75.773  1.00  0.00     0.139 C 
HETATM    8  C7  UNL     1      55.342  45.876  76.823  1.00  0.00     0.173 C 
HETATM    9  C8  UNL     1      55.559  46.599  78.160  1.00  0.00     0.181 C 
ENDROOT
BRANCH   1  10
HETATM   10  N1  UNL     1      54.890  48.561  79.405  1.00  0.00    -0.071 N 
ATOM     11  H13 UNL     1      55.865  48.711  79.664  1.00  0.00     0.274 HD
ATOM     12  H12 UNL     1      54.596  49.536  79.342  1.00  0.00     0.274 HD
ATOM     13  H11 UNL     1      54.380  48.058  80.130  1.00  0.00     0.274 HD
ENDBRANCH   1  10
BRANCH   9  14
HETATM   14  O3  UNL     1      55.205  45.802  79.220  1.00  0.00    -0.391 OA
ATOM     15  H3  UNL     1      55.251  44.880  78.998  1.00  0.00     0.210 HD
ENDBRANCH   9  14
BRANCH   8  16
HETATM   16  O2  UNL     1      55.924  44.635  76.810  1.00  0.00    -0.391 OA
ATOM     17  H2  UNL     1      55.598  44.110  76.089  1.00  0.00     0.210 HD
ENDBRANCH   8  16
BRANCH   6  18
HETATM   18  O1  UNL     1      55.278  44.994  74.344  1.00  0.00    -0.393 OA
ATOM     19  H1  UNL     1      55.995  44.396  74.520  1.00  0.00     0.210 HD
ENDBRANCH   6  18
TORSDOF 4
ENDMDL
