MODEL 1
REMARK VINA RESULT: -6.029298978      0.000      0.000
REMARK  4 active torsions:
REMARK  status: ('A' for Active; 'I' for Inactive)
REMARK    1  A    between atoms: N1_1  and  C1_5 
REMARK    2  A    between atoms: C5_10  and  O1_11 
REMARK    3  A    between atoms: C7_14  and  O2_15 
REMARK    4  A    between atoms: C8_17  and  O3_18 
ROOT
HETATM    1  C1  UNL     1      49.675  41.646  72.300  1.00  0.00     0.232 C 
HETATM    2  C2  UNL     1      50.540  40.718  71.437  1.00  0.00     0.153 C 
HETATM    3  N2  UNL     1      51.434  41.485  70.720  1.00  0.00    -0.401 N 
HETATM    4  C3  UNL     1      52.765  41.148  70.562  1.00  0.00     0.120 C 
HETATM    5  C4  UNL     1      53.408  42.501  70.223  1.00  0.00     0.053 C 
HETATM    6  C5  UNL     1      52.291  43.144  69.388  1.00  0.00     0.144 C 
HETATM    7  C6  UNL     1      51.007  42.533  69.913  1.00  0.00     0.139 C 
HETATM    8  C7  UNL     1      50.248  43.529  70.801  1.00  0.00     0.173 C 
HETATM    9  C8  UNL     1      49.094  42.715  71.403  1.00  0.00     0.181 C 
ENDROOT
BRANCH   1  10
HETATM   10  N1  UNL     1      48.627  40.909  72.942  1.00  0.00    -0.071 N 
ATOM     11  H13 UNL     1      48.560  39.957  72.583  1.00  0.00     0.274 HD
ATOM     12  H12 UNL     1      48.857  40.691  73.912  1.00  0.00     0.274 HD
ATOM     13  H11 UNL     1      47.739  41.405  72.866  1.00  0.00     0.274 HD
ENDBRANCH   1  10
BRANCH   9  14
HETATM   14  O3  UNL     1      48.215  43.523  72.080  1.00  0.00    -0.391 OA
ATOM     15  H3  UNL     1      47.427  43.054  72.329  1.00  0.00     0.210 HD
ENDBRANCH   9  14
BRANCH   8  16
HETATM   16  O2  UNL     1      49.795  44.598  70.072  1.00  0.00    -0.391 OA
ATOM     17  H2  UNL     1      48.957  44.408  69.668  1.00  0.00     0.210 HD
ENDBRANCH   8  16
BRANCH   6  18
HETATM   18  O1  UNL     1      52.299  44.514  69.478  1.00  0.00    -0.393 OA
ATOM     19  H1  UNL     1      52.146  44.930  68.638  1.00  0.00     0.210 HD
ENDBRANCH   6  18
TORSDOF 4
ENDMDL
