MODEL 14
REMARK VINA RESULT: -4.558834812      9.321     10.319
REMARK  5 active torsions:
REMARK  status: ('A' for Active; 'I' for Inactive)
REMARK    1  A    between atoms: N1_1  and  C1_5 
REMARK    2  A    between atoms: C1_5  and  C2_6 
REMARK    3  A    between atoms: C3_7  and  O1_8 
REMARK    4  A    between atoms: C4_10  and  O2_11 
REMARK    5  A    between atoms: C6_14  and  O3_15 
ROOT
HETATM    1  C2  UNL     1      55.329  46.279  77.050  1.00  0.00     0.279 C 
HETATM    2  C3  UNL     1      55.894  47.512  76.383  1.00  0.00     0.184 C 
HETATM    3  C4  UNL     1      55.898  48.508  77.517  1.00  0.00     0.185 C 
HETATM    4  C5  UNL     1      56.071  47.666  78.753  1.00  0.00     0.283 C 
HETATM    5  C6  UNL     1      55.085  48.080  79.848  1.00  0.00     0.155 C 
HETATM    6  C7  UNL     1      54.924  46.718  80.541  1.00  0.00     0.064 C 
HETATM    7  C8  UNL     1      54.709  45.861  79.310  1.00  0.00     0.276 C 
HETATM    8  N2  UNL     1      55.750  46.315  78.420  1.00  0.00     0.107 N 
ENDROOT
BRANCH   1   9
HETATM    9  C1  UNL     1      55.853  45.081  76.303  1.00  0.00     0.268 C 
BRANCH   9  10
HETATM   10  N1  UNL     1      56.831  45.411  75.305  1.00  0.00    -0.077 N 
ATOM     11  H13 UNL     1      56.392  45.871  74.508  1.00  0.00     0.274 HD
ATOM     12  H12 UNL     1      57.435  46.167  75.627  1.00  0.00     0.274 HD
ATOM     13  H11 UNL     1      57.386  44.612  74.999  1.00  0.00     0.274 HD
ENDBRANCH   9  10
ENDBRANCH   1   9
BRANCH   2  14
HETATM   14  O1  UNL     1      55.038  47.963  75.375  1.00  0.00    -0.391 OA
ATOM     15  H1  UNL     1      55.396  47.763  74.518  1.00  0.00     0.210 HD
ENDBRANCH   2  14
BRANCH   3  16
HETATM   16  O2  UNL     1      56.948  49.412  77.429  1.00  0.00    -0.391 OA
ATOM     17  H2  UNL     1      56.846  50.021  76.707  1.00  0.00     0.210 HD
ENDBRANCH   3  16
BRANCH   5  18
HETATM   18  O3  UNL     1      53.884  48.369  79.254  1.00  0.00    -0.393 OA
ATOM     19  H3  UNL     1      54.060  48.769  78.410  1.00  0.00     0.210 HD
ENDBRANCH   5  18
TORSDOF 5
ENDMDL
