MODEL 8
REMARK VINA RESULT: -4.844158334      2.167      3.635
REMARK  5 active torsions:
REMARK  status: ('A' for Active; 'I' for Inactive)
REMARK    1  A    between atoms: N1_1  and  C1_5 
REMARK    2  A    between atoms: C1_5  and  C2_6 
REMARK    3  A    between atoms: C3_7  and  O1_8 
REMARK    4  A    between atoms: C4_10  and  O2_11 
REMARK    5  A    between atoms: C6_14  and  O3_15 
ROOT
HETATM    1  C2  UNL     1      53.329  42.587  71.984  1.00  0.00     0.279 C 
HETATM    2  C3  UNL     1      54.231  41.779  71.079  1.00  0.00     0.184 C 
HETATM    3  C4  UNL     1      53.235  40.959  70.296  1.00  0.00     0.185 C 
HETATM    4  C5  UNL     1      51.998  41.817  70.249  1.00  0.00     0.283 C 
HETATM    5  C6  UNL     1      50.746  41.003  70.587  1.00  0.00     0.155 C 
HETATM    6  C7  UNL     1      49.903  42.125  71.213  1.00  0.00     0.064 C 
HETATM    7  C8  UNL     1      50.957  42.717  72.128  1.00  0.00     0.276 C 
HETATM    8  N2  UNL     1      52.110  42.813  71.266  1.00  0.00     0.107 N 
ENDROOT
BRANCH   1   9
HETATM    9  C1  UNL     1      54.057  43.860  72.328  1.00  0.00     0.268 C 
BRANCH   9  10
HETATM   10  N1  UNL     1      55.369  43.642  72.869  1.00  0.00    -0.077 N 
ATOM     11  H13 UNL     1      55.607  44.371  73.542  1.00  0.00     0.274 HD
ATOM     12  H12 UNL     1      55.374  42.831  73.487  1.00  0.00     0.274 HD
ATOM     13  H11 UNL     1      56.094  43.558  72.157  1.00  0.00     0.274 HD
ENDBRANCH   9  10
ENDBRANCH   1   9
BRANCH   2  14
HETATM   14  O1  UNL     1      55.045  40.927  71.827  1.00  0.00    -0.391 OA
ATOM     15  H1  UNL     1      55.463  40.284  71.266  1.00  0.00     0.210 HD
ENDBRANCH   2  14
BRANCH   3  16
HETATM   16  O2  UNL     1      53.660  40.699  69.000  1.00  0.00    -0.391 OA
ATOM     17  H2  UNL     1      52.940  40.510  68.411  1.00  0.00     0.210 HD
ENDBRANCH   3  16
BRANCH   5  18
HETATM   18  O3  UNL     1      51.063  40.132  71.596  1.00  0.00    -0.393 OA
ATOM     19  H3  UNL     1      51.617  39.450  71.236  1.00  0.00     0.210 HD
ENDBRANCH   5  18
TORSDOF 5
ENDMDL
