MODEL 9
REMARK VINA RESULT: -4.687386556      2.317      4.057
REMARK  5 active torsions:
REMARK  status: ('A' for Active; 'I' for Inactive)
REMARK    1  A    between atoms: N1_1  and  C1_5 
REMARK    2  A    between atoms: C1_5  and  C2_6 
REMARK    3  A    between atoms: C3_7  and  O1_8 
REMARK    4  A    between atoms: C4_10  and  O2_11 
REMARK    5  A    between atoms: C6_14  and  O3_15 
ROOT
HETATM    1  C2  UNL     1      53.703  41.708  70.973  1.00  0.00     0.279 C 
HETATM    2  C3  UNL     1      53.678  40.628  69.915  1.00  0.00     0.184 C 
HETATM    3  C4  UNL     1      52.220  40.238  69.900  1.00  0.00     0.185 C 
HETATM    4  C5  UNL     1      51.493  41.493  70.305  1.00  0.00     0.283 C 
HETATM    5  C6  UNL     1      50.429  41.200  71.365  1.00  0.00     0.155 C 
HETATM    6  C7  UNL     1      50.451  42.551  72.096  1.00  0.00     0.064 C 
HETATM    7  C8  UNL     1      51.952  42.706  72.239  1.00  0.00     0.276 C 
HETATM    8  N2  UNL     1      52.434  42.373  70.921  1.00  0.00     0.107 N 
ENDROOT
BRANCH   1   9
HETATM    9  C1  UNL     1      54.860  42.619  70.661  1.00  0.00     0.268 C 
BRANCH   9  10
HETATM   10  N1  UNL     1      56.122  42.126  71.137  1.00  0.00    -0.077 N 
ATOM     11  H13 UNL     1      56.275  42.405  72.106  1.00  0.00     0.274 HD
ATOM     12  H12 UNL     1      56.094  41.113  71.253  1.00  0.00     0.274 HD
ATOM     13  H11 UNL     1      56.912  42.400  70.554  1.00  0.00     0.274 HD
ENDBRANCH   9  10
ENDBRANCH   1   9
BRANCH   2  14
HETATM   14  O1  UNL     1      54.445  39.531  70.313  1.00  0.00    -0.391 OA
ATOM     15  H1  UNL     1      53.932  38.732  70.277  1.00  0.00     0.210 HD
ENDBRANCH   2  14
BRANCH   3  16
HETATM   16  O2  UNL     1      51.787  39.846  68.640  1.00  0.00    -0.391 OA
ATOM     17  H2  UNL     1      50.860  39.639  68.621  1.00  0.00     0.210 HD
ENDBRANCH   3  16
BRANCH   5  18
HETATM   18  O3  UNL     1      50.936  40.268  72.233  1.00  0.00    -0.393 OA
ATOM     19  H3  UNL     1      51.620  39.786  71.783  1.00  0.00     0.210 HD
ENDBRANCH   5  18
TORSDOF 5
ENDMDL
