MODEL 2
REMARK VINA RESULT: -5.496197210      1.980      2.828
REMARK  5 active torsions:
REMARK  status: ('A' for Active; 'I' for Inactive)
REMARK    1  A    between atoms: N1_1  and  C1_5 
REMARK    2  A    between atoms: C1_5  and  C2_6 
REMARK    3  A    between atoms: C3_7  and  O1_8 
REMARK    4  A    between atoms: C4_10  and  O2_11 
REMARK    5  A    between atoms: C6_14  and  O3_15 
ROOT
HETATM    1  C2  UNL     1      50.602  41.516  72.198  1.00  0.00     0.279 C 
HETATM    2  C3  UNL     1      49.452  42.494  72.114  1.00  0.00     0.184 C 
HETATM    3  C4  UNL     1      49.889  43.396  70.987  1.00  0.00     0.185 C 
HETATM    4  C5  UNL     1      50.739  42.515  70.109  1.00  0.00     0.283 C 
HETATM    5  C6  UNL     1      52.040  43.216  69.713  1.00  0.00     0.155 C 
HETATM    6  C7  UNL     1      52.938  41.977  69.576  1.00  0.00     0.064 C 
HETATM    7  C8  UNL     1      52.562  41.281  70.868  1.00  0.00     0.276 C 
HETATM    8  N2  UNL     1      51.122  41.368  70.870  1.00  0.00     0.107 N 
ENDROOT
BRANCH   1   9
HETATM    9  C1  UNL     1      50.062  40.231  72.766  1.00  0.00     0.268 C 
BRANCH   9  10
HETATM   10  N1  UNL     1      48.722  40.345  73.269  1.00  0.00    -0.077 N 
ATOM     11  H13 UNL     1      48.053  39.951  72.607  1.00  0.00     0.274 HD
ATOM     12  H12 UNL     1      48.576  39.711  74.055  1.00  0.00     0.274 HD
ATOM     13  H11 UNL     1      48.461  41.297  73.522  1.00  0.00     0.274 HD
ENDBRANCH   9  10
ENDBRANCH   1   9
BRANCH   2  14
HETATM   14  O1  UNL     1      49.352  43.239  73.290  1.00  0.00    -0.391 OA
ATOM     15  H1  UNL     1      49.987  43.947  73.294  1.00  0.00     0.210 HD
ENDBRANCH   2  14
BRANCH   3  16
HETATM   16  O2  UNL     1      48.819  43.881  70.247  1.00  0.00    -0.391 OA
ATOM     17  H2  UNL     1      49.081  44.542  69.616  1.00  0.00     0.210 HD
ENDBRANCH   3  16
BRANCH   5  18
HETATM   18  O3  UNL     1      52.494  43.920  70.798  1.00  0.00    -0.393 OA
ATOM     19  H3  UNL     1      51.868  43.811  71.505  1.00  0.00     0.210 HD
ENDBRANCH   5  18
TORSDOF 5
ENDMDL
