MODEL 10
REMARK VINA RESULT: -6.669309097      0.690      1.215
REMARK  5 active torsions:
REMARK  status: ('A' for Active; 'I' for Inactive)
REMARK    1  A    between atoms: N3_10  and  C6_11 
REMARK    2  A    between atoms: C6_11  and  C7_12 
REMARK    3  A    between atoms: C7_12  and  O2_13 
REMARK    4  A    between atoms: C7_12  and  C8_15 
REMARK    5  A    between atoms: C8_15  and  O3_16 
ROOT
HETATM    1  C1  UNL     1      36.833  42.555  22.268  1.00  0.00     0.164 C 
HETATM    2  N1  UNL     1      35.629  43.352  22.132  1.00  0.00    -0.269 N 
HETATM    3  C2  UNL     1      34.393  42.818  22.014  1.00  0.00     0.282 A 
HETATM    4  O1  UNL     1      34.318  41.585  22.030  1.00  0.00    -0.265 OA
HETATM    5  C3  UNL     1      33.240  43.551  21.883  1.00  0.00     0.149 A 
HETATM    6  C4  UNL     1      33.391  44.943  21.879  1.00  0.00     0.145 A 
HETATM    7  N2  UNL     1      32.161  45.486  21.756  1.00  0.00    -0.336 N 
ATOM      8  H2  UNL     1      31.940  46.482  21.722  1.00  0.00     0.168 HD
HETATM    9  C5  UNL     1      31.283  44.476  21.688  1.00  0.00     0.185 A 
HETATM   10  N3  UNL     1      31.931  43.293  21.763  1.00  0.00    -0.333 N 
HETATM   11  N4  UNL     1      34.622  45.460  21.997  1.00  0.00    -0.287 N 
HETATM   12  C9  UNL     1      34.750  46.903  21.987  1.00  0.00     0.163 C 
HETATM   13  C10 UNL     1      35.728  44.690  22.122  1.00  0.00     0.332 A 
HETATM   14  O4  UNL     1      36.870  45.233  22.230  1.00  0.00    -0.246 OA
ENDROOT
BRANCH  10  15
HETATM   15  C6  UNL     1      31.317  42.007  21.676  1.00  0.00     0.164 C 
BRANCH  15  16
HETATM   16  C7  UNL     1      29.954  41.878  22.233  1.00  0.00     0.160 C 
BRANCH  16  17
HETATM   17  O2  UNL     1      29.111  42.841  21.671  1.00  0.00    -0.392 OA
ATOM     18  H2  UNL     1      28.581  42.452  20.985  1.00  0.00     0.210 HD
ENDBRANCH  16  17
BRANCH  16  19
HETATM   19  C8  UNL     1      29.773  41.900  23.701  1.00  0.00     0.197 C 
BRANCH  19  20
HETATM   20  O3  UNL     1      29.582  43.144  24.273  1.00  0.00    -0.398 OA
ATOM     21  H3  UNL     1      28.852  43.221  24.875  1.00  0.00     0.209 HD
ENDBRANCH  19  20
ENDBRANCH  16  19
ENDBRANCH  15  16
ENDBRANCH  10  15
TORSDOF 5
ENDMDL
