MODEL 1
REMARK VINA RESULT: -7.810228746      0.000      0.000
REMARK  5 active torsions:
REMARK  status: ('A' for Active; 'I' for Inactive)
REMARK    1  A    between atoms: N3_10  and  C6_11 
REMARK    2  A    between atoms: C6_11  and  C7_12 
REMARK    3  A    between atoms: C7_12  and  O2_13 
REMARK    4  A    between atoms: C7_12  and  C8_15 
REMARK    5  A    between atoms: C8_15  and  O3_16 
ROOT
HETATM    1  C1  UNL     1      36.961  42.735  22.225  1.00  0.00     0.164 C 
HETATM    2  N1  UNL     1      35.735  43.509  22.202  1.00  0.00    -0.269 N 
HETATM    3  C2  UNL     1      34.504  42.955  22.246  1.00  0.00     0.282 A 
HETATM    4  O1  UNL     1      34.452  41.722  22.313  1.00  0.00    -0.265 OA
HETATM    5  C3  UNL     1      33.330  43.667  22.224  1.00  0.00     0.149 A 
HETATM    6  C4  UNL     1      33.454  45.060  22.154  1.00  0.00     0.145 A 
HETATM    7  N2  UNL     1      32.209  45.581  22.156  1.00  0.00    -0.336 N 
ATOM      8  H2  UNL     1      31.968  46.572  22.114  1.00  0.00     0.168 HD
HETATM    9  C5  UNL     1      31.347  44.557  22.225  1.00  0.00     0.185 A 
HETATM   10  N3  UNL     1      32.020  43.387  22.265  1.00  0.00    -0.333 N 
HETATM   11  N4  UNL     1      34.682  45.598  22.111  1.00  0.00    -0.287 N 
HETATM   12  C9  UNL     1      34.782  47.041  22.036  1.00  0.00     0.163 C 
HETATM   13  C10 UNL     1      35.808  44.848  22.134  1.00  0.00     0.332 A 
HETATM   14  O4  UNL     1      36.946  45.410  22.090  1.00  0.00    -0.246 OA
ENDROOT
BRANCH  10  15
HETATM   15  C6  UNL     1      31.424  42.090  22.294  1.00  0.00     0.164 C 
BRANCH  15  16
HETATM   16  C7  UNL     1      30.012  42.013  22.727  1.00  0.00     0.160 C 
BRANCH  16  17
HETATM   17  O2  UNL     1      29.937  41.994  24.123  1.00  0.00    -0.392 OA
ATOM     18  H2  UNL     1      30.483  42.679  24.489  1.00  0.00     0.210 HD
ENDBRANCH  16  17
BRANCH  16  19
HETATM   19  C8  UNL     1      29.159  40.926  22.199  1.00  0.00     0.197 C 
BRANCH  19  20
HETATM   20  O3  UNL     1      28.050  41.320  21.473  1.00  0.00    -0.398 OA
ATOM     21  H3  UNL     1      27.211  41.238  21.911  1.00  0.00     0.209 HD
ENDBRANCH  19  20
ENDBRANCH  16  19
ENDBRANCH  15  16
ENDBRANCH  10  15
TORSDOF 5
ENDMDL
