MODEL 5
REMARK VINA RESULT: -6.890929228      2.273      6.087
REMARK  5 active torsions:
REMARK  status: ('A' for Active; 'I' for Inactive)
REMARK    1  A    between atoms: N3_10  and  C6_11 
REMARK    2  A    between atoms: C6_11  and  C7_12 
REMARK    3  A    between atoms: C7_12  and  O2_13 
REMARK    4  A    between atoms: C7_12  and  C8_15 
REMARK    5  A    between atoms: C8_15  and  O3_16 
ROOT
HETATM    1  C1  UNL     1      29.680  41.714  23.682  1.00  0.00     0.164 C 
HETATM    2  N1  UNL     1      30.232  42.303  22.477  1.00  0.00    -0.269 N 
HETATM    3  C2  UNL     1      31.122  43.319  22.486  1.00  0.00     0.282 A 
HETATM    4  O1  UNL     1      31.466  43.746  23.594  1.00  0.00    -0.265 OA
HETATM    5  C3  UNL     1      31.657  43.893  21.359  1.00  0.00     0.149 A 
HETATM    6  C4  UNL     1      31.231  43.363  20.135  1.00  0.00     0.145 A 
HETATM    7  N2  UNL     1      31.869  44.038  19.155  1.00  0.00    -0.336 N 
ATOM      8  H2  UNL     1      31.769  43.883  18.151  1.00  0.00     0.168 HD
HETATM    9  C5  UNL     1      32.656  44.949  19.743  1.00  0.00     0.185 A 
HETATM   10  N3  UNL     1      32.533  44.870  21.086  1.00  0.00    -0.333 N 
HETATM   11  N4  UNL     1      30.349  42.354  20.140  1.00  0.00    -0.287 N 
HETATM   12  C9  UNL     1      29.924  41.825  18.860  1.00  0.00     0.163 C 
HETATM   13  C10 UNL     1      29.851  41.825  21.282  1.00  0.00     0.332 A 
HETATM   14  O4  UNL     1      29.016  40.870  21.228  1.00  0.00    -0.246 OA
ENDROOT
BRANCH  10  15
HETATM   15  C6  UNL     1      33.188  45.719  22.028  1.00  0.00     0.164 C 
BRANCH  15  16
HETATM   16  C7  UNL     1      34.466  46.328  21.603  1.00  0.00     0.160 C 
BRANCH  16  17
HETATM   17  O2  UNL     1      35.473  45.358  21.564  1.00  0.00    -0.392 OA
ATOM     18  H2  UNL     1      36.325  45.773  21.517  1.00  0.00     0.210 HD
ENDBRANCH  16  17
BRANCH  16  19
HETATM   19  C8  UNL     1      34.980  47.503  22.339  1.00  0.00     0.197 C 
BRANCH  19  20
HETATM   20  O3  UNL     1      35.622  48.465  21.581  1.00  0.00    -0.398 OA
ATOM     21  H3  UNL     1      36.250  49.011  22.041  1.00  0.00     0.209 HD
ENDBRANCH  19  20
ENDBRANCH  16  19
ENDBRANCH  15  16
ENDBRANCH  10  15
TORSDOF 5
ENDMDL
