MODEL 4
REMARK VINA RESULT: -6.902739542      1.118      1.312
REMARK  5 active torsions:
REMARK  status: ('A' for Active; 'I' for Inactive)
REMARK    1  A    between atoms: N3_10  and  C6_11 
REMARK    2  A    between atoms: C6_11  and  C7_12 
REMARK    3  A    between atoms: C7_12  and  O2_13 
REMARK    4  A    between atoms: C7_12  and  C8_15 
REMARK    5  A    between atoms: C8_15  and  O3_16 
ROOT
HETATM    1  C1  UNL     1      36.970  42.697  22.190  1.00  0.00     0.164 C 
HETATM    2  N1  UNL     1      35.763  43.502  22.177  1.00  0.00    -0.269 N 
HETATM    3  C2  UNL     1      34.518  42.978  22.198  1.00  0.00     0.282 A 
HETATM    4  O1  UNL     1      34.436  41.745  22.233  1.00  0.00    -0.265 OA
HETATM    5  C3  UNL     1      33.363  43.719  22.185  1.00  0.00     0.149 A 
HETATM    6  C4  UNL     1      33.522  45.109  22.151  1.00  0.00     0.145 A 
HETATM    7  N2  UNL     1      32.290  45.661  22.156  1.00  0.00    -0.336 N 
ATOM      8  H2  UNL     1      32.073  46.658  22.137  1.00  0.00     0.168 HD
HETATM    9  C5  UNL     1      31.403  44.657  22.193  1.00  0.00     0.185 A 
HETATM   10  N3  UNL     1      32.046  43.470  22.209  1.00  0.00    -0.333 N 
HETATM   11  N4  UNL     1      34.762  45.617  22.131  1.00  0.00    -0.287 N 
HETATM   12  C9  UNL     1      34.899  47.059  22.093  1.00  0.00     0.163 C 
HETATM   13  C10 UNL     1      35.870  44.840  22.143  1.00  0.00     0.332 A 
HETATM   14  O4  UNL     1      37.021  45.374  22.123  1.00  0.00    -0.246 OA
ENDROOT
BRANCH  10  15
HETATM   15  C6  UNL     1      31.418  42.188  22.201  1.00  0.00     0.164 C 
BRANCH  15  16
HETATM   16  C7  UNL     1      30.367  41.966  21.185  1.00  0.00     0.160 C 
BRANCH  16  17
HETATM   17  O2  UNL     1      29.681  40.777  21.454  1.00  0.00    -0.392 OA
ATOM     18  H2  UNL     1      28.978  40.656  20.828  1.00  0.00     0.210 HD
ENDBRANCH  16  17
BRANCH  16  19
HETATM   19  C8  UNL     1      30.739  41.974  19.753  1.00  0.00     0.197 C 
BRANCH  19  20
HETATM   20  O3  UNL     1      29.694  42.057  18.852  1.00  0.00    -0.398 OA
ATOM     21  H3  UNL     1      29.693  41.415  18.152  1.00  0.00     0.209 HD
ENDBRANCH  19  20
ENDBRANCH  16  19
ENDBRANCH  15  16
ENDBRANCH  10  15
TORSDOF 5
ENDMDL
