MODEL 7
REMARK VINA RESULT: -6.832044588      1.245      1.499
REMARK  5 active torsions:
REMARK  status: ('A' for Active; 'I' for Inactive)
REMARK    1  A    between atoms: N3_10  and  C6_11 
REMARK    2  A    between atoms: C6_11  and  C7_12 
REMARK    3  A    between atoms: C7_12  and  O2_13 
REMARK    4  A    between atoms: C7_12  and  C8_15 
REMARK    5  A    between atoms: C8_15  and  O3_16 
ROOT
HETATM    1  C1  UNL     1      37.226  42.329  22.472  1.00  0.00     0.164 C 
HETATM    2  N1  UNL     1      36.183  43.309  22.239  1.00  0.00    -0.269 N 
HETATM    3  C2  UNL     1      34.895  42.982  21.994  1.00  0.00     0.282 A 
HETATM    4  O1  UNL     1      34.623  41.777  21.977  1.00  0.00    -0.265 OA
HETATM    5  C3  UNL     1      33.892  43.892  21.769  1.00  0.00     0.149 A 
HETATM    6  C4  UNL     1      34.263  45.241  21.807  1.00  0.00     0.145 A 
HETATM    7  N2  UNL     1      33.153  45.976  21.580  1.00  0.00    -0.336 N 
ATOM      8  H2  UNL     1      33.098  46.994  21.545  1.00  0.00     0.168 HD
HETATM    9  C5  UNL     1      32.136  45.120  21.408  1.00  0.00     0.185 A 
HETATM   10  N3  UNL     1      32.576  43.848  21.520  1.00  0.00    -0.333 N 
HETATM   11  N4  UNL     1      35.543  45.553  22.052  1.00  0.00    -0.287 N 
HETATM   12  C9  UNL     1      35.900  46.957  22.084  1.00  0.00     0.163 C 
HETATM   13  C10 UNL     1      36.495  44.615  22.266  1.00  0.00     0.332 A 
HETATM   14  O4  UNL     1      37.693  44.966  22.493  1.00  0.00    -0.246 OA
ENDROOT
BRANCH  10  15
HETATM   15  C6  UNL     1      31.777  42.678  21.349  1.00  0.00     0.164 C 
BRANCH  15  16
HETATM   16  C7  UNL     1      31.064  42.175  22.543  1.00  0.00     0.160 C 
BRANCH  16  17
HETATM   17  O2  UNL     1      30.661  40.851  22.340  1.00  0.00    -0.392 OA
ATOM     18  H2  UNL     1      30.748  40.356  23.146  1.00  0.00     0.210 HD
ENDBRANCH  16  17
BRANCH  16  19
HETATM   19  C8  UNL     1      29.909  42.938  23.063  1.00  0.00     0.197 C 
BRANCH  19  20
HETATM   20  O3  UNL     1      30.198  43.928  23.984  1.00  0.00    -0.398 OA
ATOM     21  H3  UNL     1      30.309  44.805  23.636  1.00  0.00     0.209 HD
ENDBRANCH  19  20
ENDBRANCH  16  19
ENDBRANCH  15  16
ENDBRANCH  10  15
TORSDOF 5
ENDMDL
