MODEL 3
REMARK VINA RESULT: -6.996326578      2.392      5.684
REMARK  5 active torsions:
REMARK  status: ('A' for Active; 'I' for Inactive)
REMARK    1  A    between atoms: N3_10  and  C6_11 
REMARK    2  A    between atoms: C6_11  and  C7_12 
REMARK    3  A    between atoms: C7_12  and  O2_13 
REMARK    4  A    between atoms: C7_12  and  C8_15 
REMARK    5  A    between atoms: C8_15  and  O3_16 
ROOT
HETATM    1  C1  UNL     1      29.647  41.796  23.639  1.00  0.00     0.164 C 
HETATM    2  N1  UNL     1      30.370  42.210  22.452  1.00  0.00    -0.269 N 
HETATM    3  C2  UNL     1      31.507  42.939  22.490  1.00  0.00     0.282 A 
HETATM    4  O1  UNL     1      31.929  43.251  23.609  1.00  0.00    -0.265 OA
HETATM    5  C3  UNL     1      32.207  43.344  21.381  1.00  0.00     0.149 A 
HETATM    6  C4  UNL     1      31.682  42.955  20.143  1.00  0.00     0.145 A 
HETATM    7  N2  UNL     1      32.505  43.429  19.183  1.00  0.00    -0.336 N 
ATOM      8  H2  UNL     1      32.391  43.310  18.176  1.00  0.00     0.168 HD
HETATM    9  C5  UNL     1      33.499  44.084  19.798  1.00  0.00     0.185 A 
HETATM   10  N3  UNL     1      33.327  44.039  21.137  1.00  0.00    -0.333 N 
HETATM   11  N4  UNL     1      30.553  42.231  20.119  1.00  0.00    -0.287 N 
HETATM   12  C9  UNL     1      30.030  41.843  18.825  1.00  0.00     0.163 C 
HETATM   13  C10 UNL     1      29.901  41.859  21.245  1.00  0.00     0.332 A 
HETATM   14  O4  UNL     1      28.835  41.174  21.164  1.00  0.00    -0.246 OA
ENDROOT
BRANCH  10  15
HETATM   15  C6  UNL     1      34.169  44.670  22.101  1.00  0.00     0.164 C 
BRANCH  15  16
HETATM   16  C7  UNL     1      33.824  46.057  22.484  1.00  0.00     0.160 C 
BRANCH  16  17
HETATM   17  O2  UNL     1      32.437  46.229  22.471  1.00  0.00    -0.392 OA
ATOM     18  H2  UNL     1      32.219  47.144  22.603  1.00  0.00     0.210 HD
ENDBRANCH  16  17
BRANCH  16  19
HETATM   19  C8  UNL     1      34.440  47.179  21.744  1.00  0.00     0.197 C 
BRANCH  19  20
HETATM   20  O3  UNL     1      33.756  47.621  20.626  1.00  0.00    -0.398 OA
ATOM     21  H3  UNL     1      34.155  48.338  20.148  1.00  0.00     0.209 HD
ENDBRANCH  19  20
ENDBRANCH  16  19
ENDBRANCH  15  16
ENDBRANCH  10  15
TORSDOF 5
ENDMDL
