MODEL 13
REMARK VINA RESULT: -8.486119090      1.336      1.538
REMARK  1 active torsions:
REMARK  status: ('A' for Active; 'I' for Inactive)
REMARK    1  A    between atoms: C6_6  and  C7_7 
ROOT
HETATM    1  C7  UNL     1      -3.618   9.100   6.412  1.00  0.00     0.048 C 
HETATM    2  C8  UNL     1      -2.546   9.716   5.983  1.00  0.00     0.047 A 
HETATM    3  C9  UNL     1      -2.401  10.966   5.259  1.00  0.00     0.257 A 
HETATM    4  O1  UNL     1      -3.341  11.745   4.916  1.00  0.00    -0.267 OA
HETATM    5  N1  UNL     1      -1.004  11.174   4.998  1.00  0.00    -0.322 N 
ATOM      6  H1  UNL     1      -0.600  11.970   4.505  1.00  0.00     0.169 HD
HETATM    7  C10 UNL     1      -0.282  10.084   5.543  1.00  0.00     0.046 A 
HETATM    8  C11 UNL     1       1.068   9.799   5.568  1.00  0.00     0.030 A 
HETATM    9  C12 UNL     1       1.569   8.661   6.164  1.00  0.00     0.002 A 
HETATM   10  C13 UNL     1       0.644   7.813   6.739  1.00  0.00     0.001 A 
HETATM   11  C14 UNL     1      -0.698   8.049   6.741  1.00  0.00     0.015 A 
HETATM   12  C15 UNL     1      -1.158   9.208   6.130  1.00  0.00     0.006 A 
ENDROOT
BRANCH   1  13
HETATM   13  C6  UNL     1      -4.991   9.535   6.255  1.00  0.00     0.039 A 
HETATM   14  C4  UNL     1      -6.044   8.742   5.920  1.00  0.00    -0.033 A 
HETATM   15  C3  UNL     1      -7.164   9.572   5.841  1.00  0.00     0.033 A 
HETATM   16  C5  UNL     1      -6.168   7.278   5.689  1.00  0.00     0.050 C 
HETATM   17  C2  UNL     1      -6.783  10.857   6.130  1.00  0.00     0.006 A 
HETATM   18  C1  UNL     1      -7.625  12.102   6.177  1.00  0.00     0.068 C 
HETATM   19  N2  UNL     1      -5.467  10.813   6.377  1.00  0.00    -0.359 N 
ATOM     20  H2  UNL     1      -4.896  11.623   6.622  1.00  0.00     0.166 HD
ENDBRANCH   1  13
TORSDOF 1
ENDMDL
