MODEL 1
REMARK VINA RESULT: -9.570183148      0.000      0.000
REMARK  1 active torsions:
REMARK  status: ('A' for Active; 'I' for Inactive)
REMARK    1  A    between atoms: C6_6  and  C7_7 
ROOT
HETATM    1  C7  UNL     1      -3.108   9.977   6.063  1.00  0.00     0.048 C 
HETATM    2  C8  UNL     1      -1.865  10.235   5.747  1.00  0.00     0.047 A 
HETATM    3  C9  UNL     1      -1.280  11.381   5.071  1.00  0.00     0.257 A 
HETATM    4  O1  UNL     1      -1.902  12.409   4.669  1.00  0.00    -0.267 OA
HETATM    5  N1  UNL     1       0.132  11.150   4.940  1.00  0.00    -0.322 N 
ATOM      6  H1  UNL     1       0.803  11.784   4.506  1.00  0.00     0.169 HD
HETATM    7  C10 UNL     1       0.434   9.892   5.517  1.00  0.00     0.046 A 
HETATM    8  C11 UNL     1       1.624   9.208   5.652  1.00  0.00     0.030 A 
HETATM    9  C12 UNL     1       1.698   7.972   6.259  1.00  0.00     0.002 A 
HETATM   10  C13 UNL     1       0.510   7.448   6.728  1.00  0.00     0.001 A 
HETATM   11  C14 UNL     1      -0.690   8.084   6.619  1.00  0.00     0.015 A 
HETATM   12  C15 UNL     1      -0.717   9.327   6.001  1.00  0.00     0.006 A 
ENDROOT
BRANCH   1  13
HETATM   13  C6  UNL     1      -4.263  10.811   5.798  1.00  0.00     0.039 A 
HETATM   14  C4  UNL     1      -5.562  10.456   5.985  1.00  0.00    -0.033 A 
HETATM   15  C3  UNL     1      -6.340  11.538   5.569  1.00  0.00     0.033 A 
HETATM   16  C5  UNL     1      -6.201   9.234   6.543  1.00  0.00     0.050 C 
HETATM   17  C2  UNL     1      -5.509  12.539   5.135  1.00  0.00     0.006 A 
HETATM   18  C1  UNL     1      -5.869  13.894   4.595  1.00  0.00     0.068 C 
HETATM   19  N2  UNL     1      -4.259  12.080   5.281  1.00  0.00    -0.359 N 
ATOM     20  H2  UNL     1      -3.418  12.604   5.040  1.00  0.00     0.166 HD
ENDBRANCH   1  13
TORSDOF 1
ENDMDL
