MODEL 3
REMARK VINA RESULT: -9.152249406      3.669      6.590
REMARK  1 active torsions:
REMARK  status: ('A' for Active; 'I' for Inactive)
REMARK    1  A    between atoms: C6_6  and  C7_7 
ROOT
HETATM    1  C7  UNL     1      -2.146   6.577   7.139  1.00  0.00     0.048 C 
HETATM    2  C8  UNL     1      -1.379   7.538   6.693  1.00  0.00     0.047 A 
HETATM    3  C9  UNL     1       0.060   7.585   6.499  1.00  0.00     0.257 A 
HETATM    4  O1  UNL     1       0.875   6.638   6.713  1.00  0.00    -0.267 OA
HETATM    5  N1  UNL     1       0.404   8.893   6.015  1.00  0.00    -0.322 N 
ATOM      6  H1  UNL     1       1.344   9.218   5.789  1.00  0.00     0.169 HD
HETATM    7  C10 UNL     1      -0.785   9.655   5.905  1.00  0.00     0.046 A 
HETATM    8  C11 UNL     1      -1.007  10.953   5.495  1.00  0.00     0.030 A 
HETATM    9  C12 UNL     1      -2.268  11.509   5.462  1.00  0.00     0.002 A 
HETATM   10  C13 UNL     1      -3.307  10.695   5.866  1.00  0.00     0.001 A 
HETATM   11  C14 UNL     1      -3.140   9.408   6.280  1.00  0.00     0.015 A 
HETATM   12  C15 UNL     1      -1.852   8.889   6.296  1.00  0.00     0.006 A 
ENDROOT
BRANCH   1  13
HETATM   13  C6  UNL     1      -1.725   5.261   7.578  1.00  0.00     0.039 A 
HETATM   14  C4  UNL     1      -1.552   4.174   6.780  1.00  0.00    -0.033 A 
HETATM   15  C3  UNL     1      -1.183   3.117   7.614  1.00  0.00     0.033 A 
HETATM   16  C5  UNL     1      -1.651   3.979   5.309  1.00  0.00     0.050 C 
HETATM   17  C2  UNL     1      -1.133   3.571   8.907  1.00  0.00     0.006 A 
HETATM   18  C1  UNL     1      -0.785   2.815  10.159  1.00  0.00     0.068 C 
HETATM   19  N2  UNL     1      -1.464   4.868   8.864  1.00  0.00    -0.359 N 
ATOM     20  H2  UNL     1      -1.516   5.481   9.678  1.00  0.00     0.166 HD
ENDBRANCH   1  13
TORSDOF 1
ENDMDL
