MODEL 2
REMARK VINA RESULT: -9.171791762      1.260      5.920
REMARK  1 active torsions:
REMARK  status: ('A' for Active; 'I' for Inactive)
REMARK    1  A    between atoms: C6_6  and  C7_7 
ROOT
HETATM    1  C7  UNL     1      -2.906   9.074   6.326  1.00  0.00     0.048 C 
HETATM    2  C8  UNL     1      -3.158  10.221   5.750  1.00  0.00     0.047 A 
HETATM    3  C9  UNL     1      -2.279  11.139   5.048  1.00  0.00     0.257 A 
HETATM    4  O1  UNL     1      -1.041  10.971   4.831  1.00  0.00    -0.267 OA
HETATM    5  N1  UNL     1      -3.055  12.275   4.635  1.00  0.00    -0.322 N 
ATOM      6  H1  UNL     1      -2.704  13.084   4.121  1.00  0.00     0.169 HD
HETATM    7  C10 UNL     1      -4.391  12.083   5.064  1.00  0.00     0.046 A 
HETATM    8  C11 UNL     1      -5.520  12.863   4.925  1.00  0.00     0.030 A 
HETATM    9  C12 UNL     1      -6.746  12.480   5.426  1.00  0.00     0.002 A 
HETATM   10  C13 UNL     1      -6.788  11.265   6.080  1.00  0.00     0.001 A 
HETATM   11  C14 UNL     1      -5.702  10.458   6.244  1.00  0.00     0.015 A 
HETATM   12  C15 UNL     1      -4.487  10.884   5.722  1.00  0.00     0.006 A 
ENDROOT
BRANCH   1  13
HETATM   13  C6  UNL     1      -1.621   8.410   6.415  1.00  0.00     0.039 A 
HETATM   14  C4  UNL     1      -1.424   7.080   6.617  1.00  0.00    -0.033 A 
HETATM   15  C3  UNL     1      -0.043   6.881   6.674  1.00  0.00     0.033 A 
HETATM   16  C5  UNL     1      -2.360   5.930   6.735  1.00  0.00     0.050 C 
HETATM   17  C2  UNL     1       0.584   8.089   6.504  1.00  0.00     0.006 A 
HETATM   18  C1  UNL     1       2.057   8.391   6.486  1.00  0.00     0.068 C 
HETATM   19  N2  UNL     1      -0.386   8.999   6.350  1.00  0.00    -0.359 N 
ATOM     20  H2  UNL     1      -0.227   9.997   6.204  1.00  0.00     0.166 HD
ENDBRANCH   1  13
TORSDOF 1
ENDMDL
