MODEL 4
REMARK VINA RESULT: -9.088411154      3.497      6.570
REMARK  1 active torsions:
REMARK  status: ('A' for Active; 'I' for Inactive)
REMARK    1  A    between atoms: C6_6  and  C7_7 
ROOT
HETATM    1  C7  UNL     1      -0.782   6.941   6.627  1.00  0.00     0.048 C 
HETATM    2  C8  UNL     1      -1.723   7.850   6.614  1.00  0.00     0.047 A 
HETATM    3  C9  UNL     1      -3.112   7.779   7.033  1.00  0.00     0.257 A 
HETATM    4  O1  UNL     1      -3.689   6.773   7.543  1.00  0.00    -0.267 OA
HETATM    5  N1  UNL     1      -3.723   9.053   6.773  1.00  0.00    -0.322 N 
ATOM      6  H1  UNL     1      -4.694   9.300   6.965  1.00  0.00     0.169 HD
HETATM    7  C10 UNL     1      -2.748   9.909   6.204  1.00  0.00     0.046 A 
HETATM    8  C11 UNL     1      -2.815  11.219   5.777  1.00  0.00     0.030 A 
HETATM    9  C12 UNL     1      -1.726  11.876   5.246  1.00  0.00     0.002 A 
HETATM   10  C13 UNL     1      -0.555  11.150   5.159  1.00  0.00     0.001 A 
HETATM   11  C14 UNL     1      -0.437   9.856   5.566  1.00  0.00     0.015 A 
HETATM   12  C15 UNL     1      -1.560   9.233   6.097  1.00  0.00     0.006 A 
ENDROOT
BRANCH   1  13
HETATM   13  C6  UNL     1      -0.906   5.570   7.081  1.00  0.00     0.039 A 
HETATM   14  C4  UNL     1      -1.364   4.525   6.342  1.00  0.00    -0.033 A 
HETATM   15  C3  UNL     1      -1.352   3.405   7.176  1.00  0.00     0.033 A 
HETATM   16  C5  UNL     1      -1.793   4.407   4.923  1.00  0.00     0.050 C 
HETATM   17  C2  UNL     1      -0.885   3.779   8.411  1.00  0.00     0.006 A 
HETATM   18  C1  UNL     1      -0.688   2.935   9.639  1.00  0.00     0.068 C 
HETATM   19  N2  UNL     1      -0.622   5.090   8.332  1.00  0.00    -0.359 N 
ATOM     20  H2  UNL     1      -0.259   5.655   9.101  1.00  0.00     0.166 HD
ENDBRANCH   1  13
TORSDOF 1
ENDMDL
