MODEL 12
REMARK VINA RESULT: -8.016636029      3.059      5.392
REMARK  9 active torsions:
REMARK  status: ('A' for Active; 'I' for Inactive)
REMARK    1  A    between atoms: C2_2  and  C3_3 
REMARK    2  A    between atoms: C3_3  and  C5_5 
REMARK    3  A    between atoms: C5_5  and  S1_6 
REMARK    4  A    between atoms: C5_5  and  C9_16 
REMARK    5  A    between atoms: C5_5  and  C15_22 
REMARK    6  A    between atoms: S1_6  and  C6_7 
REMARK    7  A    between atoms: C6_7  and  C7_8 
REMARK    8  A    between atoms: C7_8  and  N1_9 
REMARK    9  A    between atoms: C7_8  and  C8_13 
ROOT
HETATM    1  C5  UNL     1      54.467  12.017   0.386  1.00  0.00     0.065 C 
ENDROOT
BRANCH   1   2
HETATM    2  C3  UNL     1      55.312  12.998  -0.314  1.00  0.00     0.009 C 
HETATM    3  C4  UNL     1      56.768  12.935  -0.103  1.00  0.00     0.012 C 
BRANCH   2   4
HETATM    4  C2  UNL     1      54.726  14.398  -0.378  1.00  0.00     0.002 C 
HETATM    5  C1  UNL     1      55.884  15.371  -0.317  1.00  0.00     0.005 C 
ENDBRANCH   2   4
ENDBRANCH   1   2
BRANCH   1   6
HETATM    6  S1  UNL     1      54.698  11.516   2.005  1.00  0.00    -0.146 SA
BRANCH   6   7
HETATM    7  C6  UNL     1      55.922  10.800   2.896  1.00  0.00     0.119 C 
BRANCH   7   8
HETATM    8  C7  UNL     1      55.881  10.955   4.391  1.00  0.00     0.292 C 
BRANCH   8   9
HETATM    9  N1  UNL     1      54.761  11.732   4.842  1.00  0.00    -0.065 N 
ATOM     10  H13 UNL     1      54.492  12.424   4.143  1.00  0.00     0.275 HD
ATOM     11  H12 UNL     1      53.909  11.171   4.856  1.00  0.00     0.275 HD
ATOM     12  H11 UNL     1      54.922  12.172   5.748  1.00  0.00     0.275 HD
ENDBRANCH   8   9
BRANCH   8  13
HETATM   13  C8  UNL     1      57.168  11.463   4.937  1.00  0.00     0.205 C 
HETATM   14  O1  UNL     1      57.153  12.056   6.021  1.00  0.00    -0.646 OA
HETATM   15  O2  UNL     1      58.323  11.243   4.198  1.00  0.00    -0.646 OA
ENDBRANCH   8  13
ENDBRANCH   7   8
ENDBRANCH   6   7
ENDBRANCH   1   6
BRANCH   1  16
HETATM   16  C9  UNL     1      54.432  10.772  -0.486  1.00  0.00    -0.035 A 
HETATM   17  C10 UNL     1      54.401   9.522   0.146  1.00  0.00     0.009 A 
HETATM   18  C11 UNL     1      54.360   8.342  -0.548  1.00  0.00     0.001 A 
HETATM   19  C12 UNL     1      54.349   8.386  -1.925  1.00  0.00     0.000 A 
HETATM   20  C13 UNL     1      54.379   9.617  -2.578  1.00  0.00     0.001 A 
HETATM   21  C14 UNL     1      54.420  10.803  -1.835  1.00  0.00     0.009 A 
ENDBRANCH   1  16
BRANCH   1  22
HETATM   22  C15 UNL     1      53.007  12.486   0.327  1.00  0.00    -0.035 A 
HETATM   23  C16 UNL     1      52.259  12.396  -0.798  1.00  0.00     0.009 A 
HETATM   24  C17 UNL     1      50.931  12.839  -0.857  1.00  0.00     0.001 A 
HETATM   25  C18 UNL     1      50.389  13.382   0.291  1.00  0.00     0.000 A 
HETATM   26  C19 UNL     1      51.143  13.475   1.435  1.00  0.00     0.001 A 
HETATM   27  C20 UNL     1      52.472  13.021   1.456  1.00  0.00     0.009 A 
ENDBRANCH   1  22
TORSDOF 9
ENDMDL
