MODEL 1
REMARK VINA RESULT: -9.164999346      0.000      0.000
REMARK  9 active torsions:
REMARK  status: ('A' for Active; 'I' for Inactive)
REMARK    1  A    between atoms: C2_2  and  C3_3 
REMARK    2  A    between atoms: C3_3  and  C5_5 
REMARK    3  A    between atoms: C5_5  and  S1_6 
REMARK    4  A    between atoms: C5_5  and  C9_16 
REMARK    5  A    between atoms: C5_5  and  C15_22 
REMARK    6  A    between atoms: S1_6  and  C6_7 
REMARK    7  A    between atoms: C6_7  and  C7_8 
REMARK    8  A    between atoms: C7_8  and  N1_9 
REMARK    9  A    between atoms: C7_8  and  C8_13 
ROOT
HETATM    1  C5  UNL     1      54.955  12.163   1.341  1.00  0.00     0.065 C 
ENDROOT
BRANCH   1   2
HETATM    2  C3  UNL     1      55.645  13.132   0.475  1.00  0.00     0.009 C 
HETATM    3  C4  UNL     1      57.010  12.809   0.026  1.00  0.00     0.012 C 
BRANCH   2   4
HETATM    4  C2  UNL     1      55.412  14.585   0.848  1.00  0.00     0.002 C 
HETATM    5  C1  UNL     1      55.793  15.423  -0.355  1.00  0.00     0.005 C 
ENDBRANCH   2   4
ENDBRANCH   1   2
BRANCH   1   6
HETATM    6  S1  UNL     1      53.441  12.434   2.090  1.00  0.00    -0.146 SA
BRANCH   6   7
HETATM    7  C6  UNL     1      52.086  13.370   1.793  1.00  0.00     0.119 C 
BRANCH   7   8
HETATM    8  C7  UNL     1      51.119  12.889   0.746  1.00  0.00     0.292 C 
BRANCH   8   9
HETATM    9  N1  UNL     1      51.108  11.460   0.610  1.00  0.00    -0.065 N 
ATOM     10  H13 UNL     1      51.949  11.132   0.136  1.00  0.00     0.275 HD
ATOM     11  H12 UNL     1      51.240  11.006   1.515  1.00  0.00     0.275 HD
ATOM     12  H11 UNL     1      50.268  11.112   0.147  1.00  0.00     0.275 HD
ENDBRANCH   8   9
BRANCH   8  13
HETATM   13  C8  UNL     1      51.323  13.572  -0.560  1.00  0.00     0.205 C 
HETATM   14  O1  UNL     1      52.111  14.524  -0.608  1.00  0.00    -0.646 OA
HETATM   15  O2  UNL     1      50.618  13.103  -1.660  1.00  0.00    -0.646 OA
ENDBRANCH   8  13
ENDBRANCH   7   8
ENDBRANCH   6   7
ENDBRANCH   1   6
BRANCH   1  16
HETATM   16  C9  UNL     1      55.945  11.764   2.424  1.00  0.00    -0.035 A 
HETATM   17  C10 UNL     1      55.595  11.998   3.759  1.00  0.00     0.009 A 
HETATM   18  C11 UNL     1      56.412  11.669   4.808  1.00  0.00     0.001 A 
HETATM   19  C12 UNL     1      57.629  11.083   4.538  1.00  0.00     0.000 A 
HETATM   20  C13 UNL     1      58.001  10.839   3.217  1.00  0.00     0.001 A 
HETATM   21  C14 UNL     1      57.140  11.189   2.171  1.00  0.00     0.009 A 
ENDBRANCH   1  16
BRANCH   1  22
HETATM   22  C15 UNL     1      54.780  10.846   0.573  1.00  0.00    -0.035 A 
HETATM   23  C16 UNL     1      54.842   9.636   1.177  1.00  0.00     0.009 A 
HETATM   24  C17 UNL     1      54.699   8.433   0.473  1.00  0.00     0.001 A 
HETATM   25  C18 UNL     1      54.486   8.514  -0.889  1.00  0.00     0.000 A 
HETATM   26  C19 UNL     1      54.421   9.738  -1.507  1.00  0.00     0.001 A 
HETATM   27  C20 UNL     1      54.570  10.923  -0.768  1.00  0.00     0.009 A 
ENDBRANCH   1  22
TORSDOF 9
ENDMDL
