MODEL 6
REMARK VINA RESULT: -8.794574225      0.933      1.122
REMARK  9 active torsions:
REMARK  status: ('A' for Active; 'I' for Inactive)
REMARK    1  A    between atoms: C2_2  and  C3_3 
REMARK    2  A    between atoms: C3_3  and  C5_5 
REMARK    3  A    between atoms: C5_5  and  S1_6 
REMARK    4  A    between atoms: C5_5  and  C9_16 
REMARK    5  A    between atoms: C5_5  and  C15_22 
REMARK    6  A    between atoms: S1_6  and  C6_7 
REMARK    7  A    between atoms: C6_7  and  C7_8 
REMARK    8  A    between atoms: C7_8  and  N1_9 
REMARK    9  A    between atoms: C7_8  and  C8_13 
ROOT
HETATM    1  C5  UNL     1      54.799  11.950   0.740  1.00  0.00     0.065 C 
ENDROOT
BRANCH   1   2
HETATM    2  C3  UNL     1      55.509  12.858  -0.176  1.00  0.00     0.009 C 
HETATM    3  C4  UNL     1      56.970  12.983  -0.032  1.00  0.00     0.012 C 
BRANCH   2   4
HETATM    4  C2  UNL     1      54.774  14.153  -0.472  1.00  0.00     0.002 C 
HETATM    5  C1  UNL     1      55.788  15.274  -0.384  1.00  0.00     0.005 C 
ENDBRANCH   2   4
ENDBRANCH   1   2
BRANCH   1   6
HETATM    6  S1  UNL     1      53.236  12.235   1.373  1.00  0.00    -0.146 SA
BRANCH   6   7
HETATM    7  C6  UNL     1      51.657  12.052   0.847  1.00  0.00     0.119 C 
BRANCH   7   8
HETATM    8  C7  UNL     1      50.810  13.290   0.732  1.00  0.00     0.292 C 
BRANCH   8   9
HETATM    9  N1  UNL     1      49.696  13.290   1.638  1.00  0.00    -0.065 N 
ATOM     10  H13 UNL     1      48.964  12.659   1.316  1.00  0.00     0.275 HD
ATOM     11  H12 UNL     1      49.939  12.830   2.515  1.00  0.00     0.275 HD
ATOM     12  H11 UNL     1      49.324  14.225   1.807  1.00  0.00     0.275 HD
ENDBRANCH   8   9
BRANCH   8  13
HETATM   13  C8  UNL     1      50.389  13.552  -0.671  1.00  0.00     0.205 C 
HETATM   14  O1  UNL     1      49.651  12.730  -1.225  1.00  0.00    -0.646 OA
HETATM   15  O2  UNL     1      50.847  14.709  -1.286  1.00  0.00    -0.646 OA
ENDBRANCH   8  13
ENDBRANCH   7   8
ENDBRANCH   6   7
ENDBRANCH   1   6
BRANCH   1  16
HETATM   16  C9  UNL     1      55.735  11.692   1.910  1.00  0.00    -0.035 A 
HETATM   17  C10 UNL     1      55.321  12.087   3.188  1.00  0.00     0.009 A 
HETATM   18  C11 UNL     1      56.086  11.893   4.307  1.00  0.00     0.001 A 
HETATM   19  C12 UNL     1      57.315  11.284   4.170  1.00  0.00     0.000 A 
HETATM   20  C13 UNL     1      57.749  10.881   2.909  1.00  0.00     0.001 A 
HETATM   21  C14 UNL     1      56.940  11.095   1.787  1.00  0.00     0.009 A 
ENDBRANCH   1  16
BRANCH   1  22
HETATM   22  C15 UNL     1      54.712  10.562   0.093  1.00  0.00    -0.035 A 
HETATM   23  C16 UNL     1      54.706   9.419   0.819  1.00  0.00     0.009 A 
HETATM   24  C17 UNL     1      54.643   8.150   0.228  1.00  0.00     0.001 A 
HETATM   25  C18 UNL     1      54.582   8.092  -1.150  1.00  0.00     0.000 A 
HETATM   26  C19 UNL     1      54.586   9.247  -1.892  1.00  0.00     0.001 A 
HETATM   27  C20 UNL     1      54.651  10.502  -1.264  1.00  0.00     0.009 A 
ENDBRANCH   1  22
TORSDOF 9
ENDMDL
