MODEL 7
REMARK VINA RESULT: -8.737681150      1.236      1.565
REMARK  9 active torsions:
REMARK  status: ('A' for Active; 'I' for Inactive)
REMARK    1  A    between atoms: C2_2  and  C3_3 
REMARK    2  A    between atoms: C3_3  and  C5_5 
REMARK    3  A    between atoms: C5_5  and  S1_6 
REMARK    4  A    between atoms: C5_5  and  C9_16 
REMARK    5  A    between atoms: C5_5  and  C15_22 
REMARK    6  A    between atoms: S1_6  and  C6_7 
REMARK    7  A    between atoms: C6_7  and  C7_8 
REMARK    8  A    between atoms: C7_8  and  N1_9 
REMARK    9  A    between atoms: C7_8  and  C8_13 
ROOT
HETATM    1  C5  UNL     1      54.874  11.945   0.840  1.00  0.00     0.065 C 
ENDROOT
BRANCH   1   2
HETATM    2  C3  UNL     1      55.556  12.849  -0.099  1.00  0.00     0.009 C 
HETATM    3  C4  UNL     1      57.022  12.965  -0.007  1.00  0.00     0.012 C 
BRANCH   2   4
HETATM    4  C2  UNL     1      54.819  14.149  -0.367  1.00  0.00     0.002 C 
HETATM    5  C1  UNL     1      55.838  15.266  -0.290  1.00  0.00     0.005 C 
ENDBRANCH   2   4
ENDBRANCH   1   2
BRANCH   1   6
HETATM    6  S1  UNL     1      53.340  12.242   1.535  1.00  0.00    -0.146 SA
BRANCH   6   7
HETATM    7  C6  UNL     1      51.874  12.874   1.028  1.00  0.00     0.119 C 
BRANCH   7   8
HETATM    8  C7  UNL     1      51.175  13.841   1.944  1.00  0.00     0.292 C 
BRANCH   8   9
HETATM    9  N1  UNL     1      49.746  13.711   1.906  1.00  0.00    -0.065 N 
ATOM     10  H13 UNL     1      49.327  14.449   1.341  1.00  0.00     0.275 HD
ATOM     11  H12 UNL     1      49.467  12.901   1.353  1.00  0.00     0.275 HD
ATOM     12  H11 UNL     1      49.326  13.681   2.836  1.00  0.00     0.275 HD
ENDBRANCH   8   9
BRANCH   8  13
HETATM   13  C8  UNL     1      51.615  15.244   1.717  1.00  0.00     0.205 C 
HETATM   14  O1  UNL     1      51.671  15.661   0.555  1.00  0.00    -0.646 OA
HETATM   15  O2  UNL     1      51.939  16.014   2.826  1.00  0.00    -0.646 OA
ENDBRANCH   8  13
ENDBRANCH   7   8
ENDBRANCH   6   7
ENDBRANCH   1   6
BRANCH   1  16
HETATM   16  C9  UNL     1      55.852  11.672   1.971  1.00  0.00    -0.035 A 
HETATM   17  C10 UNL     1      55.499  12.078   3.264  1.00  0.00     0.009 A 
HETATM   18  C11 UNL     1      56.306  11.873   4.351  1.00  0.00     0.001 A 
HETATM   19  C12 UNL     1      57.516  11.240   4.166  1.00  0.00     0.000 A 
HETATM   20  C13 UNL     1      57.891  10.826   2.889  1.00  0.00     0.001 A 
HETATM   21  C14 UNL     1      57.040  11.052   1.801  1.00  0.00     0.009 A 
ENDBRANCH   1  16
BRANCH   1  22
HETATM   22  C15 UNL     1      54.747  10.560   0.192  1.00  0.00    -0.035 A 
HETATM   23  C16 UNL     1      54.719   9.416   0.916  1.00  0.00     0.009 A 
HETATM   24  C17 UNL     1      54.619   8.151   0.324  1.00  0.00     0.001 A 
HETATM   25  C18 UNL     1      54.547   8.097  -1.054  1.00  0.00     0.000 A 
HETATM   26  C19 UNL     1      54.574   9.253  -1.794  1.00  0.00     0.001 A 
HETATM   27  C20 UNL     1      54.675  10.504  -1.165  1.00  0.00     0.009 A 
ENDBRANCH   1  22
TORSDOF 9
ENDMDL
