MODEL 2
REMARK VINA RESULT: -9.103444921      0.075      1.175
REMARK  9 active torsions:
REMARK  status: ('A' for Active; 'I' for Inactive)
REMARK    1  A    between atoms: C2_2  and  C3_3 
REMARK    2  A    between atoms: C3_3  and  C5_5 
REMARK    3  A    between atoms: C5_5  and  S1_6 
REMARK    4  A    between atoms: C5_5  and  C9_16 
REMARK    5  A    between atoms: C5_5  and  C15_22 
REMARK    6  A    between atoms: S1_6  and  C6_7 
REMARK    7  A    between atoms: C6_7  and  C7_8 
REMARK    8  A    between atoms: C7_8  and  N1_9 
REMARK    9  A    between atoms: C7_8  and  C8_13 
ROOT
HETATM    1  C5  UNL     1      54.968  12.195   1.325  1.00  0.00     0.065 C 
ENDROOT
BRANCH   1   2
HETATM    2  C3  UNL     1      55.650  13.181   0.470  1.00  0.00     0.009 C 
HETATM    3  C4  UNL     1      57.014  12.872   0.010  1.00  0.00     0.012 C 
BRANCH   2   4
HETATM    4  C2  UNL     1      55.410  14.627   0.865  1.00  0.00     0.002 C 
HETATM    5  C1  UNL     1      55.756  15.482  -0.335  1.00  0.00     0.005 C 
ENDBRANCH   2   4
ENDBRANCH   1   2
BRANCH   1   6
HETATM    6  S1  UNL     1      53.455  12.445   2.081  1.00  0.00    -0.146 SA
BRANCH   6   7
HETATM    7  C6  UNL     1      52.079  13.351   1.782  1.00  0.00     0.119 C 
BRANCH   7   8
HETATM    8  C7  UNL     1      51.129  12.851   0.728  1.00  0.00     0.292 C 
BRANCH   8   9
HETATM    9  N1  UNL     1      51.147  11.422   0.591  1.00  0.00    -0.065 N 
ATOM     10  H13 UNL     1      51.683  10.990   1.344  1.00  0.00     0.275 HD
ATOM     11  H12 UNL     1      50.229  11.024   0.791  1.00  0.00     0.275 HD
ATOM     12  H11 UNL     1      51.487  11.116  -0.321  1.00  0.00     0.275 HD
ENDBRANCH   8   9
BRANCH   8  13
HETATM   13  C8  UNL     1      51.327  13.540  -0.576  1.00  0.00     0.205 C 
HETATM   14  O1  UNL     1      50.763  13.079  -1.575  1.00  0.00    -0.646 OA
HETATM   15  O2  UNL     1      52.137  14.667  -0.603  1.00  0.00    -0.646 OA
ENDBRANCH   8  13
ENDBRANCH   7   8
ENDBRANCH   6   7
ENDBRANCH   1   6
BRANCH   1  16
HETATM   16  C9  UNL     1      55.964  11.789   2.400  1.00  0.00    -0.035 A 
HETATM   17  C10 UNL     1      55.628  12.029   3.738  1.00  0.00     0.009 A 
HETATM   18  C11 UNL     1      56.451  11.695   4.780  1.00  0.00     0.001 A 
HETATM   19  C12 UNL     1      57.661  11.096   4.500  1.00  0.00     0.000 A 
HETATM   20  C13 UNL     1      58.018  10.845   3.177  1.00  0.00     0.001 A 
HETATM   21  C14 UNL     1      57.151  11.201   2.137  1.00  0.00     0.009 A 
ENDBRANCH   1  16
BRANCH   1  22
HETATM   22  C15 UNL     1      54.801  10.888   0.539  1.00  0.00    -0.035 A 
HETATM   23  C16 UNL     1      54.614  10.862  -0.802  1.00  0.00     0.009 A 
HETATM   24  C17 UNL     1      54.445   9.669  -1.517  1.00  0.00     0.001 A 
HETATM   25  C18 UNL     1      54.477   8.488  -0.802  1.00  0.00     0.000 A 
HETATM   26  C19 UNL     1      54.667   8.508   0.558  1.00  0.00     0.001 A 
HETATM   27  C20 UNL     1      54.832   9.724   1.241  1.00  0.00     0.009 A 
ENDBRANCH   1  22
TORSDOF 9
ENDMDL
