MODEL 17
REMARK VINA RESULT: -7.525974998      2.691      4.862
REMARK  9 active torsions:
REMARK  status: ('A' for Active; 'I' for Inactive)
REMARK    1  A    between atoms: C2_2  and  C3_3 
REMARK    2  A    between atoms: C3_3  and  C5_5 
REMARK    3  A    between atoms: C5_5  and  S1_6 
REMARK    4  A    between atoms: C5_5  and  C9_16 
REMARK    5  A    between atoms: C5_5  and  C15_22 
REMARK    6  A    between atoms: S1_6  and  C6_7 
REMARK    7  A    between atoms: C6_7  and  C7_8 
REMARK    8  A    between atoms: C7_8  and  N1_9 
REMARK    9  A    between atoms: C7_8  and  C8_13 
ROOT
HETATM    1  C5  UNL     1      54.283  12.368   0.641  1.00  0.00     0.065 C 
ENDROOT
BRANCH   1   2
HETATM    2  C3  UNL     1      52.938  12.304   1.236  1.00  0.00     0.009 C 
HETATM    3  C4  UNL     1      52.342  10.975   1.457  1.00  0.00     0.012 C 
BRANCH   2   4
HETATM    4  C2  UNL     1      51.979  13.370   0.737  1.00  0.00     0.002 C 
HETATM    5  C1  UNL     1      51.156  12.748  -0.371  1.00  0.00     0.005 C 
ENDBRANCH   2   4
ENDBRANCH   1   2
BRANCH   1   6
HETATM    6  S1  UNL     1      54.759  11.542  -0.779  1.00  0.00    -0.146 SA
BRANCH   6   7
HETATM    7  C6  UNL     1      54.015  10.600  -1.947  1.00  0.00     0.119 C 
BRANCH   7   8
HETATM    8  C7  UNL     1      54.804   9.463  -2.535  1.00  0.00     0.292 C 
BRANCH   8   9
HETATM    9  N1  UNL     1      54.848   9.497  -3.970  1.00  0.00    -0.065 N 
ATOM     10  H13 UNL     1      53.914   9.620  -4.361  1.00  0.00     0.275 HD
ATOM     11  H12 UNL     1      55.281  10.359  -4.302  1.00  0.00     0.275 HD
ATOM     12  H11 UNL     1      55.307   8.680  -4.372  1.00  0.00     0.275 HD
ENDBRANCH   8   9
BRANCH   8  13
HETATM   13  C8  UNL     1      54.351   8.142  -2.022  1.00  0.00     0.205 C 
HETATM   14  O1  UNL     1      53.991   7.287  -2.838  1.00  0.00    -0.646 OA
HETATM   15  O2  UNL     1      54.357   7.938  -0.649  1.00  0.00    -0.646 OA
ENDBRANCH   8  13
ENDBRANCH   7   8
ENDBRANCH   6   7
ENDBRANCH   1   6
BRANCH   1  16
HETATM   16  C9  UNL     1      55.265  12.003   1.743  1.00  0.00    -0.035 A 
HETATM   17  C10 UNL     1      56.475  11.400   1.377  1.00  0.00     0.009 A 
HETATM   18  C11 UNL     1      57.429  11.040   2.291  1.00  0.00     0.001 A 
HETATM   19  C12 UNL     1      57.188  11.280   3.627  1.00  0.00     0.000 A 
HETATM   20  C13 UNL     1      55.992  11.880   4.016  1.00  0.00     0.001 A 
HETATM   21  C14 UNL     1      55.040  12.235   3.053  1.00  0.00     0.009 A 
ENDBRANCH   1  16
BRANCH   1  22
HETATM   22  C15 UNL     1      54.639  13.837   0.376  1.00  0.00    -0.035 A 
HETATM   23  C16 UNL     1      54.417  14.816   1.284  1.00  0.00     0.009 A 
HETATM   24  C17 UNL     1      54.726  16.159   1.036  1.00  0.00     0.001 A 
HETATM   25  C18 UNL     1      55.280  16.469  -0.191  1.00  0.00     0.000 A 
HETATM   26  C19 UNL     1      55.508  15.481  -1.116  1.00  0.00     0.001 A 
HETATM   27  C20 UNL     1      55.184  14.144  -0.831  1.00  0.00     0.009 A 
ENDBRANCH   1  22
TORSDOF 9
ENDMDL
