MODEL 16
REMARK VINA RESULT: -7.616872142      3.090      4.914
REMARK  9 active torsions:
REMARK  status: ('A' for Active; 'I' for Inactive)
REMARK    1  A    between atoms: C2_2  and  C3_3 
REMARK    2  A    between atoms: C3_3  and  C5_5 
REMARK    3  A    between atoms: C5_5  and  S1_6 
REMARK    4  A    between atoms: C5_5  and  C9_16 
REMARK    5  A    between atoms: C5_5  and  C15_22 
REMARK    6  A    between atoms: S1_6  and  C6_7 
REMARK    7  A    between atoms: C6_7  and  C7_8 
REMARK    8  A    between atoms: C7_8  and  N1_9 
REMARK    9  A    between atoms: C7_8  and  C8_13 
ROOT
HETATM    1  C5  UNL     1      53.539  11.730   1.036  1.00  0.00     0.065 C 
ENDROOT
BRANCH   1   2
HETATM    2  C3  UNL     1      52.216  12.204   0.598  1.00  0.00     0.009 C 
HETATM    3  C4  UNL     1      52.054  12.599  -0.812  1.00  0.00     0.012 C 
BRANCH   2   4
HETATM    4  C2  UNL     1      51.501  13.088   1.605  1.00  0.00     0.002 C 
HETATM    5  C1  UNL     1      50.248  13.608   0.934  1.00  0.00     0.005 C 
ENDBRANCH   2   4
ENDBRANCH   1   2
BRANCH   1   6
HETATM    6  S1  UNL     1      53.934  11.296   2.642  1.00  0.00    -0.146 SA
BRANCH   6   7
HETATM    7  C6  UNL     1      54.845  11.943   3.889  1.00  0.00     0.119 C 
BRANCH   7   8
HETATM    8  C7  UNL     1      56.342  11.842   3.788  1.00  0.00     0.292 C 
BRANCH   8   9
HETATM    9  N1  UNL     1      56.772  10.932   2.763  1.00  0.00    -0.065 N 
ATOM     10  H13 UNL     1      56.085  10.193   2.620  1.00  0.00     0.275 HD
ATOM     11  H12 UNL     1      56.735  11.373   1.844  1.00  0.00     0.275 HD
ATOM     12  H11 UNL     1      57.697  10.542   2.943  1.00  0.00     0.275 HD
ENDBRANCH   8   9
BRANCH   8  13
HETATM   13  C8  UNL     1      56.973  11.543   5.101  1.00  0.00     0.205 C 
HETATM   14  O1  UNL     1      57.880  10.704   5.139  1.00  0.00    -0.646 OA
HETATM   15  O2  UNL     1      56.510  12.223   6.219  1.00  0.00    -0.646 OA
ENDBRANCH   8  13
ENDBRANCH   7   8
ENDBRANCH   6   7
ENDBRANCH   1   6
BRANCH   1  16
HETATM   16  C9  UNL     1      54.549  12.768   0.572  1.00  0.00    -0.035 A 
HETATM   17  C10 UNL     1      54.257  14.119   0.790  1.00  0.00     0.009 A 
HETATM   18  C11 UNL     1      55.102  15.130   0.417  1.00  0.00     0.001 A 
HETATM   19  C12 UNL     1      56.291  14.803  -0.199  1.00  0.00     0.000 A 
HETATM   20  C13 UNL     1      56.606  13.464  -0.427  1.00  0.00     0.001 A 
HETATM   21  C14 UNL     1      55.717  12.458  -0.032  1.00  0.00     0.009 A 
ENDBRANCH   1  16
BRANCH   1  22
HETATM   22  C15 UNL     1      53.932  10.509   0.193  1.00  0.00    -0.035 A 
HETATM   23  C16 UNL     1      53.888  10.512  -1.160  1.00  0.00     0.009 A 
HETATM   24  C17 UNL     1      54.232   9.392  -1.928  1.00  0.00     0.001 A 
HETATM   25  C18 UNL     1      54.628   8.254  -1.254  1.00  0.00     0.000 A 
HETATM   26  C19 UNL     1      54.674   8.245   0.118  1.00  0.00     0.001 A 
HETATM   27  C20 UNL     1      54.323   9.387   0.855  1.00  0.00     0.009 A 
ENDBRANCH   1  22
TORSDOF 9
ENDMDL
