MODEL 4
REMARK VINA RESULT: -8.841409826      0.979      1.076
REMARK  9 active torsions:
REMARK  status: ('A' for Active; 'I' for Inactive)
REMARK    1  A    between atoms: C2_2  and  C3_3 
REMARK    2  A    between atoms: C3_3  and  C5_5 
REMARK    3  A    between atoms: C5_5  and  S1_6 
REMARK    4  A    between atoms: C5_5  and  C9_16 
REMARK    5  A    between atoms: C5_5  and  C15_22 
REMARK    6  A    between atoms: S1_6  and  C6_7 
REMARK    7  A    between atoms: C6_7  and  C7_8 
REMARK    8  A    between atoms: C7_8  and  N1_9 
REMARK    9  A    between atoms: C7_8  and  C8_13 
ROOT
HETATM    1  C5  UNL     1      54.896  12.129   1.288  1.00  0.00     0.065 C 
ENDROOT
BRANCH   1   2
HETATM    2  C3  UNL     1      55.630  13.083   0.440  1.00  0.00     0.009 C 
HETATM    3  C4  UNL     1      56.999  12.731   0.027  1.00  0.00     0.012 C 
BRANCH   2   4
HETATM    4  C2  UNL     1      55.418  14.541   0.808  1.00  0.00     0.002 C 
HETATM    5  C1  UNL     1      55.871  15.371  -0.375  1.00  0.00     0.005 C 
ENDBRANCH   2   4
ENDBRANCH   1   2
BRANCH   1   6
HETATM    6  S1  UNL     1      53.337  12.404   1.936  1.00  0.00    -0.146 SA
BRANCH   6   7
HETATM    7  C6  UNL     1      51.939  13.188   1.454  1.00  0.00     0.119 C 
BRANCH   7   8
HETATM    8  C7  UNL     1      51.734  13.412  -0.019  1.00  0.00     0.292 C 
BRANCH   8   9
HETATM    9  N1  UNL     1      51.966  14.773  -0.414  1.00  0.00    -0.065 N 
ATOM     10  H13 UNL     1      52.257  14.824  -1.390  1.00  0.00     0.275 HD
ATOM     11  H12 UNL     1      51.088  15.289  -0.475  1.00  0.00     0.275 HD
ATOM     12  H11 UNL     1      52.631  15.254   0.191  1.00  0.00     0.275 HD
ENDBRANCH   8   9
BRANCH   8  13
HETATM   13  C8  UNL     1      50.411  12.913  -0.482  1.00  0.00     0.205 C 
HETATM   14  O1  UNL     1      49.684  12.334   0.333  1.00  0.00    -0.646 OA
HETATM   15  O2  UNL     1      50.061  13.125  -1.808  1.00  0.00    -0.646 OA
ENDBRANCH   8  13
ENDBRANCH   7   8
ENDBRANCH   6   7
ENDBRANCH   1   6
BRANCH   1  16
HETATM   16  C9  UNL     1      55.822  11.768   2.439  1.00  0.00    -0.035 A 
HETATM   17  C10 UNL     1      55.376  12.003   3.745  1.00  0.00     0.009 A 
HETATM   18  C11 UNL     1      56.129  11.706   4.850  1.00  0.00     0.001 A 
HETATM   19  C12 UNL     1      57.378  11.153   4.668  1.00  0.00     0.000 A 
HETATM   20  C13 UNL     1      57.845  10.909   3.378  1.00  0.00     0.001 A 
HETATM   21  C14 UNL     1      57.046  11.225   2.272  1.00  0.00     0.009 A 
ENDBRANCH   1  16
BRANCH   1  22
HETATM   22  C15 UNL     1      54.780  10.792   0.544  1.00  0.00    -0.035 A 
HETATM   23  C16 UNL     1      54.848   9.598   1.179  1.00  0.00     0.009 A 
HETATM   24  C17 UNL     1      54.758   8.376   0.498  1.00  0.00     0.001 A 
HETATM   25  C18 UNL     1      54.593   8.422  -0.873  1.00  0.00     0.000 A 
HETATM   26  C19 UNL     1      54.522   9.630  -1.521  1.00  0.00     0.001 A 
HETATM   27  C20 UNL     1      54.617  10.834  -0.804  1.00  0.00     0.009 A 
ENDBRANCH   1  22
TORSDOF 9
ENDMDL
