MODEL 2
REMARK VINA RESULT: -8.464349962      1.401      2.171
REMARK  6 active torsions:
REMARK  status: ('A' for Active; 'I' for Inactive)
REMARK    1  A    between atoms: C3_5  and  N2_6 
REMARK    2  A    between atoms: N2_6  and  C4_8 
REMARK       I    between atoms: N5_16  and  C8_17 
REMARK       I    between atoms: C8_17  and  N6_19 
REMARK    3  A    between atoms: N6_19  and  C9_21 
REMARK    4  A    between atoms: C9_21  and  C10_22 
REMARK    5  A    between atoms: C9_21  and  C13_26 
REMARK    6  A    between atoms: C10_22  and  N7_23 
ROOT
HETATM    1  C4  UNL     1      19.324  22.732  52.742  1.00  0.00     0.131 A 
HETATM    2  N3  UNL     1      17.983  22.724  52.645  1.00  0.00    -0.285 N 
ATOM      3  H3  UNL     1      17.440  23.338  52.038  1.00  0.00     0.188 HD
HETATM    4  N4  UNL     1      17.465  21.812  53.444  1.00  0.00    -0.300 N 
ATOM      5  H4  UNL     1      16.470  21.613  53.549  1.00  0.00     0.186 HD
HETATM    6  C5  UNL     1      18.448  21.191  54.093  1.00  0.00     0.065 A 
HETATM    7  C6  UNL     1      19.626  21.756  53.665  1.00  0.00     0.032 A 
HETATM    8  C7  UNL     1      20.774  21.123  54.338  1.00  0.00     0.173 C 
HETATM    9  N5  UNL     1      20.105  20.617  55.561  1.00  0.00    -0.315 N 
HETATM   10  C8  UNL     1      20.752  20.690  56.819  1.00  0.00     0.320 C 
HETATM   11  O1  UNL     1      21.910  21.215  56.879  1.00  0.00    -0.247 OA
HETATM   12  N6  UNL     1      20.216  20.223  58.047  1.00  0.00    -0.333 N 
ATOM     13  H6  UNL     1      19.290  19.795  58.030  1.00  0.00     0.165 HD
HETATM   14  C19 UNL     1      18.853  20.136  55.097  1.00  0.00     0.074 C 
HETATM   15  C20 UNL     1      19.077  18.829  54.357  1.00  0.00     0.045 C 
HETATM   16  C21 UNL     1      17.735  20.061  56.073  1.00  0.00     0.045 C 
ENDROOT
BRANCH  12  17
HETATM   17  C9  UNL     1      20.896  20.312  59.321  1.00  0.00     0.147 C 
BRANCH  17  18
HETATM   18  C10 UNL     1      20.832  19.032  60.113  1.00  0.00     0.301 C 
BRANCH  18  19
HETATM   19  N7  UNL     1      19.751  18.162  59.768  1.00  0.00     0.082 N 
HETATM   20  C11 UNL     1      20.192  16.766  59.856  1.00  0.00     0.309 C 
HETATM   21  C12 UNL     1      18.669  18.285  60.728  1.00  0.00     0.309 C 
ENDBRANCH  18  19
ENDBRANCH  17  18
BRANCH  17  22
HETATM   22  C13 UNL     1      20.566  21.505  60.101  1.00  0.00    -0.034 A 
HETATM   23  C14 UNL     1      20.244  22.728  59.503  1.00  0.00     0.009 A 
HETATM   24  C15 UNL     1      19.930  23.845  60.246  1.00  0.00     0.001 A 
HETATM   25  C16 UNL     1      19.925  23.784  61.618  1.00  0.00     0.000 A 
HETATM   26  C17 UNL     1      20.239  22.590  62.208  1.00  0.00     0.001 A 
HETATM   27  C18 UNL     1      20.561  21.442  61.475  1.00  0.00     0.009 A 
ENDBRANCH  17  22
ENDBRANCH  12  17
BRANCH   1  28
HETATM   28  N2  UNL     1      20.222  23.579  52.034  1.00  0.00    -0.326 N 
ATOM     29  H2  UNL     1      20.440  23.397  51.055  1.00  0.00     0.169 HD
BRANCH  28  30
HETATM   30  C3  UNL     1      20.809  24.678  52.707  1.00  0.00     0.127 A 
HETATM   31  N1  UNL     1      21.807  24.501  53.609  1.00  0.00    -0.331 N 
HETATM   32  C2  UNL     1      22.265  25.652  54.168  1.00  0.00     0.079 A 
ATOM     33  H1  UNL     1      22.181  23.583  53.848  1.00  0.00     0.168 HD
HETATM   34  C1  UNL     1      23.374  25.510  55.178  1.00  0.00     0.089 C 
HETATM   35  N8  UNL     1      21.819  26.860  53.898  1.00  0.00    -0.345 N 
HETATM   36  C25 UNL     1      20.809  27.078  52.989  1.00  0.00     0.054 A 
ATOM     37  H8  UNL     1      22.235  27.659  54.376  1.00  0.00     0.167 HD
HETATM   38  C22 UNL     1      20.311  25.951  52.397  1.00  0.00     0.075 A 
HETATM   39  C24 UNL     1      20.276  28.253  52.634  1.00  0.00     0.038 A 
HETATM   40  S1  UNL     1      19.109  26.573  51.356  1.00  0.00    -0.096 SA
HETATM   41  C23 UNL     1      19.272  28.235  51.702  1.00  0.00     0.053 A 
ENDBRANCH  28  30
ENDBRANCH   1  28
TORSDOF 6
ENDMDL
