MODEL 3
REMARK VINA RESULT: -8.369044018      1.565      2.394
REMARK  6 active torsions:
REMARK  status: ('A' for Active; 'I' for Inactive)
REMARK    1  A    between atoms: C3_5  and  N2_6 
REMARK    2  A    between atoms: N2_6  and  C4_8 
REMARK       I    between atoms: N5_16  and  C8_17 
REMARK       I    between atoms: C8_17  and  N6_19 
REMARK    3  A    between atoms: N6_19  and  C9_21 
REMARK    4  A    between atoms: C9_21  and  C10_22 
REMARK    5  A    between atoms: C9_21  and  C13_26 
REMARK    6  A    between atoms: C10_22  and  N7_23 
ROOT
HETATM    1  C4  UNL     1      19.398  22.727  52.687  1.00  0.00     0.131 A 
HETATM    2  N3  UNL     1      18.058  22.817  52.619  1.00  0.00    -0.285 N 
ATOM      3  H3  UNL     1      17.549  23.451  52.003  1.00  0.00     0.188 HD
HETATM    4  N4  UNL     1      17.494  21.972  53.459  1.00  0.00    -0.300 N 
ATOM      5  H4  UNL     1      16.489  21.853  53.591  1.00  0.00     0.186 HD
HETATM    6  C5  UNL     1      18.443  21.300  54.106  1.00  0.00     0.065 A 
HETATM    7  C6  UNL     1      19.649  21.761  53.635  1.00  0.00     0.032 A 
HETATM    8  C7  UNL     1      20.762  21.064  54.304  1.00  0.00     0.173 C 
HETATM    9  N5  UNL     1      20.087  20.648  55.557  1.00  0.00    -0.315 N 
HETATM   10  C8  UNL     1      20.767  20.713  56.797  1.00  0.00     0.320 C 
HETATM   11  O1  UNL     1      21.962  21.150  56.816  1.00  0.00    -0.247 OA
HETATM   12  N6  UNL     1      20.227  20.326  58.052  1.00  0.00    -0.333 N 
ATOM     13  H6  UNL     1      19.272  19.969  58.069  1.00  0.00     0.165 HD
HETATM   14  C19 UNL     1      18.792  20.250  55.136  1.00  0.00     0.074 C 
HETATM   15  C20 UNL     1      18.899  18.907  54.436  1.00  0.00     0.045 C 
HETATM   16  C21 UNL     1      17.695  20.289  56.138  1.00  0.00     0.045 C 
ENDROOT
BRANCH  12  17
HETATM   17  C9  UNL     1      20.942  20.403  59.307  1.00  0.00     0.147 C 
BRANCH  17  18
HETATM   18  C10 UNL     1      20.960  19.097  60.056  1.00  0.00     0.301 C 
BRANCH  18  19
HETATM   19  N7  UNL     1      20.840  17.931  59.237  1.00  0.00     0.082 N 
HETATM   20  C11 UNL     1      22.167  17.347  59.009  1.00  0.00     0.309 C 
HETATM   21  C12 UNL     1      20.080  16.901  59.921  1.00  0.00     0.309 C 
ENDBRANCH  18  19
ENDBRANCH  17  18
BRANCH  17  22
HETATM   22  C13 UNL     1      20.585  21.554  60.138  1.00  0.00    -0.034 A 
HETATM   23  C14 UNL     1      20.331  22.820  59.598  1.00  0.00     0.009 A 
HETATM   24  C15 UNL     1      19.991  23.896  60.387  1.00  0.00     0.001 A 
HETATM   25  C16 UNL     1      19.889  23.751  61.748  1.00  0.00     0.000 A 
HETATM   26  C17 UNL     1      20.135  22.515  62.282  1.00  0.00     0.001 A 
HETATM   27  C18 UNL     1      20.483  21.406  61.501  1.00  0.00     0.009 A 
ENDBRANCH  17  22
ENDBRANCH  12  17
BRANCH   1  28
HETATM   28  N2  UNL     1      20.340  23.481  51.932  1.00  0.00    -0.326 N 
ATOM     29  H2  UNL     1      21.207  23.051  51.610  1.00  0.00     0.169 HD
BRANCH  28  30
HETATM   30  C3  UNL     1      20.057  24.836  51.633  1.00  0.00     0.127 A 
HETATM   31  N1  UNL     1      20.187  25.808  52.572  1.00  0.00    -0.331 N 
HETATM   32  C2  UNL     1      19.880  27.055  52.130  1.00  0.00     0.079 A 
ATOM     33  H1  UNL     1      20.490  25.617  53.526  1.00  0.00     0.168 HD
HETATM   34  C1  UNL     1      20.008  28.170  53.135  1.00  0.00     0.089 C 
HETATM   35  N8  UNL     1      19.485  27.357  50.913  1.00  0.00    -0.345 N 
HETATM   36  C25 UNL     1      19.341  26.399  49.934  1.00  0.00     0.054 A 
ATOM     37  H8  UNL     1      19.279  28.330  50.686  1.00  0.00     0.167 HD
HETATM   38  C22 UNL     1      19.638  25.123  50.327  1.00  0.00     0.075 A 
HETATM   39  C24 UNL     1      18.950  26.584  48.668  1.00  0.00     0.038 A 
HETATM   40  S1  UNL     1      19.360  24.219  48.906  1.00  0.00    -0.096 SA
HETATM   41  C23 UNL     1      18.877  25.479  47.862  1.00  0.00     0.053 A 
ENDBRANCH  28  30
ENDBRANCH   1  28
TORSDOF 6
ENDMDL
