MODEL 1
REMARK VINA RESULT: -8.598017630      0.000      0.000
REMARK  6 active torsions:
REMARK  status: ('A' for Active; 'I' for Inactive)
REMARK    1  A    between atoms: C3_5  and  N2_6 
REMARK    2  A    between atoms: N2_6  and  C4_8 
REMARK       I    between atoms: N5_16  and  C8_17 
REMARK       I    between atoms: C8_17  and  N6_19 
REMARK    3  A    between atoms: N6_19  and  C9_21 
REMARK    4  A    between atoms: C9_21  and  C10_22 
REMARK    5  A    between atoms: C9_21  and  C13_26 
REMARK    6  A    between atoms: C10_22  and  N7_23 
ROOT
HETATM    1  C4  UNL     1      19.444  22.265  52.872  1.00  0.00     0.131 A 
HETATM    2  N3  UNL     1      18.123  22.517  52.871  1.00  0.00    -0.285 N 
ATOM      3  H3  UNL     1      17.666  23.222  52.294  1.00  0.00     0.188 HD
HETATM    4  N4  UNL     1      17.500  21.724  53.721  1.00  0.00    -0.300 N 
ATOM      5  H4  UNL     1      16.495  21.722  53.900  1.00  0.00     0.186 HD
HETATM    6  C5  UNL     1      18.390  20.927  54.307  1.00  0.00     0.065 A 
HETATM    7  C6  UNL     1      19.619  21.252  53.786  1.00  0.00     0.032 A 
HETATM    8  C7  UNL     1      20.670  20.410  54.386  1.00  0.00     0.173 C 
HETATM    9  N5  UNL     1      20.008  20.046  55.663  1.00  0.00    -0.315 N 
HETATM   10  C8  UNL     1      20.748  19.997  56.869  1.00  0.00     0.320 C 
HETATM   11  O1  UNL     1      21.986  20.288  56.838  1.00  0.00    -0.247 OA
HETATM   12  N6  UNL     1      20.224  19.646  58.141  1.00  0.00    -0.333 N 
ATOM     13  H6  UNL     1      19.234  19.406  58.198  1.00  0.00     0.165 HD
HETATM   14  C19 UNL     1      18.656  19.816  55.298  1.00  0.00     0.074 C 
HETATM   15  C20 UNL     1      18.568  18.489  54.567  1.00  0.00     0.045 C 
HETATM   16  C21 UNL     1      17.620  19.962  56.353  1.00  0.00     0.045 C 
ENDROOT
BRANCH  12  17
HETATM   17  C9  UNL     1      21.000  19.605  59.361  1.00  0.00     0.147 C 
BRANCH  17  18
HETATM   18  C10 UNL     1      21.040  18.237  59.988  1.00  0.00     0.301 C 
BRANCH  18  19
HETATM   19  N7  UNL     1      20.893  17.149  59.072  1.00  0.00     0.082 N 
HETATM   20  C11 UNL     1      22.215  16.679  58.643  1.00  0.00     0.309 C 
HETATM   21  C12 UNL     1      20.273  16.010  59.724  1.00  0.00     0.309 C 
ENDBRANCH  18  19
ENDBRANCH  17  18
BRANCH  17  22
HETATM   22  C13 UNL     1      20.697  20.679  60.308  1.00  0.00    -0.034 A 
HETATM   23  C14 UNL     1      20.937  22.026  60.017  1.00  0.00     0.009 A 
HETATM   24  C15 UNL     1      20.643  23.031  60.913  1.00  0.00     0.001 A 
HETATM   25  C16 UNL     1      20.097  22.729  62.136  1.00  0.00     0.000 A 
HETATM   26  C17 UNL     1      19.861  21.413  62.425  1.00  0.00     0.001 A 
HETATM   27  C18 UNL     1      20.150  20.375  61.532  1.00  0.00     0.009 A 
ENDBRANCH  17  22
ENDBRANCH  12  17
BRANCH   1  28
HETATM   28  N2  UNL     1      20.434  22.920  52.086  1.00  0.00    -0.326 N 
ATOM     29  H2  UNL     1      21.116  22.377  51.558  1.00  0.00     0.169 HD
BRANCH  28  30
HETATM   30  C3  UNL     1      20.459  24.335  52.048  1.00  0.00     0.127 A 
HETATM   31  N1  UNL     1      19.879  25.024  51.033  1.00  0.00    -0.331 N 
HETATM   32  C2  UNL     1      19.988  26.374  51.140  1.00  0.00     0.079 A 
ATOM     33  H1  UNL     1      19.401  24.567  50.257  1.00  0.00     0.168 HD
HETATM   34  C1  UNL     1      19.359  27.185  50.038  1.00  0.00     0.089 C 
HETATM   35  N8  UNL     1      20.591  27.014  52.118  1.00  0.00    -0.345 N 
HETATM   36  C25 UNL     1      21.191  26.350  53.164  1.00  0.00     0.054 A 
ATOM     37  H8  UNL     1      20.615  28.034  52.101  1.00  0.00     0.167 HD
HETATM   38  C22 UNL     1      21.109  24.986  53.105  1.00  0.00     0.075 A 
HETATM   39  C24 UNL     1      21.829  26.889  54.209  1.00  0.00     0.038 A 
HETATM   40  S1  UNL     1      21.933  24.500  54.519  1.00  0.00    -0.096 SA
HETATM   41  C23 UNL     1      22.353  26.032  55.139  1.00  0.00     0.053 A 
ENDBRANCH  28  30
ENDBRANCH   1  28
TORSDOF 6
ENDMDL
