MODEL 2
REMARK VINA RESULT: -11.165153109      1.033      1.216
REMARK  5 active torsions:
REMARK  status: ('A' for Active; 'I' for Inactive)
REMARK    1  A    between atoms: C2_2  and  C4_4 
REMARK    2  A    between atoms: C4_4  and  C5_5 
REMARK    3  A    between atoms: C5_5  and  C6_6 
REMARK    4  A    between atoms: C6_6  and  C7_7 
REMARK    5  A    between atoms: C7_7  and  C9_9 
ROOT
HETATM    1  C9  UNL     1      56.191  32.717  71.120  1.00  0.00    -0.002 C 
HETATM    2  C10 UNL     1      56.906  34.047  71.204  1.00  0.00     0.006 C 
HETATM    3  C11 UNL     1      57.572  34.117  72.562  1.00  0.00     0.006 C 
HETATM    4  C12 UNL     1      57.678  32.662  72.903  1.00  0.00    -0.002 C 
HETATM    5  C13 UNL     1      58.032  32.362  74.300  1.00  0.00    -0.004 C 
HETATM    6  C14 UNL     1      59.510  32.730  74.525  1.00  0.00     0.010 C 
HETATM    7  C15 UNL     1      59.704  32.655  76.030  1.00  0.00     0.035 C 
HETATM    8  C16 UNL     1      59.244  31.344  76.570  1.00  0.00    -0.068 C 
HETATM    9  C17 UNL     1      59.818  30.929  77.680  1.00  0.00     0.053 C 
HETATM   10  C18 UNL     1      59.401  29.652  78.244  1.00  0.00     0.149 C 
HETATM   11  O1  UNL     1      59.371  29.504  79.495  1.00  0.00    -0.293 OA
HETATM   12  C19 UNL     1      59.028  28.571  77.325  1.00  0.00     0.084 C 
HETATM   13  C20 UNL     1      58.491  29.032  76.000  1.00  0.00     0.022 C 
HETATM   14  C21 UNL     1      58.210  30.518  75.942  1.00  0.00    -0.016 C 
HETATM   15  C22 UNL     1      56.884  30.727  76.684  1.00  0.00     0.020 C 
HETATM   16  C23 UNL     1      57.964  30.874  74.502  1.00  0.00     0.002 C 
HETATM   17  C24 UNL     1      56.716  30.251  73.989  1.00  0.00     0.007 C 
HETATM   18  C25 UNL     1      56.439  30.649  72.536  1.00  0.00     0.010 C 
HETATM   19  C26 UNL     1      56.314  32.139  72.502  1.00  0.00    -0.036 C 
HETATM   20  C27 UNL     1      55.225  32.566  73.423  1.00  0.00     0.016 C 
ENDROOT
BRANCH   1  21
HETATM   21  C7  UNL     1      54.816  32.820  70.583  1.00  0.00    -0.014 C 
HETATM   22  C8  UNL     1      54.506  31.750  69.562  1.00  0.00     0.010 C 
BRANCH  21  23
HETATM   23  C6  UNL     1      54.547  34.139  69.860  1.00  0.00     0.005 C 
BRANCH  23  24
HETATM   24  C5  UNL     1      53.381  34.054  68.950  1.00  0.00     0.001 C 
BRANCH  24  25
HETATM   25  C4  UNL     1      53.091  35.195  68.066  1.00  0.00     0.004 C 
BRANCH  25  26
HETATM   26  C2  UNL     1      53.023  35.015  66.609  1.00  0.00    -0.023 C 
HETATM   27  C1  UNL     1      54.071  35.673  65.771  1.00  0.00     0.009 C 
HETATM   28  C3  UNL     1      52.878  33.562  66.183  1.00  0.00     0.009 C 
ENDBRANCH  25  26
ENDBRANCH  24  25
ENDBRANCH  23  24
ENDBRANCH  21  23
ENDBRANCH   1  21
TORSDOF 5
ENDMDL
