MODEL 4
REMARK VINA RESULT: -10.677160411      3.302      9.600
REMARK  5 active torsions:
REMARK  status: ('A' for Active; 'I' for Inactive)
REMARK    1  A    between atoms: C2_2  and  C4_4 
REMARK    2  A    between atoms: C4_4  and  C5_5 
REMARK    3  A    between atoms: C5_5  and  C6_6 
REMARK    4  A    between atoms: C6_6  and  C7_7 
REMARK    5  A    between atoms: C7_7  and  C9_9 
ROOT
HETATM    1  C9  UNL     1      58.901  30.761  75.589  1.00  0.00    -0.002 C 
HETATM    2  C10 UNL     1      58.036  29.530  75.736  1.00  0.00     0.006 C 
HETATM    3  C11 UNL     1      56.821  29.723  74.855  1.00  0.00     0.006 C 
HETATM    4  C12 UNL     1      57.338  30.728  73.872  1.00  0.00    -0.002 C 
HETATM    5  C13 UNL     1      56.321  31.363  73.018  1.00  0.00    -0.004 C 
HETATM    6  C14 UNL     1      55.813  30.328  71.999  1.00  0.00     0.010 C 
HETATM    7  C15 UNL     1      54.594  30.974  71.363  1.00  0.00     0.035 C 
HETATM    8  C16 UNL     1      54.912  32.333  70.843  1.00  0.00    -0.068 C 
HETATM    9  C17 UNL     1      54.178  32.768  69.840  1.00  0.00     0.053 C 
HETATM   10  C18 UNL     1      54.454  34.092  69.298  1.00  0.00     0.149 C 
HETATM   11  O1  UNL     1      53.503  34.801  68.871  1.00  0.00    -0.293 OA
HETATM   12  C19 UNL     1      55.845  34.558  69.265  1.00  0.00     0.084 C 
HETATM   13  C20 UNL     1      56.727  33.969  70.328  1.00  0.00     0.022 C 
HETATM   14  C21 UNL     1      55.972  33.189  71.382  1.00  0.00    -0.016 C 
HETATM   15  C22 UNL     1      55.347  34.233  72.315  1.00  0.00     0.020 C 
HETATM   16  C23 UNL     1      56.986  32.431  72.194  1.00  0.00     0.002 C 
HETATM   17  C24 UNL     1      57.855  33.346  72.978  1.00  0.00     0.007 C 
HETATM   18  C25 UNL     1      58.859  32.575  73.842  1.00  0.00     0.010 C 
HETATM   19  C26 UNL     1      58.069  31.707  74.768  1.00  0.00    -0.036 C 
HETATM   20  C27 UNL     1      57.155  32.554  75.583  1.00  0.00     0.016 C 
ENDROOT
BRANCH   1  21
HETATM   21  C7  UNL     1      59.397  31.291  76.878  1.00  0.00    -0.014 C 
HETATM   22  C8  UNL     1      60.650  32.122  76.725  1.00  0.00     0.010 C 
BRANCH  21  23
HETATM   23  C6  UNL     1      59.775  30.197  77.876  1.00  0.00     0.005 C 
BRANCH  23  24
HETATM   24  C5  UNL     1      61.061  30.476  78.556  1.00  0.00     0.001 C 
BRANCH  24  25
HETATM   25  C4  UNL     1      61.701  29.395  79.325  1.00  0.00     0.004 C 
BRANCH  25  26
HETATM   26  C2  UNL     1      62.579  29.705  80.463  1.00  0.00    -0.023 C 
HETATM   27  C1  UNL     1      63.580  28.676  80.877  1.00  0.00     0.009 C 
HETATM   28  C3  UNL     1      63.264  31.058  80.350  1.00  0.00     0.009 C 
ENDBRANCH  25  26
ENDBRANCH  24  25
ENDBRANCH  23  24
ENDBRANCH  21  23
ENDBRANCH   1  21
TORSDOF 5
ENDMDL
