MODEL 1
REMARK VINA RESULT: -11.472712882      0.000      0.000
REMARK  5 active torsions:
REMARK  status: ('A' for Active; 'I' for Inactive)
REMARK    1  A    between atoms: C2_2  and  C4_4 
REMARK    2  A    between atoms: C4_4  and  C5_5 
REMARK    3  A    between atoms: C5_5  and  C6_6 
REMARK    4  A    between atoms: C6_6  and  C7_7 
REMARK    5  A    between atoms: C7_7  and  C9_9 
ROOT
HETATM    1  C9  UNL     1      56.197  32.875  70.940  1.00  0.00    -0.002 C 
HETATM    2  C10 UNL     1      56.955  34.104  71.391  1.00  0.00     0.006 C 
HETATM    3  C11 UNL     1      57.420  33.854  72.809  1.00  0.00     0.006 C 
HETATM    4  C12 UNL     1      57.406  32.356  72.854  1.00  0.00    -0.002 C 
HETATM    5  C13 UNL     1      57.540  31.760  74.192  1.00  0.00    -0.004 C 
HETATM    6  C14 UNL     1      58.985  31.963  74.682  1.00  0.00     0.010 C 
HETATM    7  C15 UNL     1      58.956  31.577  76.151  1.00  0.00     0.035 C 
HETATM    8  C16 UNL     1      58.361  30.225  76.343  1.00  0.00    -0.068 C 
HETATM    9  C17 UNL     1      58.748  29.556  77.409  1.00  0.00     0.053 C 
HETATM   10  C18 UNL     1      58.193  28.228  77.639  1.00  0.00     0.149 C 
HETATM   11  O1  UNL     1      57.975  27.838  78.817  1.00  0.00    -0.293 OA
HETATM   12  C19 UNL     1      57.905  27.381  76.475  1.00  0.00     0.084 C 
HETATM   13  C20 UNL     1      57.589  28.135  75.215  1.00  0.00     0.022 C 
HETATM   14  C21 UNL     1      57.390  29.619  75.428  1.00  0.00    -0.016 C 
HETATM   15  C22 UNL     1      55.982  29.778  76.016  1.00  0.00     0.020 C 
HETATM   16  C23 UNL     1      57.372  30.271  74.073  1.00  0.00     0.002 C 
HETATM   17  C24 UNL     1      56.183  29.858  73.282  1.00  0.00     0.007 C 
HETATM   18  C25 UNL     1      56.138  30.556  71.919  1.00  0.00     0.010 C 
HETATM   19  C26 UNL     1      56.091  32.027  72.177  1.00  0.00    -0.036 C 
HETATM   20  C27 UNL     1      54.902  32.346  73.015  1.00  0.00     0.016 C 
ENDROOT
BRANCH   1  21
HETATM   21  C7  UNL     1      54.920  33.187  70.260  1.00  0.00    -0.014 C 
HETATM   22  C8  UNL     1      54.542  32.151  69.226  1.00  0.00     0.010 C 
BRANCH  21  23
HETATM   23  C6  UNL     1      54.950  34.508  69.494  1.00  0.00     0.005 C 
BRANCH  23  24
HETATM   24  C5  UNL     1      53.691  34.759  68.755  1.00  0.00     0.001 C 
BRANCH  24  25
HETATM   25  C4  UNL     1      53.459  36.100  68.192  1.00  0.00     0.004 C 
BRANCH  25  26
HETATM   26  C2  UNL     1      53.293  36.285  66.743  1.00  0.00    -0.023 C 
HETATM   27  C1  UNL     1      53.808  37.548  66.133  1.00  0.00     0.009 C 
HETATM   28  C3  UNL     1      53.770  35.098  65.921  1.00  0.00     0.009 C 
ENDBRANCH  25  26
ENDBRANCH  24  25
ENDBRANCH  23  24
ENDBRANCH  21  23
ENDBRANCH   1  21
TORSDOF 5
ENDMDL
