MODEL 19
REMARK VINA RESULT: -9.823739793      1.957      3.059
REMARK  5 active torsions:
REMARK  status: ('A' for Active; 'I' for Inactive)
REMARK    1  A    between atoms: C2_2  and  C4_4 
REMARK    2  A    between atoms: C4_4  and  C5_5 
REMARK    3  A    between atoms: C5_5  and  C6_6 
REMARK    4  A    between atoms: C6_6  and  C7_7 
REMARK    5  A    between atoms: C7_7  and  C9_9 
ROOT
HETATM    1  C9  UNL     1      57.237  33.223  72.916  1.00  0.00    -0.002 C 
HETATM    2  C10 UNL     1      57.723  34.637  73.144  1.00  0.00     0.006 C 
HETATM    3  C11 UNL     1      58.475  34.650  74.458  1.00  0.00     0.006 C 
HETATM    4  C12 UNL     1      58.851  33.205  74.586  1.00  0.00    -0.002 C 
HETATM    5  C13 UNL     1      59.363  32.797  75.903  1.00  0.00    -0.004 C 
HETATM    6  C14 UNL     1      60.771  33.390  76.093  1.00  0.00     0.010 C 
HETATM    7  C15 UNL     1      61.096  33.159  77.559  1.00  0.00     0.035 C 
HETATM    8  C16 UNL     1      60.908  31.729  77.935  1.00  0.00    -0.068 C 
HETATM    9  C17 UNL     1      61.631  31.285  78.941  1.00  0.00     0.053 C 
HETATM   10  C18 UNL     1      61.482  29.892  79.345  1.00  0.00     0.149 C 
HETATM   11  O1  UNL     1      61.579  29.582  80.562  1.00  0.00    -0.293 OA
HETATM   12  C19 UNL     1      61.223  28.888  78.307  1.00  0.00     0.084 C 
HETATM   13  C20 UNL     1      60.511  29.412  77.093  1.00  0.00     0.022 C 
HETATM   14  C21 UNL     1      59.980  30.819  77.259  1.00  0.00    -0.016 C 
HETATM   15  C22 UNL     1      58.702  30.693  78.098  1.00  0.00     0.020 C 
HETATM   16  C23 UNL     1      59.562  31.307  75.899  1.00  0.00     0.002 C 
HETATM   17  C24 UNL     1      58.400  30.543  75.377  1.00  0.00     0.007 C 
HETATM   18  C25 UNL     1      57.942  31.068  74.012  1.00  0.00     0.010 C 
HETATM   19  C26 UNL     1      57.567  32.504  74.194  1.00  0.00    -0.036 C 
HETATM   20  C27 UNL     1      56.500  32.610  75.227  1.00  0.00     0.016 C 
ENDROOT
BRANCH   1  21
HETATM   21  C7  UNL     1      55.825  33.148  72.479  1.00  0.00    -0.014 C 
HETATM   22  C8  UNL     1      55.505  31.860  71.755  1.00  0.00     0.010 C 
BRANCH  21  23
HETATM   23  C6  UNL     1      55.437  34.252  71.497  1.00  0.00     0.005 C 
BRANCH  23  24
HETATM   24  C5  UNL     1      55.686  33.867  70.088  1.00  0.00     0.001 C 
BRANCH  24  25
HETATM   25  C4  UNL     1      55.848  34.931  69.084  1.00  0.00     0.004 C 
BRANCH  25  26
HETATM   26  C2  UNL     1      54.674  35.548  68.450  1.00  0.00    -0.023 C 
HETATM   27  C1  UNL     1      53.368  34.828  68.543  1.00  0.00     0.009 C 
HETATM   28  C3  UNL     1      54.473  37.006  68.834  1.00  0.00     0.009 C 
ENDBRANCH  25  26
ENDBRANCH  24  25
ENDBRANCH  23  24
ENDBRANCH  21  23
ENDBRANCH   1  21
TORSDOF 5
ENDMDL
