MODEL 6
REMARK VINA RESULT: -10.663351062      3.300      9.675
REMARK  5 active torsions:
REMARK  status: ('A' for Active; 'I' for Inactive)
REMARK    1  A    between atoms: C2_2  and  C4_4 
REMARK    2  A    between atoms: C4_4  and  C5_5 
REMARK    3  A    between atoms: C5_5  and  C6_6 
REMARK    4  A    between atoms: C6_6  and  C7_7 
REMARK    5  A    between atoms: C7_7  and  C9_9 
ROOT
HETATM    1  C9  UNL     1      59.403  30.237  76.609  1.00  0.00    -0.002 C 
HETATM    2  C10 UNL     1      58.719  28.892  76.713  1.00  0.00     0.006 C 
HETATM    3  C11 UNL     1      57.517  28.923  75.793  1.00  0.00     0.006 C 
HETATM    4  C12 UNL     1      57.915  30.008  74.840  1.00  0.00    -0.002 C 
HETATM    5  C13 UNL     1      56.845  30.504  73.960  1.00  0.00    -0.004 C 
HETATM    6  C14 UNL     1      56.523  29.423  72.913  1.00  0.00     0.010 C 
HETATM    7  C15 UNL     1      55.244  29.898  72.244  1.00  0.00     0.035 C 
HETATM    8  C16 UNL     1      55.380  31.297  71.751  1.00  0.00    -0.068 C 
HETATM    9  C17 UNL     1      54.623  31.637  70.729  1.00  0.00     0.053 C 
HETATM   10  C18 UNL     1      54.722  32.996  70.211  1.00  0.00     0.149 C 
HETATM   11  O1  UNL     1      53.693  33.568  69.761  1.00  0.00    -0.293 OA
HETATM   12  C19 UNL     1      56.032  33.658  70.231  1.00  0.00     0.084 C 
HETATM   13  C20 UNL     1      56.956  33.184  71.316  1.00  0.00     0.022 C 
HETATM   14  C21 UNL     1      56.289  32.287  72.335  1.00  0.00    -0.016 C 
HETATM   15  C22 UNL     1      55.491  33.215  73.258  1.00  0.00     0.020 C 
HETATM   16  C23 UNL     1      57.375  31.669  73.171  1.00  0.00     0.002 C 
HETATM   17  C24 UNL     1      58.078  32.687  73.994  1.00  0.00     0.007 C 
HETATM   18  C25 UNL     1      59.154  32.053  74.882  1.00  0.00     0.010 C 
HETATM   19  C26 UNL     1      58.469  31.067  75.771  1.00  0.00    -0.036 C 
HETATM   20  C27 UNL     1      57.418  31.761  76.565  1.00  0.00     0.016 C 
ENDROOT
BRANCH   1  21
HETATM   21  C7  UNL     1      59.776  30.811  77.920  1.00  0.00    -0.014 C 
HETATM   22  C8  UNL     1      60.919  31.795  77.823  1.00  0.00     0.010 C 
BRANCH  21  23
HETATM   23  C6  UNL     1      60.249  29.764  78.926  1.00  0.00     0.005 C 
BRANCH  23  24
HETATM   24  C5  UNL     1      61.715  29.556  78.875  1.00  0.00     0.001 C 
BRANCH  24  25
HETATM   25  C4  UNL     1      62.390  29.000  80.060  1.00  0.00     0.004 C 
BRANCH  25  26
HETATM   26  C2  UNL     1      63.231  29.853  80.912  1.00  0.00    -0.023 C 
HETATM   27  C1  UNL     1      63.500  31.251  80.457  1.00  0.00     0.009 C 
HETATM   28  C3  UNL     1      62.796  29.873  82.369  1.00  0.00     0.009 C 
ENDBRANCH  25  26
ENDBRANCH  24  25
ENDBRANCH  23  24
ENDBRANCH  21  23
ENDBRANCH   1  21
TORSDOF 5
ENDMDL
