MODEL 9
REMARK VINA RESULT: -10.469622620      1.557      2.391
REMARK  5 active torsions:
REMARK  status: ('A' for Active; 'I' for Inactive)
REMARK    1  A    between atoms: C2_2  and  C4_4 
REMARK    2  A    between atoms: C4_4  and  C5_5 
REMARK    3  A    between atoms: C5_5  and  C6_6 
REMARK    4  A    between atoms: C6_6  and  C7_7 
REMARK    5  A    between atoms: C7_7  and  C9_9 
ROOT
HETATM    1  C9  UNL     1      56.043  32.201  72.293  1.00  0.00    -0.002 C 
HETATM    2  C10 UNL     1      56.429  33.663  72.313  1.00  0.00     0.006 C 
HETATM    3  C11 UNL     1      57.257  33.895  73.558  1.00  0.00     0.006 C 
HETATM    4  C12 UNL     1      57.753  32.509  73.834  1.00  0.00    -0.002 C 
HETATM    5  C13 UNL     1      58.376  32.307  75.151  1.00  0.00    -0.004 C 
HETATM    6  C14 UNL     1      59.741  33.018  75.168  1.00  0.00     0.010 C 
HETATM    7  C15 UNL     1      60.173  32.997  76.624  1.00  0.00     0.035 C 
HETATM    8  C16 UNL     1      60.123  31.617  77.183  1.00  0.00    -0.068 C 
HETATM    9  C17 UNL     1      60.939  31.355  78.182  1.00  0.00     0.053 C 
HETATM   10  C18 UNL     1      60.926  30.018  78.762  1.00  0.00     0.149 C 
HETATM   11  O1  UNL     1      61.121  29.872  79.997  1.00  0.00    -0.293 OA
HETATM   12  C19 UNL     1      60.683  28.875  77.874  1.00  0.00     0.084 C 
HETATM   13  C20 UNL     1      59.859  29.190  76.658  1.00  0.00     0.022 C 
HETATM   14  C21 UNL     1      59.230  30.565  76.690  1.00  0.00    -0.016 C 
HETATM   15  C22 UNL     1      58.020  30.456  77.626  1.00  0.00     0.020 C 
HETATM   16  C23 UNL     1      58.692  30.846  75.314  1.00  0.00     0.002 C 
HETATM   17  C24 UNL     1      57.563  29.942  74.972  1.00  0.00     0.007 C 
HETATM   18  C25 UNL     1      56.982  30.257  73.590  1.00  0.00     0.010 C 
HETATM   19  C26 UNL     1      56.506  31.674  73.623  1.00  0.00    -0.036 C 
HETATM   20  C27 UNL     1      55.500  31.834  74.708  1.00  0.00     0.016 C 
ENDROOT
BRANCH   1  21
HETATM   21  C7  UNL     1      54.617  31.971  71.969  1.00  0.00    -0.014 C 
HETATM   22  C8  UNL     1      54.382  30.654  71.267  1.00  0.00     0.010 C 
BRANCH  21  23
HETATM   23  C6  UNL     1      54.034  33.023  71.027  1.00  0.00     0.005 C 
BRANCH  23  24
HETATM   24  C5  UNL     1      54.090  32.601  69.608  1.00  0.00     0.001 C 
BRANCH  24  25
HETATM   25  C4  UNL     1      53.809  33.601  68.564  1.00  0.00     0.004 C 
BRANCH  25  26
HETATM   26  C2  UNL     1      54.197  35.007  68.750  1.00  0.00    -0.023 C 
HETATM   27  C1  UNL     1      55.648  35.351  68.663  1.00  0.00     0.009 C 
HETATM   28  C3  UNL     1      53.397  35.975  67.892  1.00  0.00     0.009 C 
ENDBRANCH  25  26
ENDBRANCH  24  25
ENDBRANCH  23  24
ENDBRANCH  21  23
ENDBRANCH   1  21
TORSDOF 5
ENDMDL
