MODEL 3
REMARK VINA RESULT: -10.781584803      2.986      9.046
REMARK  5 active torsions:
REMARK  status: ('A' for Active; 'I' for Inactive)
REMARK    1  A    between atoms: C2_2  and  C4_4 
REMARK    2  A    between atoms: C4_4  and  C5_5 
REMARK    3  A    between atoms: C5_5  and  C6_6 
REMARK    4  A    between atoms: C6_6  and  C7_7 
REMARK    5  A    between atoms: C7_7  and  C9_9 
ROOT
HETATM    1  C9  UNL     1      58.525  30.988  75.148  1.00  0.00    -0.002 C 
HETATM    2  C10 UNL     1      57.498  29.899  75.369  1.00  0.00     0.006 C 
HETATM    3  C11 UNL     1      56.295  30.232  74.514  1.00  0.00     0.006 C 
HETATM    4  C12 UNL     1      56.917  31.116  73.476  1.00  0.00    -0.002 C 
HETATM    5  C13 UNL     1      55.973  31.857  72.625  1.00  0.00    -0.004 C 
HETATM    6  C14 UNL     1      55.290  30.868  71.664  1.00  0.00     0.010 C 
HETATM    7  C15 UNL     1      54.155  31.657  71.035  1.00  0.00     0.035 C 
HETATM    8  C16 UNL     1      54.645  32.937  70.451  1.00  0.00    -0.068 C 
HETATM    9  C17 UNL     1      53.948  33.434  69.451  1.00  0.00     0.053 C 
HETATM   10  C18 UNL     1      54.390  34.685  68.847  1.00  0.00     0.149 C 
HETATM   11  O1  UNL     1      53.536  35.506  68.418  1.00  0.00    -0.293 OA
HETATM   12  C19 UNL     1      55.832  34.946  68.758  1.00  0.00     0.084 C 
HETATM   13  C20 UNL     1      56.656  34.277  69.820  1.00  0.00     0.022 C 
HETATM   14  C21 UNL     1      55.833  33.652  70.925  1.00  0.00    -0.016 C 
HETATM   15  C22 UNL     1      55.393  34.809  71.831  1.00  0.00     0.020 C 
HETATM   16  C23 UNL     1      56.755  32.787  71.740  1.00  0.00     0.002 C 
HETATM   17  C24 UNL     1      57.770  33.597  72.462  1.00  0.00     0.007 C 
HETATM   18  C25 UNL     1      58.682  32.723  73.329  1.00  0.00     0.010 C 
HETATM   19  C26 UNL     1      57.808  32.012  74.311  1.00  0.00    -0.036 C 
HETATM   20  C27 UNL     1      57.051  33.011  75.115  1.00  0.00     0.016 C 
ENDROOT
BRANCH   1  21
HETATM   21  C7  UNL     1      59.132  31.489  76.400  1.00  0.00    -0.014 C 
HETATM   22  C8  UNL     1      60.566  31.044  76.573  1.00  0.00     0.010 C 
BRANCH  21  23
HETATM   23  C6  UNL     1      58.418  30.996  77.658  1.00  0.00     0.005 C 
BRANCH  23  24
HETATM   24  C5  UNL     1      59.215  29.993  78.401  1.00  0.00     0.001 C 
BRANCH  24  25
HETATM   25  C4  UNL     1      58.620  28.671  78.661  1.00  0.00     0.004 C 
BRANCH  25  26
HETATM   26  C2  UNL     1      58.888  27.539  77.763  1.00  0.00    -0.023 C 
HETATM   27  C1  UNL     1      59.953  26.568  78.157  1.00  0.00     0.009 C 
HETATM   28  C3  UNL     1      57.637  26.776  77.357  1.00  0.00     0.009 C 
ENDBRANCH  25  26
ENDBRANCH  24  25
ENDBRANCH  23  24
ENDBRANCH  21  23
ENDBRANCH   1  21
TORSDOF 5
ENDMDL
