MODEL 1
REMARK VINA RESULT: -8.669262629      0.000      0.000
REMARK  7 active torsions:
REMARK  status: ('A' for Active; 'I' for Inactive)
REMARK    1  A    between atoms: C2_2  and  C3_3 
REMARK    2  A    between atoms: C8_8  and  O1_9 
REMARK    3  A    between atoms: O1_9  and  S1_10 
REMARK    4  A    between atoms: S1_10  and  N1_11 
REMARK    5  A    between atoms: C17_24  and  O4_25 
REMARK    6  A    between atoms: O4_25  and  S2_26 
REMARK    7  A    between atoms: S2_26  and  N2_27 
ROOT
HETATM    1  C3  UNL     1      -6.778   8.220   9.651  1.00  0.00    -0.023 A 
HETATM    2  C4  UNL     1      -6.690   7.582  10.871  1.00  0.00     0.018 A 
HETATM    3  C5  UNL     1      -5.508   7.531  11.591  1.00  0.00    -0.047 A 
HETATM    4  C6  UNL     1      -4.364   8.126  11.104  1.00  0.00    -0.049 A 
HETATM    5  C7  UNL     1      -4.454   8.760   9.891  1.00  0.00     0.046 A 
HETATM    6  C8  UNL     1      -5.638   8.819   9.156  1.00  0.00     0.098 A 
HETATM    7  C9  UNL     1      -3.055   8.124  11.805  1.00  0.00     0.039 C 
HETATM    8  C10 UNL     1      -3.063   7.276  13.049  1.00  0.00     0.010 C 
HETATM    9  C11 UNL     1      -4.075   6.145  12.944  1.00  0.00    -0.001 C 
HETATM   10  C12 UNL     1      -5.441   6.847  12.885  1.00  0.00     0.024 C 
HETATM   11  C13 UNL     1      -6.577   5.897  13.018  1.00  0.00     0.010 C 
HETATM   12  C14 UNL     1      -6.470   4.979  14.224  1.00  0.00     0.013 C 
HETATM   13  C15 UNL     1      -5.165   4.272  14.128  1.00  0.00    -0.012 C 
HETATM   14  C16 UNL     1      -5.143   3.437  12.883  1.00  0.00     0.018 C 
HETATM   15  C17 UNL     1      -4.827   3.404  15.321  1.00  0.00     0.152 C 
HETATM   16  C18 UNL     1      -3.456   3.773  15.721  1.00  0.00     0.034 C 
HETATM   17  C19 UNL     1      -2.882   4.565  14.530  1.00  0.00     0.008 C 
HETATM   18  C20 UNL     1      -4.090   5.327  14.163  1.00  0.00     0.001 C 
ENDROOT
BRANCH   6  19
HETATM   19  O1  UNL     1      -5.693   9.475   7.921  1.00  0.00    -0.216 OA
BRANCH  19  20
HETATM   20  S1  UNL     1      -5.147   8.742   6.497  1.00  0.00     0.360 S 
HETATM   21  O2  UNL     1      -3.798   9.301   6.112  1.00  0.00    -0.176 OA
HETATM   22  O3  UNL     1      -4.943   7.270   6.732  1.00  0.00    -0.176 OA
BRANCH  20  23
HETATM   23  N1  UNL     1      -6.295   8.909   5.219  1.00  0.00    -0.305 N 
ATOM     24  H12 UNL     1      -7.240   8.527   5.259  1.00  0.00     0.171 HD
ATOM     25  H11 UNL     1      -5.906   9.431   4.434  1.00  0.00     0.171 HD
ENDBRANCH  20  23
ENDBRANCH  19  20
ENDBRANCH   6  19
BRANCH   1  26
HETATM   26  C2  UNL     1      -8.053   8.262   8.900  1.00  0.00     0.037 C 
HETATM   27  C1  UNL     1      -8.247   7.036   8.040  1.00  0.00     0.010 C 
ENDBRANCH   1  26
BRANCH  15  28
HETATM   28  O4  UNL     1      -5.055   2.108  14.981  1.00  0.00    -0.254 OA
BRANCH  28  29
HETATM   29  S2  UNL     1      -4.628   0.931  16.017  1.00  0.00     0.355 S 
HETATM   30  O5  UNL     1      -4.646  -0.382  15.229  1.00  0.00    -0.176 OA
HETATM   31  O6  UNL     1      -3.211   1.021  16.528  1.00  0.00    -0.176 OA
BRANCH  29  32
HETATM   32  N2  UNL     1      -5.758   0.689  17.292  1.00  0.00    -0.306 N 
ATOM     33  H22 UNL     1      -6.752   0.540  17.119  1.00  0.00     0.171 HD
ATOM     34  H21 UNL     1      -5.338   0.709  18.221  1.00  0.00     0.171 HD
ENDBRANCH  29  32
ENDBRANCH  28  29
ENDBRANCH  15  28
TORSDOF 7
ENDMDL
