MODEL 2
REMARK VINA RESULT: -8.428978172      1.169      1.236
REMARK  7 active torsions:
REMARK  status: ('A' for Active; 'I' for Inactive)
REMARK    1  A    between atoms: C2_2  and  C3_3 
REMARK    2  A    between atoms: C8_8  and  O1_9 
REMARK    3  A    between atoms: O1_9  and  S1_10 
REMARK    4  A    between atoms: S1_10  and  N1_11 
REMARK    5  A    between atoms: C17_24  and  O4_25 
REMARK    6  A    between atoms: O4_25  and  S2_26 
REMARK    7  A    between atoms: S2_26  and  N2_27 
ROOT
HETATM    1  C3  UNL     1      -6.495   7.748   9.822  1.00  0.00    -0.023 A 
HETATM    2  C4  UNL     1      -6.434   7.237  11.101  1.00  0.00     0.018 A 
HETATM    3  C5  UNL     1      -5.229   7.006  11.745  1.00  0.00    -0.047 A 
HETATM    4  C6  UNL     1      -4.035   7.284  11.116  1.00  0.00    -0.049 A 
HETATM    5  C7  UNL     1      -4.098   7.793   9.843  1.00  0.00     0.046 A 
HETATM    6  C8  UNL     1      -5.304   8.030   9.184  1.00  0.00     0.098 A 
HETATM    7  C9  UNL     1      -2.697   7.071  11.725  1.00  0.00     0.039 C 
HETATM    8  C10 UNL     1      -2.771   6.380  13.061  1.00  0.00     0.010 C 
HETATM    9  C11 UNL     1      -4.002   5.491  13.159  1.00  0.00    -0.001 C 
HETATM   10  C12 UNL     1      -5.190   6.463  13.104  1.00  0.00     0.024 C 
HETATM   11  C13 UNL     1      -6.483   5.801  13.425  1.00  0.00     0.010 C 
HETATM   12  C14 UNL     1      -6.462   5.013  14.723  1.00  0.00     0.013 C 
HETATM   13  C15 UNL     1      -5.348   4.033  14.629  1.00  0.00    -0.012 C 
HETATM   14  C16 UNL     1      -5.611   3.089  13.495  1.00  0.00     0.018 C 
HETATM   15  C17 UNL     1      -5.093   3.242  15.894  1.00  0.00     0.152 C 
HETATM   16  C18 UNL     1      -3.645   3.345  16.156  1.00  0.00     0.034 C 
HETATM   17  C19 UNL     1      -3.027   3.864  14.844  1.00  0.00     0.008 C 
HETATM   18  C20 UNL     1      -4.078   4.828  14.466  1.00  0.00     0.001 C 
ENDROOT
BRANCH   6  19
HETATM   19  O1  UNL     1      -5.331   8.550   7.885  1.00  0.00    -0.216 OA
BRANCH  19  20
HETATM   20  S1  UNL     1      -4.853   7.631   6.547  1.00  0.00     0.360 S 
HETATM   21  O2  UNL     1      -3.387   7.859   6.262  1.00  0.00    -0.176 OA
HETATM   22  O3  UNL     1      -4.999   6.167   6.861  1.00  0.00    -0.176 OA
BRANCH  20  23
HETATM   23  N1  UNL     1      -5.831   7.967   5.167  1.00  0.00    -0.305 N 
ATOM     24  H12 UNL     1      -6.508   7.307   4.784  1.00  0.00     0.171 HD
ATOM     25  H11 UNL     1      -5.642   8.897   4.792  1.00  0.00     0.171 HD
ENDBRANCH  20  23
ENDBRANCH  19  20
ENDBRANCH   6  19
BRANCH   1  26
HETATM   26  C2  UNL     1      -7.795   7.988   9.154  1.00  0.00     0.037 C 
HETATM   27  C1  UNL     1      -8.133   6.901   8.161  1.00  0.00     0.010 C 
ENDBRANCH   1  26
BRANCH  15  28
HETATM   28  O4  UNL     1      -5.615   1.998  15.729  1.00  0.00    -0.254 OA
BRANCH  28  29
HETATM   29  S2  UNL     1      -6.166   1.192  17.027  1.00  0.00     0.355 S 
HETATM   30  O5  UNL     1      -7.663   0.964  16.806  1.00  0.00    -0.176 OA
HETATM   31  O6  UNL     1      -5.613  -0.202  17.188  1.00  0.00    -0.176 OA
BRANCH  29  32
HETATM   32  N2  UNL     1      -6.075   2.093  18.491  1.00  0.00    -0.306 N 
ATOM     33  H22 UNL     1      -6.753   2.818  18.728  1.00  0.00     0.171 HD
ATOM     34  H21 UNL     1      -5.288   1.833  19.085  1.00  0.00     0.171 HD
ENDBRANCH  29  32
ENDBRANCH  28  29
ENDBRANCH  15  28
TORSDOF 7
ENDMDL
