MODEL 3
REMARK VINA RESULT: -8.391464054      1.280      1.486
REMARK  7 active torsions:
REMARK  status: ('A' for Active; 'I' for Inactive)
REMARK    1  A    between atoms: C2_2  and  C3_3 
REMARK    2  A    between atoms: C8_8  and  O1_9 
REMARK    3  A    between atoms: O1_9  and  S1_10 
REMARK    4  A    between atoms: S1_10  and  N1_11 
REMARK    5  A    between atoms: C17_24  and  O4_25 
REMARK    6  A    between atoms: O4_25  and  S2_26 
REMARK    7  A    between atoms: S2_26  and  N2_27 
ROOT
HETATM    1  C3  UNL     1      -6.879   8.208   9.677  1.00  0.00    -0.023 A 
HETATM    2  C4  UNL     1      -6.773   7.565  10.892  1.00  0.00     0.018 A 
HETATM    3  C5  UNL     1      -5.585   7.530  11.605  1.00  0.00    -0.047 A 
HETATM    4  C6  UNL     1      -4.455   8.146  11.113  1.00  0.00    -0.049 A 
HETATM    5  C7  UNL     1      -4.563   8.785   9.904  1.00  0.00     0.046 A 
HETATM    6  C8  UNL     1      -5.752   8.828   9.176  1.00  0.00     0.098 A 
HETATM    7  C9  UNL     1      -3.141   8.162  11.805  1.00  0.00     0.039 C 
HETATM    8  C10 UNL     1      -3.127   7.309  13.046  1.00  0.00     0.010 C 
HETATM    9  C11 UNL     1      -4.121   6.161  12.941  1.00  0.00    -0.001 C 
HETATM   10  C12 UNL     1      -5.498   6.841  12.894  1.00  0.00     0.024 C 
HETATM   11  C13 UNL     1      -6.618   5.872  13.030  1.00  0.00     0.010 C 
HETATM   12  C14 UNL     1      -6.488   4.950  14.231  1.00  0.00     0.013 C 
HETATM   13  C15 UNL     1      -5.172   4.265  14.123  1.00  0.00    -0.012 C 
HETATM   14  C16 UNL     1      -5.145   3.437  12.873  1.00  0.00     0.018 C 
HETATM   15  C17 UNL     1      -4.812   3.397  15.309  1.00  0.00     0.152 C 
HETATM   16  C18 UNL     1      -3.445   3.787  15.702  1.00  0.00     0.034 C 
HETATM   17  C19 UNL     1      -2.892   4.593  14.511  1.00  0.00     0.008 C 
HETATM   18  C20 UNL     1      -4.115   5.337  14.156  1.00  0.00     0.001 C 
ENDROOT
BRANCH   6  19
HETATM   19  O1  UNL     1      -5.826   9.489   7.945  1.00  0.00    -0.216 OA
BRANCH  19  20
HETATM   20  S1  UNL     1      -6.164  11.143   7.840  1.00  0.00     0.360 S 
HETATM   21  O2  UNL     1      -4.989  11.873   7.231  1.00  0.00    -0.176 OA
HETATM   22  O3  UNL     1      -7.326  11.364   6.910  1.00  0.00    -0.176 OA
BRANCH  20  23
HETATM   23  N1  UNL     1      -6.596  11.799   9.375  1.00  0.00    -0.305 N 
ATOM     24  H12 UNL     1      -5.918  12.184  10.033  1.00  0.00     0.171 HD
ATOM     25  H11 UNL     1      -7.603  11.751   9.533  1.00  0.00     0.171 HD
ENDBRANCH  20  23
ENDBRANCH  19  20
ENDBRANCH   6  19
BRANCH   1  26
HETATM   26  C2  UNL     1      -8.159   8.233   8.933  1.00  0.00     0.037 C 
HETATM   27  C1  UNL     1      -8.295   7.057   7.994  1.00  0.00     0.010 C 
ENDBRANCH   1  26
BRANCH  15  28
HETATM   28  O4  UNL     1      -5.021   2.098  14.964  1.00  0.00    -0.254 OA
BRANCH  28  29
HETATM   29  S2  UNL     1      -4.619   0.926  16.015  1.00  0.00     0.355 S 
HETATM   30  O5  UNL     1      -4.647  -0.393  15.239  1.00  0.00    -0.176 OA
HETATM   31  O6  UNL     1      -3.207   1.002  16.538  1.00  0.00    -0.176 OA
BRANCH  29  32
HETATM   32  N2  UNL     1      -5.764   0.710  17.282  1.00  0.00    -0.306 N 
ATOM     33  H22 UNL     1      -6.032   1.469  17.909  1.00  0.00     0.171 HD
ATOM     34  H21 UNL     1      -6.139  -0.236  17.339  1.00  0.00     0.171 HD
ENDBRANCH  29  32
ENDBRANCH  28  29
ENDBRANCH  15  28
TORSDOF 7
ENDMDL
