MODEL 5
REMARK VINA RESULT: -7.617924246      5.163      8.049
REMARK  5 active torsions:
REMARK  status: ('A' for Active; 'I' for Inactive)
REMARK    1  A    between atoms: O1_2  and  C2_3 
REMARK    2  A    between atoms: C7_8  and  O2_9 
REMARK    3  A    between atoms: O2_9  and  S1_10 
REMARK    4  A    between atoms: S1_10  and  N1_11 
REMARK    5  A    between atoms: C16_24  and  O5_25 
ROOT
HETATM    1  C2  UNL     1       3.344   0.800 -15.061  1.00  0.00     0.103 A 
HETATM    2  C3  UNL     1       2.888   2.091 -15.357  1.00  0.00     0.047 A 
HETATM    3  C4  UNL     1       1.947   2.315 -16.331  1.00  0.00    -0.044 A 
HETATM    4  C5  UNL     1       1.411   1.270 -17.058  1.00  0.00    -0.049 A 
HETATM    5  C6  UNL     1       1.864  -0.004 -16.764  1.00  0.00     0.049 A 
HETATM    6  C7  UNL     1       2.810  -0.241 -15.787  1.00  0.00     0.124 A 
HETATM    7  C8  UNL     1       0.410   1.422 -18.110  1.00  0.00     0.039 C 
HETATM    8  C9  UNL     1       0.208   2.799 -18.610  1.00  0.00     0.010 C 
HETATM    9  C10 UNL     1       1.168   3.839 -18.108  1.00  0.00    -0.001 C 
HETATM   10  C11 UNL     1       1.488   3.664 -16.620  1.00  0.00     0.024 C 
HETATM   11  C12 UNL     1       2.388   4.765 -16.174  1.00  0.00     0.010 C 
HETATM   12  C13 UNL     1       1.827   6.125 -16.455  1.00  0.00     0.013 C 
HETATM   13  C14 UNL     1       1.507   6.270 -17.898  1.00  0.00    -0.014 C 
HETATM   14  C15 UNL     1       2.723   6.186 -18.755  1.00  0.00     0.018 C 
HETATM   15  C16 UNL     1       0.700   7.477 -18.250  1.00  0.00     0.126 C 
HETATM   16  C17 UNL     1      -0.180   7.047 -19.408  1.00  0.00     0.033 C 
HETATM   17  C18 UNL     1       0.017   5.547 -19.556  1.00  0.00     0.008 C 
HETATM   18  C19 UNL     1       0.500   5.160 -18.214  1.00  0.00     0.001 C 
ENDROOT
BRANCH   6  19
HETATM   19  O2  UNL     1       3.264  -1.520 -15.493  1.00  0.00    -0.214 OA
BRANCH  19  20
HETATM   20  S1  UNL     1       2.682  -2.420 -14.178  1.00  0.00     0.360 S 
HETATM   21  O3  UNL     1       1.355  -1.839 -13.764  1.00  0.00    -0.176 OA
HETATM   22  O4  UNL     1       2.454  -3.853 -14.532  1.00  0.00    -0.176 OA
BRANCH  20  23
HETATM   23  N1  UNL     1       3.788  -2.229 -12.871  1.00  0.00    -0.305 N 
ATOM     24  H12 UNL     1       4.723  -2.635 -12.827  1.00  0.00     0.171 HD
ATOM     25  H11 UNL     1       3.342  -1.644 -12.163  1.00  0.00     0.171 HD
ENDBRANCH  20  23
ENDBRANCH  19  20
ENDBRANCH   6  19
BRANCH   1  26
HETATM   26  O1  UNL     1       4.294   0.548 -14.082  1.00  0.00    -0.353 OA
HETATM   27  C1  UNL     1       5.666   0.824 -14.297  1.00  0.00     0.210 C 
ENDBRANCH   1  26
BRANCH  15  28
HETATM   28  O5  UNL     1       1.481   8.549 -18.673  1.00  0.00    -0.395 OA
ATOM     29  H5  UNL     1       1.530   8.621 -19.619  1.00  0.00     0.210 HD
ENDBRANCH  15  28
TORSDOF 5
ENDMDL
