MODEL 1
REMARK VINA RESULT: -8.099271100      0.000      0.000
REMARK  5 active torsions:
REMARK  status: ('A' for Active; 'I' for Inactive)
REMARK    1  A    between atoms: O1_2  and  C2_3 
REMARK    2  A    between atoms: C7_8  and  O2_9 
REMARK    3  A    between atoms: O2_9  and  S1_10 
REMARK    4  A    between atoms: S1_10  and  N1_11 
REMARK    5  A    between atoms: C16_24  and  O5_25 
ROOT
HETATM    1  C2  UNL     1       1.373   3.784 -18.596  1.00  0.00     0.103 A 
HETATM    2  C3  UNL     1       1.936   2.638 -19.170  1.00  0.00     0.047 A 
HETATM    3  C4  UNL     1       3.153   2.152 -18.762  1.00  0.00    -0.044 A 
HETATM    4  C5  UNL     1       3.872   2.778 -17.763  1.00  0.00    -0.049 A 
HETATM    5  C6  UNL     1       3.314   3.911 -17.197  1.00  0.00     0.049 A 
HETATM    6  C7  UNL     1       2.091   4.408 -17.600  1.00  0.00     0.124 A 
HETATM    7  C8  UNL     1       5.171   2.329 -17.272  1.00  0.00     0.039 C 
HETATM    8  C9  UNL     1       5.867   1.334 -18.117  1.00  0.00     0.010 C 
HETATM    9  C10 UNL     1       5.244   1.039 -19.451  1.00  0.00    -0.001 C 
HETATM   10  C11 UNL     1       3.717   0.959 -19.374  1.00  0.00     0.024 C 
HETATM   11  C12 UNL     1       3.171   0.596 -20.713  1.00  0.00     0.010 C 
HETATM   12  C13 UNL     1       3.757  -0.670 -21.257  1.00  0.00     0.013 C 
HETATM   13  C14 UNL     1       5.239  -0.581 -21.308  1.00  0.00    -0.014 C 
HETATM   14  C15 UNL     1       5.706   0.477 -22.247  1.00  0.00     0.018 C 
HETATM   15  C16 UNL     1       5.942  -1.870 -21.578  1.00  0.00     0.126 C 
HETATM   16  C17 UNL     1       7.240  -1.790 -20.797  1.00  0.00     0.033 C 
HETATM   17  C18 UNL     1       7.147  -0.531 -19.950  1.00  0.00     0.008 C 
HETATM   18  C19 UNL     1       5.689  -0.315 -19.868  1.00  0.00     0.001 C 
ENDROOT
BRANCH   6  19
HETATM   19  O2  UNL     1       1.532   5.545 -17.031  1.00  0.00    -0.214 OA
BRANCH  19  20
HETATM   20  S1  UNL     1       1.837   7.108 -17.615  1.00  0.00     0.360 S 
HETATM   21  O3  UNL     1       1.801   8.060 -16.447  1.00  0.00    -0.176 OA
HETATM   22  O4  UNL     1       3.186   7.222 -18.245  1.00  0.00    -0.176 OA
BRANCH  20  23
HETATM   23  N1  UNL     1       0.564   7.531 -18.696  1.00  0.00    -0.305 N 
ATOM     24  H12 UNL     1      -0.024   6.866 -19.201  1.00  0.00     0.171 HD
ATOM     25  H11 UNL     1       0.508   8.548 -18.736  1.00  0.00     0.171 HD
ENDBRANCH  20  23
ENDBRANCH  19  20
ENDBRANCH   6  19
BRANCH   1  26
HETATM   26  O1  UNL     1       0.146   4.295 -18.990  1.00  0.00    -0.353 OA
HETATM   27  C1  UNL     1      -0.174   4.471 -20.359  1.00  0.00     0.210 C 
ENDBRANCH   1  26
BRANCH  15  28
HETATM   28  O5  UNL     1       6.255  -2.048 -22.923  1.00  0.00    -0.395 OA
ATOM     29  H5  UNL     1       6.666  -2.885 -23.101  1.00  0.00     0.210 HD
ENDBRANCH  15  28
TORSDOF 5
ENDMDL
