MODEL 8
REMARK VINA RESULT: -7.493760128      4.270      5.575
REMARK  5 active torsions:
REMARK  status: ('A' for Active; 'I' for Inactive)
REMARK    1  A    between atoms: O1_2  and  C2_3 
REMARK    2  A    between atoms: C7_8  and  O2_9 
REMARK    3  A    between atoms: O2_9  and  S1_10 
REMARK    4  A    between atoms: S1_10  and  N1_11 
REMARK    5  A    between atoms: C16_24  and  O5_25 
ROOT
HETATM    1  C2  UNL     1       3.154   2.815 -18.447  1.00  0.00     0.103 A 
HETATM    2  C3  UNL     1       2.931   1.453 -18.211  1.00  0.00     0.047 A 
HETATM    3  C4  UNL     1       1.683   0.896 -18.332  1.00  0.00    -0.044 A 
HETATM    4  C5  UNL     1       0.593   1.663 -18.694  1.00  0.00    -0.049 A 
HETATM    5  C6  UNL     1       0.814   3.009 -18.926  1.00  0.00     0.049 A 
HETATM    6  C7  UNL     1       2.066   3.579 -18.807  1.00  0.00     0.124 A 
HETATM    7  C8  UNL     1      -0.766   1.150 -18.842  1.00  0.00     0.039 C 
HETATM    8  C9  UNL     1      -1.013  -0.191 -18.270  1.00  0.00     0.010 C 
HETATM    9  C10 UNL     1       0.103  -0.786 -17.460  1.00  0.00    -0.001 C 
HETATM   10  C11 UNL     1       1.477  -0.522 -18.082  1.00  0.00     0.024 C 
HETATM   11  C12 UNL     1       2.528  -1.196 -17.267  1.00  0.00     0.010 C 
HETATM   12  C13 UNL     1       2.279  -2.663 -17.096  1.00  0.00     0.013 C 
HETATM   13  C14 UNL     1       0.936  -2.901 -16.508  1.00  0.00    -0.014 C 
HETATM   14  C15 UNL     1       0.817  -2.342 -15.133  1.00  0.00     0.018 C 
HETATM   15  C16 UNL     1       0.473  -4.320 -16.540  1.00  0.00     0.126 C 
HETATM   16  C17 UNL     1      -1.031  -4.248 -16.730  1.00  0.00     0.033 C 
HETATM   17  C18 UNL     1      -1.353  -2.786 -16.993  1.00  0.00     0.008 C 
HETATM   18  C19 UNL     1      -0.061  -2.261 -17.480  1.00  0.00     0.001 C 
ENDROOT
BRANCH   6  19
HETATM   19  O2  UNL     1       2.287   4.930 -19.041  1.00  0.00    -0.214 OA
BRANCH  19  20
HETATM   20  S1  UNL     1       2.261   6.092 -17.805  1.00  0.00     0.360 S 
HETATM   21  O3  UNL     1       3.224   7.190 -18.175  1.00  0.00    -0.176 OA
HETATM   22  O4  UNL     1       0.912   6.713 -17.644  1.00  0.00    -0.176 OA
BRANCH  20  23
HETATM   23  N1  UNL     1       2.822   5.343 -16.359  1.00  0.00    -0.305 N 
ATOM     24  H12 UNL     1       2.390   4.537 -15.907  1.00  0.00     0.171 HD
ATOM     25  H11 UNL     1       3.652   5.847 -16.045  1.00  0.00     0.171 HD
ENDBRANCH  20  23
ENDBRANCH  19  20
ENDBRANCH   6  19
BRANCH   1  26
HETATM   26  O1  UNL     1       4.405   3.401 -18.332  1.00  0.00    -0.353 OA
HETATM   27  C1  UNL     1       5.525   2.665 -17.874  1.00  0.00     0.210 C 
ENDBRANCH   1  26
BRANCH  15  28
HETATM   28  O5  UNL     1       0.728  -5.002 -15.353  1.00  0.00    -0.395 OA
ATOM     29  H5  UNL     1       0.054  -5.636 -15.138  1.00  0.00     0.210 HD
ENDBRANCH  15  28
TORSDOF 5
ENDMDL
