MODEL 2
REMARK VINA RESULT: -7.926090464      3.838      5.106
REMARK  5 active torsions:
REMARK  status: ('A' for Active; 'I' for Inactive)
REMARK    1  A    between atoms: O1_2  and  C2_3 
REMARK    2  A    between atoms: C7_8  and  O2_9 
REMARK    3  A    between atoms: O2_9  and  S1_10 
REMARK    4  A    between atoms: S1_10  and  N1_11 
REMARK    5  A    between atoms: C16_24  and  O5_25 
ROOT
HETATM    1  C2  UNL     1       2.674   3.881 -16.394  1.00  0.00     0.103 A 
HETATM    2  C3  UNL     1       2.753   2.489 -16.521  1.00  0.00     0.047 A 
HETATM    3  C4  UNL     1       1.789   1.771 -17.185  1.00  0.00    -0.044 A 
HETATM    4  C5  UNL     1       0.700   2.400 -17.756  1.00  0.00    -0.049 A 
HETATM    5  C6  UNL     1       0.624   3.776 -17.629  1.00  0.00     0.049 A 
HETATM    6  C7  UNL     1       1.587   4.506 -16.964  1.00  0.00     0.124 A 
HETATM    7  C8  UNL     1      -0.368   1.712 -18.476  1.00  0.00     0.039 C 
HETATM    8  C9  UNL     1      -0.419   0.245 -18.301  1.00  0.00     0.010 C 
HETATM    9  C10 UNL     1       0.513  -0.338 -17.277  1.00  0.00    -0.001 C 
HETATM   10  C11 UNL     1       1.893   0.326 -17.304  1.00  0.00     0.024 C 
HETATM   11  C12 UNL     1       2.785  -0.345 -16.315  1.00  0.00     0.010 C 
HETATM   12  C13 UNL     1       2.887  -1.823 -16.532  1.00  0.00     0.013 C 
HETATM   13  C14 UNL     1       1.539  -2.447 -16.520  1.00  0.00    -0.014 C 
HETATM   14  C15 UNL     1       0.868  -2.311 -15.197  1.00  0.00     0.018 C 
HETATM   15  C16 UNL     1       1.493  -3.864 -16.989  1.00  0.00     0.126 C 
HETATM   16  C17 UNL     1       0.152  -4.013 -17.685  1.00  0.00     0.033 C 
HETATM   17  C18 UNL     1      -0.444  -2.617 -17.757  1.00  0.00     0.008 C 
HETATM   18  C19 UNL     1       0.752  -1.757 -17.640  1.00  0.00     0.001 C 
ENDROOT
BRANCH   6  19
HETATM   19  O2  UNL     1       1.510   5.887 -16.837  1.00  0.00    -0.214 OA
BRANCH  19  20
HETATM   20  S1  UNL     1       1.954   6.950 -18.082  1.00  0.00     0.360 S 
HETATM   21  O3  UNL     1       1.706   8.358 -17.606  1.00  0.00    -0.176 OA
HETATM   22  O4  UNL     1       3.404   6.841 -18.425  1.00  0.00    -0.176 OA
BRANCH  20  23
HETATM   23  N1  UNL     1       0.929   6.646 -19.433  1.00  0.00    -0.305 N 
ATOM     24  H12 UNL     1      -0.076   6.818 -19.458  1.00  0.00     0.171 HD
ATOM     25  H11 UNL     1       1.504   6.271 -20.187  1.00  0.00     0.171 HD
ENDBRANCH  20  23
ENDBRANCH  19  20
ENDBRANCH   6  19
BRANCH   1  26
HETATM   26  O1  UNL     1       3.635   4.628 -15.729  1.00  0.00    -0.353 OA
HETATM   27  C1  UNL     1       3.776   4.562 -14.322  1.00  0.00     0.210 C 
ENDBRANCH   1  26
BRANCH  15  28
HETATM   28  O5  UNL     1       1.544  -4.784 -15.945  1.00  0.00    -0.395 OA
ATOM     29  H5  UNL     1       1.027  -5.563 -16.112  1.00  0.00     0.210 HD
ENDBRANCH  15  28
TORSDOF 5
ENDMDL
