MODEL 1
REMARK VINA RESULT: -6.087830206      0.000      0.000
REMARK  3 active torsions:
REMARK  status: ('A' for Active; 'I' for Inactive)
REMARK    1  A    between atoms: C2_2  and  C3_3 
REMARK    2  A    between atoms: C2_2  and  C4_5 
REMARK       I    between atoms: C4_5  and  N1_7 
REMARK    3  A    between atoms: C8_11  and  C9_12 
ROOT
HETATM    1  C4  UNL     1      30.259   5.929 -43.831  1.00  0.00     0.225 C 
HETATM    2  O1  UNL     1      31.155   5.189 -43.359  1.00  0.00    -0.273 OA
HETATM    3  N1  UNL     1      28.898   5.650 -43.546  1.00  0.00    -0.337 N 
HETATM    4  C5  UNL     1      27.749   6.408 -44.016  1.00  0.00     0.127 C 
HETATM    5  C6  UNL     1      26.904   6.396 -42.733  1.00  0.00     0.022 C 
HETATM    6  C7  UNL     1      26.927   4.906 -42.459  1.00  0.00     0.038 C 
HETATM    7  C8  UNL     1      28.375   4.567 -42.737  1.00  0.00     0.188 C 
ENDROOT
BRANCH   1   8
HETATM    8  C2  UNL     1      30.666   7.074 -44.677  1.00  0.00     0.084 C 
HETATM    9  C1  UNL     1      31.429   6.677 -45.900  1.00  0.00     0.020 C 
BRANCH   8  10
HETATM   10  C3  UNL     1      31.419   8.100 -43.874  1.00  0.00     0.099 C 
HETATM   11  S1  UNL     1      30.336   8.957 -42.714  1.00  0.00    -0.097 SA
ENDBRANCH   8  10
ENDBRANCH   1   8
BRANCH   7  12
HETATM   12  C9  UNL     1      28.474   3.287 -43.516  1.00  0.00     0.196 C 
HETATM   13  O2  UNL     1      29.132   2.360 -43.019  1.00  0.00    -0.646 OA
HETATM   14  O3  UNL     1      27.860   3.133 -44.743  1.00  0.00    -0.646 OA
ENDBRANCH   7  12
TORSDOF 3
ENDMDL
