MODEL 3
REMARK VINA RESULT: -5.744210995      3.152      4.427
REMARK  3 active torsions:
REMARK  status: ('A' for Active; 'I' for Inactive)
REMARK    1  A    between atoms: C2_2  and  C3_3 
REMARK    2  A    between atoms: C2_2  and  C4_5 
REMARK       I    between atoms: C4_5  and  N1_7 
REMARK    3  A    between atoms: C8_11  and  C9_12 
ROOT
HETATM    1  C4  UNL     1      28.399   8.714 -45.113  1.00  0.00     0.225 C 
HETATM    2  O1  UNL     1      27.649   8.065 -45.881  1.00  0.00    -0.273 OA
HETATM    3  N1  UNL     1      29.589   8.117 -44.629  1.00  0.00    -0.337 N 
HETATM    4  C5  UNL     1      30.558   8.734 -43.735  1.00  0.00     0.127 C 
HETATM    5  C6  UNL     1      31.853   8.237 -44.396  1.00  0.00     0.022 C 
HETATM    6  C7  UNL     1      31.526   6.759 -44.458  1.00  0.00     0.038 C 
HETATM    7  C8  UNL     1      30.085   6.786 -44.918  1.00  0.00     0.188 C 
ENDROOT
BRANCH   1   8
HETATM    8  C2  UNL     1      28.002  10.092 -44.741  1.00  0.00     0.084 C 
HETATM    9  C1  UNL     1      26.553  10.227 -44.396  1.00  0.00     0.020 C 
BRANCH   8  10
HETATM   10  C3  UNL     1      28.404  11.078 -45.805  1.00  0.00     0.099 C 
HETATM   11  S1  UNL     1      26.964  11.820 -46.596  1.00  0.00    -0.097 SA
ENDBRANCH   8  10
ENDBRANCH   1   8
BRANCH   7  12
HETATM   12  C9  UNL     1      29.270   5.786 -44.148  1.00  0.00     0.196 C 
HETATM   13  O2  UNL     1      28.544   5.015 -44.794  1.00  0.00    -0.646 OA
HETATM   14  O3  UNL     1      29.317   5.717 -42.770  1.00  0.00    -0.646 OA
ENDBRANCH   7  12
TORSDOF 3
ENDMDL
