MODEL 6
REMARK VINA RESULT: -5.553010865      2.672      4.838
REMARK  3 active torsions:
REMARK  status: ('A' for Active; 'I' for Inactive)
REMARK    1  A    between atoms: C2_2  and  C3_3 
REMARK    2  A    between atoms: C2_2  and  C4_5 
REMARK       I    between atoms: C4_5  and  N1_7 
REMARK    3  A    between atoms: C8_11  and  C9_12 
ROOT
HETATM    1  C4  UNL     1      29.022   3.899 -43.461  1.00  0.00     0.225 C 
HETATM    2  O1  UNL     1      29.747   3.000 -42.971  1.00  0.00    -0.273 OA
HETATM    3  N1  UNL     1      29.624   5.053 -44.023  1.00  0.00    -0.337 N 
HETATM    4  C5  UNL     1      28.924   6.178 -44.626  1.00  0.00     0.127 C 
HETATM    5  C6  UNL     1      29.851   6.428 -45.827  1.00  0.00     0.022 C 
HETATM    6  C7  UNL     1      31.170   6.502 -45.086  1.00  0.00     0.038 C 
HETATM    7  C8  UNL     1      31.039   5.351 -44.113  1.00  0.00     0.188 C 
ENDROOT
BRANCH   1   8
HETATM    8  C2  UNL     1      27.554   3.713 -43.431  1.00  0.00     0.084 C 
HETATM    9  C1  UNL     1      26.833   4.752 -42.633  1.00  0.00     0.020 C 
BRANCH   8  10
HETATM   10  C3  UNL     1      27.192   2.325 -42.972  1.00  0.00     0.099 C 
HETATM   11  S1  UNL     1      26.761   1.262 -44.363  1.00  0.00    -0.097 SA
ENDBRANCH   8  10
ENDBRANCH   1   8
BRANCH   7  12
HETATM   12  C9  UNL     1      31.539   5.751 -42.755  1.00  0.00     0.196 C 
HETATM   13  O2  UNL     1      31.198   6.862 -42.320  1.00  0.00    -0.646 OA
HETATM   14  O3  UNL     1      32.353   4.923 -42.007  1.00  0.00    -0.646 OA
ENDBRANCH   7  12
TORSDOF 3
ENDMDL
