MODEL 2
REMARK VINA RESULT: -5.889180777      4.376      5.587
REMARK  3 active torsions:
REMARK  status: ('A' for Active; 'I' for Inactive)
REMARK    1  A    between atoms: C2_2  and  C3_3 
REMARK    2  A    between atoms: C2_2  and  C4_5 
REMARK       I    between atoms: C4_5  and  N1_7 
REMARK    3  A    between atoms: C8_11  and  C9_12 
ROOT
HETATM    1  C4  UNL     1      28.980   8.157 -45.208  1.00  0.00     0.225 C 
HETATM    2  O1  UNL     1      28.389   7.914 -46.287  1.00  0.00    -0.273 OA
HETATM    3  N1  UNL     1      28.707   9.365 -44.517  1.00  0.00    -0.337 N 
HETATM    4  C5  UNL     1      29.307   9.790 -43.261  1.00  0.00     0.127 C 
HETATM    5  C6  UNL     1      28.061  10.377 -42.580  1.00  0.00     0.022 C 
HETATM    6  C7  UNL     1      27.602  11.294 -43.695  1.00  0.00     0.038 C 
HETATM    7  C8  UNL     1      27.787  10.413 -44.910  1.00  0.00     0.188 C 
ENDROOT
BRANCH   1   8
HETATM    8  C2  UNL     1      29.948   7.160 -44.697  1.00  0.00     0.084 C 
HETATM    9  C1  UNL     1      31.304   7.267 -45.317  1.00  0.00     0.020 C 
BRANCH   8  10
HETATM   10  C3  UNL     1      29.402   5.762 -44.817  1.00  0.00     0.099 C 
HETATM   11  S1  UNL     1      28.079   5.465 -43.629  1.00  0.00    -0.097 SA
ENDBRANCH   8  10
ENDBRANCH   1   8
BRANCH   7  12
HETATM   12  C9  UNL     1      28.395  11.196 -46.038  1.00  0.00     0.196 C 
HETATM   13  O2  UNL     1      27.646  11.556 -46.959  1.00  0.00    -0.646 OA
HETATM   14  O3  UNL     1      29.740  11.509 -46.063  1.00  0.00    -0.646 OA
ENDBRANCH   7  12
TORSDOF 3
ENDMDL
