MODEL 1
REMARK VINA RESULT: -8.181565588      0.000      0.000
REMARK  13 active torsions:
REMARK  status: ('A' for Active; 'I' for Inactive)
REMARK    1  A    between atoms: N1_1  and  C1_5 
REMARK    2  A    between atoms: C1_5  and  C2_6 
REMARK    3  A    between atoms: C2_6  and  C3_7 
REMARK    4  A    between atoms: C3_7  and  C4_8 
REMARK    5  A    between atoms: C4_8  and  C5_9 
REMARK    6  A    between atoms: C5_9  and  N2_10 
REMARK    7  A    between atoms: C5_9  and  C16_24 
REMARK    8  A    between atoms: N2_10  and  C6_12 
REMARK    9  A    between atoms: C6_12  and  C7_13 
REMARK   10  A    between atoms: C6_12  and  C15_21 
REMARK   11  A    between atoms: C7_13  and  C8_14 
REMARK   12  A    between atoms: C8_14  and  C9_15 
REMARK       I    between atoms: C16_24  and  N3_26 
REMARK   13  A    between atoms: C20_30  and  C21_31 
ROOT
HETATM    1  C5  UNL     1      27.789  -5.667  43.186  1.00  0.00     0.074 C 
ENDROOT
BRANCH   1   2
HETATM    2  C4  UNL     1      27.423  -7.097  43.365  1.00  0.00     0.062 C 
BRANCH   2   3
HETATM    3  C3  UNL     1      26.738  -7.445  44.641  1.00  0.00     0.008 C 
BRANCH   3   4
HETATM    4  C2  UNL     1      26.696  -8.954  44.914  1.00  0.00     0.027 C 
BRANCH   4   5
HETATM    5  C1  UNL     1      27.451  -9.635  43.788  1.00  0.00     0.229 C 
BRANCH   5   6
HETATM    6  N1  UNL     1      26.720 -10.809  43.399  1.00  0.00    -0.079 N 
ATOM      7  H13 UNL     1      27.010 -11.641  43.913  1.00  0.00     0.274 HD
ATOM      8  H12 UNL     1      25.748 -10.787  43.709  1.00  0.00     0.274 HD
ATOM      9  H11 UNL     1      26.807 -10.921  42.389  1.00  0.00     0.274 HD
ENDBRANCH   5   6
ENDBRANCH   4   5
ENDBRANCH   3   4
ENDBRANCH   2   3
ENDBRANCH   1   2
BRANCH   1  10
HETATM   10  N2  UNL     1      27.387  -4.752  44.186  1.00  0.00    -0.374 N 
ATOM     11  H2  UNL     1      26.406  -4.533  44.354  1.00  0.00     0.160 HD
BRANCH  10  12
HETATM   12  C6  UNL     1      28.453  -4.145  44.957  1.00  0.00     0.183 C 
BRANCH  12  13
HETATM   13  C7  UNL     1      29.766  -4.390  44.286  1.00  0.00     0.041 C 
BRANCH  13  14
HETATM   14  C8  UNL     1      30.896  -4.843  45.122  1.00  0.00     0.041 C 
BRANCH  14  15
HETATM   15  C9  UNL     1      30.497  -6.196  45.673  1.00  0.00    -0.058 A 
HETATM   16  C10 UNL     1      29.777  -6.311  46.845  1.00  0.00     0.007 A 
HETATM   17  C11 UNL     1      29.402  -7.524  47.368  1.00  0.00     0.001 A 
HETATM   18  C12 UNL     1      29.744  -8.680  46.720  1.00  0.00     0.000 A 
HETATM   19  C13 UNL     1      30.464  -8.601  45.545  1.00  0.00     0.001 A 
HETATM   20  C14 UNL     1      30.827  -7.373  45.042  1.00  0.00     0.007 A 
ENDBRANCH  14  15
ENDBRANCH  13  14
ENDBRANCH  12  13
BRANCH  12  21
HETATM   21  C15 UNL     1      28.297  -2.668  44.983  1.00  0.00     0.196 C 
HETATM   22  O1  UNL     1      28.789  -1.984  44.078  1.00  0.00    -0.646 OA
HETATM   23  O2  UNL     1      27.600  -2.103  46.024  1.00  0.00    -0.646 OA
ENDBRANCH  12  21
ENDBRANCH  10  12
ENDBRANCH   1  10
BRANCH   1  24
HETATM   24  C16 UNL     1      27.616  -5.233  41.781  1.00  0.00     0.266 C 
HETATM   25  O3  UNL     1      26.840  -4.226  41.538  1.00  0.00    -0.266 OA
HETATM   26  N3  UNL     1      28.235  -5.840  40.651  1.00  0.00    -0.332 N 
HETATM   27  C17 UNL     1      29.127  -6.986  40.609  1.00  0.00     0.127 C 
HETATM   28  C20 UNL     1      28.004  -5.328  39.307  1.00  0.00     0.188 C 
HETATM   29  C18 UNL     1      28.875  -7.508  39.185  1.00  0.00     0.022 C 
HETATM   30  C19 UNL     1      28.790  -6.201  38.395  1.00  0.00     0.038 C 
BRANCH  28  31
HETATM   31  C21 UNL     1      26.559  -5.416  39.029  1.00  0.00     0.196 C 
HETATM   32  O4  UNL     1      25.977  -4.481  38.437  1.00  0.00    -0.646 OA
HETATM   33  O5  UNL     1      25.831  -6.520  39.413  1.00  0.00    -0.646 OA
ENDBRANCH  28  31
ENDBRANCH   1  24
TORSDOF 13
ENDMDL
