MODEL 3
REMARK VINA RESULT: -8.044165886      1.316      1.543
REMARK  13 active torsions:
REMARK  status: ('A' for Active; 'I' for Inactive)
REMARK    1  A    between atoms: N1_1  and  C1_5 
REMARK    2  A    between atoms: C1_5  and  C2_6 
REMARK    3  A    between atoms: C2_6  and  C3_7 
REMARK    4  A    between atoms: C3_7  and  C4_8 
REMARK    5  A    between atoms: C4_8  and  C5_9 
REMARK    6  A    between atoms: C5_9  and  N2_10 
REMARK    7  A    between atoms: C5_9  and  C16_24 
REMARK    8  A    between atoms: N2_10  and  C6_12 
REMARK    9  A    between atoms: C6_12  and  C7_13 
REMARK   10  A    between atoms: C6_12  and  C15_21 
REMARK   11  A    between atoms: C7_13  and  C8_14 
REMARK   12  A    between atoms: C8_14  and  C9_15 
REMARK       I    between atoms: C16_24  and  N3_26 
REMARK   13  A    between atoms: C20_30  and  C21_31 
ROOT
HETATM    1  C5  UNL     1      28.969  -5.710  42.292  1.00  0.00     0.074 C 
ENDROOT
BRANCH   1   2
HETATM    2  C4  UNL     1      28.101  -6.532  43.177  1.00  0.00     0.062 C 
BRANCH   2   3
HETATM    3  C3  UNL     1      27.944  -7.963  42.795  1.00  0.00     0.008 C 
BRANCH   3   4
HETATM    4  C2  UNL     1      29.239  -8.596  42.269  1.00  0.00     0.027 C 
BRANCH   4   5
HETATM    5  C1  UNL     1      28.863  -9.473  41.089  1.00  0.00     0.229 C 
BRANCH   5   6
HETATM    6  N1  UNL     1      27.521  -9.145  40.692  1.00  0.00    -0.079 N 
ATOM      7  H13 UNL     1      26.819  -9.683  41.200  1.00  0.00     0.274 HD
ATOM      8  H12 UNL     1      27.236  -8.217  41.002  1.00  0.00     0.274 HD
ATOM      9  H11 UNL     1      27.449  -9.261  39.682  1.00  0.00     0.274 HD
ENDBRANCH   5   6
ENDBRANCH   4   5
ENDBRANCH   3   4
ENDBRANCH   2   3
ENDBRANCH   1   2
BRANCH   1  10
HETATM   10  N2  UNL     1      29.831  -4.769  42.899  1.00  0.00    -0.374 N 
ATOM     11  H2  UNL     1      30.508  -4.231  42.360  1.00  0.00     0.160 HD
BRANCH  10  12
HETATM   12  C6  UNL     1      29.694  -4.614  44.333  1.00  0.00     0.183 C 
BRANCH  12  13
HETATM   13  C7  UNL     1      31.041  -4.416  44.951  1.00  0.00     0.041 C 
BRANCH  13  14
HETATM   14  C8  UNL     1      31.891  -5.606  45.154  1.00  0.00     0.041 C 
BRANCH  14  15
HETATM   15  C9  UNL     1      31.001  -6.658  45.779  1.00  0.00    -0.058 A 
HETATM   16  C10 UNL     1      30.210  -6.373  46.875  1.00  0.00     0.007 A 
HETATM   17  C11 UNL     1      29.394  -7.308  47.463  1.00  0.00     0.001 A 
HETATM   18  C12 UNL     1      29.343  -8.580  46.961  1.00  0.00     0.000 A 
HETATM   19  C13 UNL     1      30.120  -8.899  45.866  1.00  0.00     0.001 A 
HETATM   20  C14 UNL     1      30.930  -7.944  45.295  1.00  0.00     0.007 A 
ENDBRANCH  14  15
ENDBRANCH  13  14
ENDBRANCH  12  13
BRANCH  12  21
HETATM   21  C15 UNL     1      28.932  -3.380  44.650  1.00  0.00     0.196 C 
HETATM   22  O1  UNL     1      29.118  -2.356  43.981  1.00  0.00    -0.646 OA
HETATM   23  O2  UNL     1      28.032  -3.416  45.688  1.00  0.00    -0.646 OA
ENDBRANCH  12  21
ENDBRANCH  10  12
ENDBRANCH   1  10
BRANCH   1  24
HETATM   24  C16 UNL     1      28.242  -5.261  41.083  1.00  0.00     0.266 C 
HETATM   25  O3  UNL     1      27.221  -4.479  41.231  1.00  0.00    -0.266 OA
HETATM   26  N3  UNL     1      28.569  -5.625  39.744  1.00  0.00    -0.332 N 
HETATM   27  C17 UNL     1      29.631  -6.496  39.272  1.00  0.00     0.127 C 
HETATM   28  C20 UNL     1      27.791  -5.119  38.621  1.00  0.00     0.188 C 
HETATM   29  C18 UNL     1      29.044  -6.988  37.940  1.00  0.00     0.022 C 
HETATM   30  C19 UNL     1      28.403  -5.707  37.400  1.00  0.00     0.038 C 
BRANCH  28  31
HETATM   31  C21 UNL     1      26.397  -5.564  38.796  1.00  0.00     0.196 C 
HETATM   32  O4  UNL     1      25.453  -4.823  38.445  1.00  0.00    -0.646 OA
HETATM   33  O5  UNL     1      26.111  -6.795  39.344  1.00  0.00    -0.646 OA
ENDBRANCH  28  31
ENDBRANCH   1  24
TORSDOF 13
ENDMDL
