MODEL 2
REMARK VINA RESULT: -8.137506140      1.201      1.549
REMARK  13 active torsions:
REMARK  status: ('A' for Active; 'I' for Inactive)
REMARK    1  A    between atoms: N1_1  and  C1_5 
REMARK    2  A    between atoms: C1_5  and  C2_6 
REMARK    3  A    between atoms: C2_6  and  C3_7 
REMARK    4  A    between atoms: C3_7  and  C4_8 
REMARK    5  A    between atoms: C4_8  and  C5_9 
REMARK    6  A    between atoms: C5_9  and  N2_10 
REMARK    7  A    between atoms: C5_9  and  C16_24 
REMARK    8  A    between atoms: N2_10  and  C6_12 
REMARK    9  A    between atoms: C6_12  and  C7_13 
REMARK   10  A    between atoms: C6_12  and  C15_21 
REMARK   11  A    between atoms: C7_13  and  C8_14 
REMARK   12  A    between atoms: C8_14  and  C9_15 
REMARK       I    between atoms: C16_24  and  N3_26 
REMARK   13  A    between atoms: C20_30  and  C21_31 
ROOT
HETATM    1  C5  UNL     1      27.634  -5.983  43.512  1.00  0.00     0.074 C 
ENDROOT
BRANCH   1   2
HETATM    2  C4  UNL     1      26.892  -6.989  44.319  1.00  0.00     0.062 C 
BRANCH   2   3
HETATM    3  C3  UNL     1      27.318  -8.406  44.153  1.00  0.00     0.008 C 
BRANCH   3   4
HETATM    4  C2  UNL     1      26.590  -9.372  45.096  1.00  0.00     0.027 C 
BRANCH   4   5
HETATM    5  C1  UNL     1      26.935 -10.781  44.650  1.00  0.00     0.229 C 
BRANCH   5   6
HETATM    6  N1  UNL     1      26.645 -10.894  43.247  1.00  0.00    -0.079 N 
ATOM      7  H13 UNL     1      27.049 -10.134  42.700  1.00  0.00     0.274 HD
ATOM      8  H12 UNL     1      27.145 -11.664  42.803  1.00  0.00     0.274 HD
ATOM      9  H11 UNL     1      25.634 -10.965  43.133  1.00  0.00     0.274 HD
ENDBRANCH   5   6
ENDBRANCH   4   5
ENDBRANCH   3   4
ENDBRANCH   2   3
ENDBRANCH   1   2
BRANCH   1  10
HETATM   10  N2  UNL     1      27.501  -4.622  43.867  1.00  0.00    -0.374 N 
ATOM     11  H2  UNL     1      26.760  -4.034  43.485  1.00  0.00     0.160 HD
BRANCH  10  12
HETATM   12  C6  UNL     1      28.479  -4.110  44.806  1.00  0.00     0.183 C 
BRANCH  12  13
HETATM   13  C7  UNL     1      29.852  -4.243  44.228  1.00  0.00     0.041 C 
BRANCH  13  14
HETATM   14  C8  UNL     1      30.949  -4.639  45.134  1.00  0.00     0.041 C 
BRANCH  14  15
HETATM   15  C9  UNL     1      30.581  -6.008  45.667  1.00  0.00    -0.058 A 
HETATM   16  C10 UNL     1      29.734  -6.156  46.747  1.00  0.00     0.007 A 
HETATM   17  C11 UNL     1      29.384  -7.384  47.252  1.00  0.00     0.001 A 
HETATM   18  C12 UNL     1      29.881  -8.523  46.678  1.00  0.00     0.000 A 
HETATM   19  C13 UNL     1      30.731  -8.411  45.596  1.00  0.00     0.001 A 
HETATM   20  C14 UNL     1      31.066  -7.168  45.110  1.00  0.00     0.007 A 
ENDBRANCH  14  15
ENDBRANCH  13  14
ENDBRANCH  12  13
BRANCH  12  21
HETATM   21  C15 UNL     1      28.283  -2.653  45.016  1.00  0.00     0.196 C 
HETATM   22  O1  UNL     1      27.683  -2.255  46.022  1.00  0.00    -0.646 OA
HETATM   23  O2  UNL     1      28.782  -1.784  44.076  1.00  0.00    -0.646 OA
ENDBRANCH  12  21
ENDBRANCH  10  12
ENDBRANCH   1  10
BRANCH   1  24
HETATM   24  C16 UNL     1      27.583  -6.301  42.067  1.00  0.00     0.266 C 
HETATM   25  O3  UNL     1      26.472  -6.107  41.432  1.00  0.00    -0.266 OA
HETATM   26  N3  UNL     1      28.667  -6.816  41.299  1.00  0.00    -0.332 N 
HETATM   27  C17 UNL     1      30.011  -7.153  41.735  1.00  0.00     0.127 C 
HETATM   28  C20 UNL     1      28.513  -7.086  39.877  1.00  0.00     0.188 C 
HETATM   29  C18 UNL     1      30.404  -8.217  40.698  1.00  0.00     0.022 C 
HETATM   30  C19 UNL     1      29.824  -7.617  39.416  1.00  0.00     0.038 C 
BRANCH  28  31
HETATM   31  C21 UNL     1      27.439  -8.084  39.717  1.00  0.00     0.196 C 
HETATM   32  O4  UNL     1      26.666  -8.022  38.736  1.00  0.00    -0.646 OA
HETATM   33  O5  UNL     1      27.270  -9.095  40.638  1.00  0.00    -0.646 OA
ENDBRANCH  28  31
ENDBRANCH   1  24
TORSDOF 13
ENDMDL
