MODEL 8
REMARK VINA RESULT: -7.785144018      3.534      6.885
REMARK  13 active torsions:
REMARK  status: ('A' for Active; 'I' for Inactive)
REMARK    1  A    between atoms: N1_1  and  C1_5 
REMARK    2  A    between atoms: C1_5  and  C2_6 
REMARK    3  A    between atoms: C2_6  and  C3_7 
REMARK    4  A    between atoms: C3_7  and  C4_8 
REMARK    5  A    between atoms: C4_8  and  C5_9 
REMARK    6  A    between atoms: C5_9  and  N2_10 
REMARK    7  A    between atoms: C5_9  and  C16_24 
REMARK    8  A    between atoms: N2_10  and  C6_12 
REMARK    9  A    between atoms: C6_12  and  C7_13 
REMARK   10  A    between atoms: C6_12  and  C15_21 
REMARK   11  A    between atoms: C7_13  and  C8_14 
REMARK   12  A    between atoms: C8_14  and  C9_15 
REMARK       I    between atoms: C16_24  and  N3_26 
REMARK   13  A    between atoms: C20_30  and  C21_31 
ROOT
HETATM    1  C5  UNL     1      27.509  -3.658  44.208  1.00  0.00     0.074 C 
ENDROOT
BRANCH   1   2
HETATM    2  C4  UNL     1      26.805  -4.814  43.592  1.00  0.00     0.062 C 
BRANCH   2   3
HETATM    3  C3  UNL     1      26.441  -4.669  42.155  1.00  0.00     0.008 C 
BRANCH   3   4
HETATM    4  C2  UNL     1      27.507  -5.223  41.201  1.00  0.00     0.027 C 
BRANCH   4   5
HETATM    5  C1  UNL     1      27.560  -6.725  41.410  1.00  0.00     0.229 C 
BRANCH   5   6
HETATM    6  N1  UNL     1      26.684  -7.345  40.455  1.00  0.00    -0.079 N 
ATOM      7  H13 UNL     1      25.798  -6.850  40.355  1.00  0.00     0.274 HD
ATOM      8  H12 UNL     1      27.011  -7.238  39.495  1.00  0.00     0.274 HD
ATOM      9  H11 UNL     1      26.559  -8.322  40.720  1.00  0.00     0.274 HD
ENDBRANCH   5   6
ENDBRANCH   4   5
ENDBRANCH   3   4
ENDBRANCH   2   3
ENDBRANCH   1   2
BRANCH   1  10
HETATM   10  N2  UNL     1      27.022  -2.361  43.927  1.00  0.00    -0.374 N 
ATOM     11  H2  UNL     1      26.282  -2.198  43.245  1.00  0.00     0.160 HD
BRANCH  10  12
HETATM   12  C6  UNL     1      27.637  -1.276  44.666  1.00  0.00     0.183 C 
BRANCH  12  13
HETATM   13  C7  UNL     1      27.467   0.006  43.917  1.00  0.00     0.041 C 
BRANCH  13  14
HETATM   14  C8  UNL     1      28.664   0.842  43.695  1.00  0.00     0.041 C 
BRANCH  14  15
HETATM   15  C9  UNL     1      28.289   2.241  44.136  1.00  0.00    -0.058 A 
HETATM   16  C10 UNL     1      27.930   3.212  43.221  1.00  0.00     0.007 A 
HETATM   17  C11 UNL     1      27.586   4.488  43.593  1.00  0.00     0.001 A 
HETATM   18  C12 UNL     1      27.591   4.837  44.917  1.00  0.00     0.000 A 
HETATM   19  C13 UNL     1      27.945   3.891  45.857  1.00  0.00     0.001 A 
HETATM   20  C14 UNL     1      28.286   2.618  45.459  1.00  0.00     0.007 A 
ENDBRANCH  14  15
ENDBRANCH  13  14
ENDBRANCH  12  13
BRANCH  12  21
HETATM   21  C15 UNL     1      26.939  -1.070  45.960  1.00  0.00     0.196 C 
HETATM   22  O1  UNL     1      25.828  -1.583  46.146  1.00  0.00    -0.646 OA
HETATM   23  O2  UNL     1      27.557  -0.309  46.922  1.00  0.00    -0.646 OA
ENDBRANCH  12  21
ENDBRANCH  10  12
ENDBRANCH   1  10
BRANCH   1  24
HETATM   24  C16 UNL     1      28.978  -3.836  44.177  1.00  0.00     0.266 C 
HETATM   25  O3  UNL     1      29.663  -3.166  43.307  1.00  0.00    -0.266 OA
HETATM   26  N3  UNL     1      29.720  -4.701  45.034  1.00  0.00    -0.332 N 
HETATM   27  C17 UNL     1      29.231  -5.585  46.078  1.00  0.00     0.127 C 
HETATM   28  C20 UNL     1      31.169  -4.796  44.926  1.00  0.00     0.188 C 
HETATM   29  C18 UNL     1      30.338  -6.650  46.111  1.00  0.00     0.022 C 
HETATM   30  C19 UNL     1      31.592  -5.787  45.952  1.00  0.00     0.038 C 
BRANCH  28  31
HETATM   31  C21 UNL     1      31.495  -5.256  43.564  1.00  0.00     0.196 C 
HETATM   32  O4  UNL     1      32.455  -4.748  42.944  1.00  0.00    -0.646 OA
HETATM   33  O5  UNL     1      30.754  -6.244  42.954  1.00  0.00    -0.646 OA
ENDBRANCH  28  31
ENDBRANCH   1  24
TORSDOF 13
ENDMDL
