MODEL 3
REMARK VINA RESULT: -9.104658422      2.878      3.897
REMARK  16 active torsions:
REMARK  status: ('A' for Active; 'I' for Inactive)
REMARK    1  A    between atoms: N1_1  and  C1_5 
REMARK    2  A    between atoms: C1_5  and  C2_6 
REMARK    3  A    between atoms: C2_6  and  C3_7 
REMARK    4  A    between atoms: C3_7  and  C4_8 
REMARK    5  A    between atoms: C4_8  and  C5_9 
REMARK    6  A    between atoms: C5_9  and  N2_10 
REMARK    7  A    between atoms: C5_9  and  C16_25 
REMARK    8  A    between atoms: N2_10  and  C6_13 
REMARK    9  A    between atoms: C6_13  and  C7_14 
REMARK   10  A    between atoms: C6_13  and  C15_22 
REMARK   11  A    between atoms: C7_14  and  C8_15 
REMARK   12  A    between atoms: C8_15  and  C9_16 
REMARK       I    between atoms: C16_25  and  N3_27 
REMARK   13  A    between atoms: N3_27  and  C17_29 
REMARK   14  A    between atoms: C17_29  and  C18_30 
REMARK   15  A    between atoms: C17_29  and  C27_41 
REMARK   16  A    between atoms: C18_30  and  C19_31 
ROOT
HETATM    1  C5  UNL     1      27.442  -5.562 -25.449  1.00  0.00     0.278 C 
ENDROOT
BRANCH   1   2
HETATM    2  C4  UNL     1      26.518  -6.481 -24.715  1.00  0.00     0.043 C 
BRANCH   2   3
HETATM    3  C3  UNL     1      27.250  -7.532 -23.899  1.00  0.00     0.004 C 
BRANCH   3   4
HETATM    4  C2  UNL     1      26.508  -8.851 -23.974  1.00  0.00     0.027 C 
BRANCH   4   5
HETATM    5  C1  UNL     1      27.305 -10.026 -24.390  1.00  0.00     0.229 C 
BRANCH   5   6
HETATM    6  N1  UNL     1      26.629 -10.850 -25.370  1.00  0.00    -0.079 N 
ATOM      7  H13 UNL     1      25.638 -10.615 -25.422  1.00  0.00     0.274 HD
ATOM      8  H12 UNL     1      26.910 -10.596 -26.316  1.00  0.00     0.274 HD
ATOM      9  H11 UNL     1      26.758 -11.849 -25.207  1.00  0.00     0.274 HD
ENDBRANCH   5   6
ENDBRANCH   4   5
ENDBRANCH   3   4
ENDBRANCH   2   3
ENDBRANCH   1   2
BRANCH   1  10
HETATM   10  N2  UNL     1      27.198  -4.181 -25.086  1.00  0.00    -0.048 N 
ATOM     11  H22 UNL     1      27.171  -3.586 -25.914  1.00  0.00     0.279 HD
ATOM     12  H21 UNL     1      26.241  -4.053 -24.759  1.00  0.00     0.279 HD
BRANCH  10  13
HETATM   13  C6  UNL     1      28.167  -3.665 -24.097  1.00  0.00     0.290 C 
BRANCH  13  14
HETATM   14  C7  UNL     1      29.462  -3.733 -24.892  1.00  0.00     0.072 C 
BRANCH  14  15
HETATM   15  C8  UNL     1      30.604  -4.414 -24.351  1.00  0.00    -0.013 C 
BRANCH  15  16
HETATM   16  C9  UNL     1      30.687  -5.840 -24.121  1.00  0.00    -0.040 A 
HETATM   17  C10 UNL     1      30.667  -6.862 -25.023  1.00  0.00     0.011 A 
HETATM   18  C11 UNL     1      30.973  -8.163 -24.682  1.00  0.00     0.001 A 
HETATM   19  C12 UNL     1      31.317  -8.475 -23.370  1.00  0.00     0.000 A 
HETATM   20  C13 UNL     1      31.347  -7.483 -22.445  1.00  0.00     0.001 A 
HETATM   21  C14 UNL     1      31.041  -6.192 -22.796  1.00  0.00     0.011 A 
ENDBRANCH  15  16
ENDBRANCH  14  15
ENDBRANCH  13  14
BRANCH  13  22
HETATM   22  C15 UNL     1      27.924  -2.223 -23.797  1.00  0.00     0.205 C 
HETATM   23  O1  UNL     1      27.305  -1.792 -22.796  1.00  0.00    -0.646 OA
HETATM   24  O2  UNL     1      28.420  -1.260 -24.693  1.00  0.00    -0.646 OA
ENDBRANCH  13  22
ENDBRANCH  10  13
ENDBRANCH   1  10
BRANCH   1  25
HETATM   25  C16 UNL     1      27.513  -5.632 -26.901  1.00  0.00     0.249 C 
HETATM   26  O3  UNL     1      27.706  -4.659 -27.692  1.00  0.00    -0.271 OA
HETATM   27  N3  UNL     1      27.366  -6.893 -27.497  1.00  0.00    -0.344 N 
ATOM     28  H3  UNL     1      27.183  -7.701 -26.901  1.00  0.00     0.163 HD
BRANCH  27  29
HETATM   29  C17 UNL     1      27.464  -7.094 -28.954  1.00  0.00     0.190 C 
BRANCH  29  30
HETATM   30  C18 UNL     1      26.194  -6.794 -29.624  1.00  0.00     0.077 C 
BRANCH  30  31
HETATM   31  C19 UNL     1      26.308  -5.842 -30.747  1.00  0.00    -0.028 A 
HETATM   32  C20 UNL     1      25.136  -5.219 -31.278  1.00  0.00     0.096 A 
HETATM   33  N4  UNL     1      25.460  -4.379 -32.248  1.00  0.00    -0.365 N 
HETATM   34  C21 UNL     1      26.805  -4.421 -32.378  1.00  0.00     0.042 A 
ATOM     35  H4  UNL     1      24.817  -3.807 -32.795  1.00  0.00     0.165 HD
HETATM   36  C22 UNL     1      27.639  -3.709 -33.210  1.00  0.00     0.030 A 
HETATM   37  C26 UNL     1      27.329  -5.333 -31.446  1.00  0.00    -0.002 A 
HETATM   38  C23 UNL     1      29.013  -3.901 -33.128  1.00  0.00     0.002 A 
HETATM   39  C24 UNL     1      29.517  -4.802 -32.219  1.00  0.00     0.001 A 
HETATM   40  C25 UNL     1      28.692  -5.528 -31.372  1.00  0.00     0.014 A 
ENDBRANCH  30  31
ENDBRANCH  29  30
BRANCH  29  41
HETATM   41  C27 UNL     1      27.848  -8.567 -28.942  1.00  0.00     0.197 C 
HETATM   42  O4  UNL     1      28.511  -9.142 -29.802  1.00  0.00    -0.646 OA
HETATM   43  O5  UNL     1      27.409  -9.281 -27.809  1.00  0.00    -0.646 OA
ENDBRANCH  29  41
ENDBRANCH  27  29
ENDBRANCH   1  25
TORSDOF 16
ENDMDL
