MODEL 1
REMARK VINA RESULT: -9.263798987      0.000      0.000
REMARK  16 active torsions:
REMARK  status: ('A' for Active; 'I' for Inactive)
REMARK    1  A    between atoms: N1_1  and  C1_5 
REMARK    2  A    between atoms: C1_5  and  C2_6 
REMARK    3  A    between atoms: C2_6  and  C3_7 
REMARK    4  A    between atoms: C3_7  and  C4_8 
REMARK    5  A    between atoms: C4_8  and  C5_9 
REMARK    6  A    between atoms: C5_9  and  N2_10 
REMARK    7  A    between atoms: C5_9  and  C16_25 
REMARK    8  A    between atoms: N2_10  and  C6_13 
REMARK    9  A    between atoms: C6_13  and  C7_14 
REMARK   10  A    between atoms: C6_13  and  C15_22 
REMARK   11  A    between atoms: C7_14  and  C8_15 
REMARK   12  A    between atoms: C8_15  and  C9_16 
REMARK       I    between atoms: C16_25  and  N3_27 
REMARK   13  A    between atoms: N3_27  and  C17_29 
REMARK   14  A    between atoms: C17_29  and  C18_30 
REMARK   15  A    between atoms: C17_29  and  C27_41 
REMARK   16  A    between atoms: C18_30  and  C19_31 
ROOT
HETATM    1  C5  UNL     1      28.657  -6.275 -25.823  1.00  0.00     0.278 C 
ENDROOT
BRANCH   1   2
HETATM    2  C4  UNL     1      27.556  -6.858 -24.997  1.00  0.00     0.043 C 
BRANCH   2   3
HETATM    3  C3  UNL     1      27.373  -8.349 -25.216  1.00  0.00     0.004 C 
BRANCH   3   4
HETATM    4  C2  UNL     1      26.659  -8.961 -24.027  1.00  0.00     0.027 C 
BRANCH   4   5
HETATM    5  C1  UNL     1      26.596 -10.439 -23.994  1.00  0.00     0.229 C 
BRANCH   5   6
HETATM    6  N1  UNL     1      26.557 -11.033 -25.314  1.00  0.00    -0.079 N 
ATOM      7  H13 UNL     1      25.633 -10.929 -25.733  1.00  0.00     0.274 HD
ATOM      8  H12 UNL     1      27.103 -10.483 -25.977  1.00  0.00     0.274 HD
ATOM      9  H11 UNL     1      26.851 -12.009 -25.320  1.00  0.00     0.274 HD
ENDBRANCH   5   6
ENDBRANCH   4   5
ENDBRANCH   3   4
ENDBRANCH   2   3
ENDBRANCH   1   2
BRANCH   1  10
HETATM   10  N2  UNL     1      28.670  -4.829 -25.728  1.00  0.00    -0.048 N 
ATOM     11  H22 UNL     1      29.280  -4.423 -26.438  1.00  0.00     0.279 HD
ATOM     12  H21 UNL     1      27.778  -4.436 -26.030  1.00  0.00     0.279 HD
BRANCH  10  13
HETATM   13  C6  UNL     1      29.031  -4.343 -24.380  1.00  0.00     0.290 C 
BRANCH  13  14
HETATM   14  C7  UNL     1      30.549  -4.308 -24.478  1.00  0.00     0.072 C 
BRANCH  14  15
HETATM   15  C8  UNL     1      31.342  -5.186 -23.665  1.00  0.00    -0.013 C 
BRANCH  15  16
HETATM   16  C9  UNL     1      30.853  -6.379 -23.011  1.00  0.00    -0.040 A 
HETATM   17  C10 UNL     1      29.926  -6.502 -22.020  1.00  0.00     0.011 A 
HETATM   18  C11 UNL     1      29.396  -7.717 -21.640  1.00  0.00     0.001 A 
HETATM   19  C12 UNL     1      29.807  -8.884 -22.277  1.00  0.00     0.000 A 
HETATM   20  C13 UNL     1      30.729  -8.801 -23.270  1.00  0.00     0.001 A 
HETATM   21  C14 UNL     1      31.249  -7.586 -23.638  1.00  0.00     0.011 A 
ENDBRANCH  15  16
ENDBRANCH  14  15
ENDBRANCH  13  14
BRANCH  13  22
HETATM   22  C15 UNL     1      28.584  -2.934 -24.172  1.00  0.00     0.205 C 
HETATM   23  O1  UNL     1      28.869  -1.972 -24.922  1.00  0.00    -0.646 OA
HETATM   24  O2  UNL     1      27.777  -2.646 -23.058  1.00  0.00    -0.646 OA
ENDBRANCH  13  22
ENDBRANCH  10  13
ENDBRANCH   1  10
BRANCH   1  25
HETATM   25  C16 UNL     1      28.756  -6.626 -27.232  1.00  0.00     0.249 C 
HETATM   26  O3  UNL     1      27.913  -6.346 -28.138  1.00  0.00    -0.271 OA
HETATM   27  N3  UNL     1      29.894  -7.335 -27.645  1.00  0.00    -0.344 N 
ATOM     28  H3  UNL     1      30.587  -7.604 -26.946  1.00  0.00     0.163 HD
BRANCH  27  29
HETATM   29  C17 UNL     1      30.125  -7.706 -29.053  1.00  0.00     0.190 C 
BRANCH  29  30
HETATM   30  C18 UNL     1      30.020  -9.156 -29.250  1.00  0.00     0.077 C 
BRANCH  30  31
HETATM   31  C19 UNL     1      29.424  -9.553 -30.541  1.00  0.00    -0.028 A 
HETATM   32  C20 UNL     1      28.400  -8.749 -31.133  1.00  0.00     0.096 A 
HETATM   33  N4  UNL     1      28.031  -9.258 -32.298  1.00  0.00    -0.365 N 
HETATM   34  C21 UNL     1      28.774 -10.369 -32.500  1.00  0.00     0.042 A 
ATOM     35  H4  UNL     1      27.319  -8.883 -32.924  1.00  0.00     0.165 HD
HETATM   36  C22 UNL     1      28.807 -11.231 -33.572  1.00  0.00     0.030 A 
HETATM   37  C26 UNL     1      29.637 -10.552 -31.406  1.00  0.00    -0.002 A 
HETATM   38  C23 UNL     1      29.700 -12.296 -33.566  1.00  0.00     0.002 A 
HETATM   39  C24 UNL     1      30.535 -12.472 -32.488  1.00  0.00     0.001 A 
HETATM   40  C25 UNL     1      30.517 -11.612 -31.399  1.00  0.00     0.014 A 
ENDBRANCH  30  31
ENDBRANCH  29  30
BRANCH  29  41
HETATM   41  C27 UNL     1      31.532  -7.142 -29.194  1.00  0.00     0.197 C 
HETATM   42  O4  UNL     1      31.872  -5.990 -28.932  1.00  0.00    -0.646 OA
HETATM   43  O5  UNL     1      32.497  -8.069 -29.636  1.00  0.00    -0.646 OA
ENDBRANCH  29  41
ENDBRANCH  27  29
ENDBRANCH   1  25
TORSDOF 16
ENDMDL
