MODEL 2
REMARK VINA RESULT: -9.191443631      2.482      3.520
REMARK  16 active torsions:
REMARK  status: ('A' for Active; 'I' for Inactive)
REMARK    1  A    between atoms: N1_1  and  C1_5 
REMARK    2  A    between atoms: C1_5  and  C2_6 
REMARK    3  A    between atoms: C2_6  and  C3_7 
REMARK    4  A    between atoms: C3_7  and  C4_8 
REMARK    5  A    between atoms: C4_8  and  C5_9 
REMARK    6  A    between atoms: C5_9  and  N2_10 
REMARK    7  A    between atoms: C5_9  and  C16_25 
REMARK    8  A    between atoms: N2_10  and  C6_13 
REMARK    9  A    between atoms: C6_13  and  C7_14 
REMARK   10  A    between atoms: C6_13  and  C15_22 
REMARK   11  A    between atoms: C7_14  and  C8_15 
REMARK   12  A    between atoms: C8_15  and  C9_16 
REMARK       I    between atoms: C16_25  and  N3_27 
REMARK   13  A    between atoms: N3_27  and  C17_29 
REMARK   14  A    between atoms: C17_29  and  C18_30 
REMARK   15  A    between atoms: C17_29  and  C27_41 
REMARK   16  A    between atoms: C18_30  and  C19_31 
ROOT
HETATM    1  C5  UNL     1      28.130  -5.936 -26.274  1.00  0.00     0.278 C 
ENDROOT
BRANCH   1   2
HETATM    2  C4  UNL     1      27.143  -7.013 -25.957  1.00  0.00     0.043 C 
BRANCH   2   3
HETATM    3  C3  UNL     1      27.775  -8.224 -25.293  1.00  0.00     0.004 C 
BRANCH   3   4
HETATM    4  C2  UNL     1      26.790  -8.859 -24.333  1.00  0.00     0.027 C 
BRANCH   4   5
HETATM    5  C1  UNL     1      26.865 -10.331 -24.198  1.00  0.00     0.229 C 
BRANCH   5   6
HETATM    6  N1  UNL     1      26.540 -11.027 -25.425  1.00  0.00    -0.079 N 
ATOM      7  H13 UNL     1      25.618 -11.461 -25.365  1.00  0.00     0.274 HD
ATOM      8  H12 UNL     1      26.364 -10.368 -26.183  1.00  0.00     0.274 HD
ATOM      9  H11 UNL     1      27.247 -11.711 -25.694  1.00  0.00     0.274 HD
ENDBRANCH   5   6
ENDBRANCH   4   5
ENDBRANCH   3   4
ENDBRANCH   2   3
ENDBRANCH   1   2
BRANCH   1  10
HETATM   10  N2  UNL     1      27.734  -4.676 -25.680  1.00  0.00    -0.048 N 
ATOM     11  H22 UNL     1      27.927  -3.899 -26.312  1.00  0.00     0.279 HD
ATOM     12  H21 UNL     1      26.718  -4.600 -25.630  1.00  0.00     0.279 HD
BRANCH  10  13
HETATM   13  C6  UNL     1      28.346  -4.444 -24.356  1.00  0.00     0.290 C 
BRANCH  13  14
HETATM   14  C7  UNL     1      29.809  -4.734 -24.654  1.00  0.00     0.072 C 
BRANCH  14  15
HETATM   15  C8  UNL     1      30.645  -5.324 -23.647  1.00  0.00    -0.013 C 
BRANCH  15  16
HETATM   16  C9  UNL     1      30.421  -6.616 -23.036  1.00  0.00    -0.040 A 
HETATM   17  C10 UNL     1      29.513  -6.975 -22.085  1.00  0.00     0.011 A 
HETATM   18  C11 UNL     1      29.264  -8.289 -21.750  1.00  0.00     0.001 A 
HETATM   19  C12 UNL     1      29.955  -9.313 -22.392  1.00  0.00     0.000 A 
HETATM   20  C13 UNL     1      30.868  -8.993 -23.345  1.00  0.00     0.001 A 
HETATM   21  C14 UNL     1      31.107  -7.682 -23.669  1.00  0.00     0.011 A 
ENDBRANCH  15  16
ENDBRANCH  14  15
ENDBRANCH  13  14
BRANCH  13  22
HETATM   22  C15 UNL     1      28.266  -3.006 -23.963  1.00  0.00     0.205 C 
HETATM   23  O1  UNL     1      27.683  -2.572 -22.942  1.00  0.00    -0.646 OA
HETATM   24  O2  UNL     1      28.887  -2.052 -24.787  1.00  0.00    -0.646 OA
ENDBRANCH  13  22
ENDBRANCH  10  13
ENDBRANCH   1  10
BRANCH   1  25
HETATM   25  C16 UNL     1      28.485  -5.679 -27.662  1.00  0.00     0.249 C 
HETATM   26  O3  UNL     1      28.044  -4.738 -28.389  1.00  0.00    -0.271 OA
HETATM   27  N3  UNL     1      29.412  -6.543 -28.264  1.00  0.00    -0.344 N 
ATOM     28  H3  UNL     1      29.775  -7.330 -27.725  1.00  0.00     0.163 HD
BRANCH  27  29
HETATM   29  C17 UNL     1      29.881  -6.356 -29.649  1.00  0.00     0.190 C 
BRANCH  29  30
HETATM   30  C18 UNL     1      29.003  -7.033 -30.609  1.00  0.00     0.077 C 
BRANCH  30  31
HETATM   31  C19 UNL     1      28.284  -6.122 -31.523  1.00  0.00    -0.028 A 
HETATM   32  C20 UNL     1      26.892  -6.321 -31.781  1.00  0.00     0.096 A 
HETATM   33  N4  UNL     1      26.435  -5.380 -32.593  1.00  0.00    -0.365 N 
HETATM   34  C21 UNL     1      27.474  -4.564 -32.879  1.00  0.00     0.042 A 
ATOM     35  H4  UNL     1      25.480  -5.288 -32.936  1.00  0.00     0.165 HD
HETATM   36  C22 UNL     1      27.517  -3.417 -33.639  1.00  0.00     0.030 A 
HETATM   37  C26 UNL     1      28.622  -5.028 -32.216  1.00  0.00    -0.002 A 
HETATM   38  C23 UNL     1      28.712  -2.718 -33.754  1.00  0.00     0.002 A 
HETATM   39  C24 UNL     1      29.833  -3.185 -33.108  1.00  0.00     0.001 A 
HETATM   40  C25 UNL     1      29.809  -4.338 -32.337  1.00  0.00     0.014 A 
ENDBRANCH  30  31
ENDBRANCH  29  30
BRANCH  29  41
HETATM   41  C27 UNL     1      31.260  -6.981 -29.494  1.00  0.00     0.197 C 
HETATM   42  O4  UNL     1      31.559  -8.139 -29.782  1.00  0.00    -0.646 OA
HETATM   43  O5  UNL     1      32.253  -6.109 -29.005  1.00  0.00    -0.646 OA
ENDBRANCH  29  41
ENDBRANCH  27  29
ENDBRANCH   1  25
TORSDOF 16
ENDMDL
