MODEL 1
REMARK VINA RESULT: -11.008462068      0.000      0.000
REMARK  13 active torsions:
REMARK  status: ('A' for Active; 'I' for Inactive)
REMARK       I    between atoms: C1_2  and  N1_3 
REMARK    1  A    between atoms: C1_2  and  O7_40 
REMARK    2  A    between atoms: N1_3  and  C2_5 
REMARK    3  A    between atoms: C2_5  and  C3_6 
REMARK    4  A    between atoms: C2_5  and  P1_13 
REMARK    5  A    between atoms: C3_6  and  C4_7 
REMARK    6  A    between atoms: P1_13  and  C10_16 
REMARK    7  A    between atoms: C14_20  and  C15_21 
REMARK       I    between atoms: C15_21  and  N2_23 
REMARK    8  A    between atoms: N2_23  and  C16_25 
REMARK    9  A    between atoms: C16_25  and  C17_26 
REMARK   10  A    between atoms: C16_25  and  C26_37 
REMARK   11  A    between atoms: C17_26  and  C18_27 
REMARK   12  A    between atoms: O7_40  and  C27_41 
REMARK   13  A    between atoms: C27_41  and  C28_42 
ROOT
HETATM    1  C10 UNL     1      25.440  -2.734  20.056  1.00  0.00     0.092 C 
HETATM    2  C11 UNL     1      26.001  -1.908  18.966  1.00  0.00     0.016 C 
HETATM    3  C12 UNL     1      25.789  -2.814  17.769  1.00  0.00     0.002 C 
HETATM    4  C13 UNL     1      24.306  -3.155  17.977  1.00  0.00     0.015 C 
HETATM    5  C14 UNL     1      24.163  -3.292  19.495  1.00  0.00     0.092 C 
ENDROOT
BRANCH   1   6
HETATM    6  P1  UNL     1      25.222  -1.897  21.585  1.00  0.00     0.135 P 
HETATM    7  O2  UNL     1      24.557  -3.004  22.799  1.00  0.00    -0.666 OA
HETATM    8  O3  UNL     1      24.087  -0.545  21.453  1.00  0.00    -0.666 OA
BRANCH   6   9
HETATM    9  C2  UNL     1      26.729  -1.294  22.322  1.00  0.00     0.183 C 
BRANCH   9  10
HETATM   10  N1  UNL     1      26.919   0.057  21.833  1.00  0.00    -0.322 N 
HETATM   11  C1  UNL     1      27.262   1.102  22.734  1.00  0.00     0.361 C 
HETATM   12  O1  UNL     1      27.388   0.813  23.933  1.00  0.00    -0.238 OA
ATOM     13  H1  UNL     1      26.807   0.259  20.840  1.00  0.00     0.165 HD
BRANCH  11  14
HETATM   14  O7  UNL     1      27.462   2.418  22.345  1.00  0.00    -0.299 OA
BRANCH  14  15
HETATM   15  C27 UNL     1      27.486   3.421  23.326  1.00  0.00     0.219 C 
BRANCH  15  16
HETATM   16  C28 UNL     1      28.753   4.162  23.229  1.00  0.00    -0.034 A 
HETATM   17  C29 UNL     1      29.872   3.764  23.915  1.00  0.00     0.009 A 
HETATM   18  C30 UNL     1      31.069   4.456  23.829  1.00  0.00     0.001 A 
HETATM   19  C31 UNL     1      31.113   5.580  23.020  1.00  0.00     0.000 A 
HETATM   20  C32 UNL     1      30.010   6.007  22.319  1.00  0.00     0.001 A 
HETATM   21  C33 UNL     1      28.832   5.280  22.437  1.00  0.00     0.009 A 
ENDBRANCH  15  16
ENDBRANCH  14  15
ENDBRANCH  11  14
ENDBRANCH   9  10
BRANCH   9  22
HETATM   22  C3  UNL     1      27.911  -2.178  22.070  1.00  0.00     0.074 C 
BRANCH  22  23
HETATM   23  C4  UNL     1      27.959  -3.256  23.086  1.00  0.00    -0.056 A 
HETATM   24  C5  UNL     1      28.019  -3.039  24.442  1.00  0.00     0.007 A 
HETATM   25  C6  UNL     1      28.061  -4.095  25.322  1.00  0.00     0.001 A 
HETATM   26  C7  UNL     1      28.043  -5.407  24.891  1.00  0.00     0.000 A 
HETATM   27  C8  UNL     1      27.982  -5.647  23.540  1.00  0.00     0.001 A 
HETATM   28  C9  UNL     1      27.943  -4.586  22.685  1.00  0.00     0.007 A 
ENDBRANCH  22  23
ENDBRANCH   9  22
ENDBRANCH   6   9
ENDBRANCH   1   6
BRANCH   5  29
HETATM   29  C15 UNL     1      24.079  -4.757  19.839  1.00  0.00     0.223 C 
HETATM   30  O4  UNL     1      25.074  -5.381  20.293  1.00  0.00    -0.273 OA
HETATM   31  N2  UNL     1      22.874  -5.473  19.658  1.00  0.00    -0.346 N 
ATOM     32  H2  UNL     1      22.046  -5.001  19.294  1.00  0.00     0.163 HD
BRANCH  31  33
HETATM   33  C16 UNL     1      22.820  -6.889  19.997  1.00  0.00     0.189 C 
BRANCH  33  34
HETATM   34  C17 UNL     1      22.079  -7.052  21.308  1.00  0.00     0.077 C 
BRANCH  34  35
HETATM   35  C18 UNL     1      22.873  -7.844  22.272  1.00  0.00    -0.028 A 
HETATM   36  C19 UNL     1      23.075  -9.203  22.283  1.00  0.00     0.096 A 
HETATM   37  N3  UNL     1      23.853  -9.509  23.326  1.00  0.00    -0.365 N 
HETATM   38  C20 UNL     1      24.167  -8.388  23.995  1.00  0.00     0.042 A 
ATOM     39  H3  UNL     1      24.161 -10.450  23.575  1.00  0.00     0.165 HD
HETATM   40  C21 UNL     1      24.925  -8.160  25.115  1.00  0.00     0.030 A 
HETATM   41  C25 UNL     1      23.559  -7.331  23.347  1.00  0.00    -0.002 A 
HETATM   42  C22 UNL     1      25.092  -6.876  25.610  1.00  0.00     0.002 A 
HETATM   43  C23 UNL     1      24.491  -5.823  24.971  1.00  0.00     0.001 A 
HETATM   44  C24 UNL     1      23.739  -6.075  23.853  1.00  0.00     0.014 A 
ENDBRANCH  34  35
ENDBRANCH  33  34
BRANCH  33  45
HETATM   45  C26 UNL     1      22.050  -7.618  18.956  1.00  0.00     0.197 C 
HETATM   46  O5  UNL     1      21.350  -8.625  19.281  1.00  0.00    -0.646 OA
HETATM   47  O6  UNL     1      22.088  -7.210  17.637  1.00  0.00    -0.646 OA
ENDBRANCH  33  45
ENDBRANCH  31  33
ENDBRANCH   5  29
TORSDOF 13
ENDMDL
