MODEL 3
REMARK VINA RESULT: -10.658004016      5.110     14.025
REMARK  13 active torsions:
REMARK  status: ('A' for Active; 'I' for Inactive)
REMARK       I    between atoms: C1_2  and  N1_3 
REMARK    1  A    between atoms: C1_2  and  O7_40 
REMARK    2  A    between atoms: N1_3  and  C2_5 
REMARK    3  A    between atoms: C2_5  and  C3_6 
REMARK    4  A    between atoms: C2_5  and  P1_13 
REMARK    5  A    between atoms: C3_6  and  C4_7 
REMARK    6  A    between atoms: P1_13  and  C10_16 
REMARK    7  A    between atoms: C14_20  and  C15_21 
REMARK       I    between atoms: C15_21  and  N2_23 
REMARK    8  A    between atoms: N2_23  and  C16_25 
REMARK    9  A    between atoms: C16_25  and  C17_26 
REMARK   10  A    between atoms: C16_25  and  C26_37 
REMARK   11  A    between atoms: C17_26  and  C18_27 
REMARK   12  A    between atoms: O7_40  and  C27_41 
REMARK   13  A    between atoms: C27_41  and  C28_42 
ROOT
HETATM    1  C10 UNL     1      27.880   5.833  25.915  1.00  0.00     0.092 C 
HETATM    2  C11 UNL     1      28.499   5.768  27.256  1.00  0.00     0.016 C 
HETATM    3  C12 UNL     1      28.982   7.195  27.429  1.00  0.00     0.002 C 
HETATM    4  C13 UNL     1      27.690   7.939  27.063  1.00  0.00     0.015 C 
HETATM    5  C14 UNL     1      27.094   7.114  25.919  1.00  0.00     0.092 C 
ENDROOT
BRANCH   1   6
HETATM    6  P1  UNL     1      26.922   4.430  25.470  1.00  0.00     0.135 P 
HETATM    7  O2  UNL     1      25.383   4.941  24.756  1.00  0.00    -0.666 OA
HETATM    8  O3  UNL     1      26.524   3.418  26.868  1.00  0.00    -0.666 OA
BRANCH   6   9
HETATM    9  C2  UNL     1      27.660   3.393  24.221  1.00  0.00     0.183 C 
BRANCH   9  10
HETATM   10  N1  UNL     1      27.036   2.090  24.340  1.00  0.00    -0.322 N 
HETATM   11  C1  UNL     1      26.305   1.545  23.251  1.00  0.00     0.361 C 
HETATM   12  O1  UNL     1      26.224   2.220  22.214  1.00  0.00    -0.238 OA
ATOM     13  H1  UNL     1      27.123   1.563  25.209  1.00  0.00     0.165 HD
BRANCH  11  14
HETATM   14  O7  UNL     1      25.681   0.307  23.286  1.00  0.00    -0.299 OA
BRANCH  14  15
HETATM   15  C27 UNL     1      26.204  -0.742  22.514  1.00  0.00     0.219 C 
BRANCH  15  16
HETATM   16  C28 UNL     1      26.913  -1.684  23.395  1.00  0.00    -0.034 A 
HETATM   17  C29 UNL     1      28.221  -1.483  23.756  1.00  0.00     0.009 A 
HETATM   18  C30 UNL     1      28.896  -2.365  24.584  1.00  0.00     0.001 A 
HETATM   19  C31 UNL     1      28.209  -3.474  25.049  1.00  0.00     0.000 A 
HETATM   20  C32 UNL     1      26.897  -3.706  24.707  1.00  0.00     0.001 A 
HETATM   21  C33 UNL     1      26.263  -2.793  23.873  1.00  0.00     0.009 A 
ENDBRANCH  15  16
ENDBRANCH  14  15
ENDBRANCH  11  14
ENDBRANCH   9  10
BRANCH   9  22
HETATM   22  C3  UNL     1      29.154   3.335  24.301  1.00  0.00     0.074 C 
BRANCH  22  23
HETATM   23  C4  UNL     1      29.745   4.390  23.445  1.00  0.00    -0.056 A 
HETATM   24  C5  UNL     1      29.031   5.151  22.551  1.00  0.00     0.007 A 
HETATM   25  C6  UNL     1      29.654   6.113  21.791  1.00  0.00     0.001 A 
HETATM   26  C7  UNL     1      31.010   6.357  21.888  1.00  0.00     0.000 A 
HETATM   27  C8  UNL     1      31.744   5.608  22.775  1.00  0.00     0.001 A 
HETATM   28  C9  UNL     1      31.106   4.659  23.519  1.00  0.00     0.007 A 
ENDBRANCH  22  23
ENDBRANCH   9  22
ENDBRANCH   6   9
ENDBRANCH   1   6
BRANCH   5  29
HETATM   29  C15 UNL     1      27.343   7.841  24.622  1.00  0.00     0.223 C 
HETATM   30  O4  UNL     1      26.610   7.653  23.616  1.00  0.00    -0.273 OA
HETATM   31  N2  UNL     1      28.411   8.759  24.503  1.00  0.00    -0.346 N 
ATOM     32  H2  UNL     1      29.025   8.938  25.299  1.00  0.00     0.163 HD
BRANCH  31  33
HETATM   33  C16 UNL     1      28.631   9.448  23.239  1.00  0.00     0.189 C 
BRANCH  33  34
HETATM   34  C17 UNL     1      28.094  10.859  23.349  1.00  0.00     0.077 C 
BRANCH  34  35
HETATM   35  C18 UNL     1      27.447  11.282  22.087  1.00  0.00    -0.028 A 
HETATM   36  C19 UNL     1      26.624  10.542  21.273  1.00  0.00     0.096 A 
HETATM   37  N3  UNL     1      26.259  11.301  20.235  1.00  0.00    -0.365 N 
HETATM   38  C20 UNL     1      26.819  12.516  20.349  1.00  0.00     0.042 A 
ATOM     39  H3  UNL     1      25.649  11.003  19.473  1.00  0.00     0.165 HD
HETATM   40  C21 UNL     1      26.763  13.639  19.564  1.00  0.00     0.030 A 
HETATM   41  C25 UNL     1      27.571  12.523  21.508  1.00  0.00    -0.002 A 
HETATM   42  C22 UNL     1      27.453  14.788  19.918  1.00  0.00     0.002 A 
HETATM   43  C23 UNL     1      28.199  14.800  21.068  1.00  0.00     0.001 A 
HETATM   44  C24 UNL     1      28.240  13.666  21.836  1.00  0.00     0.014 A 
ENDBRANCH  34  35
ENDBRANCH  33  34
BRANCH  33  45
HETATM   45  C26 UNL     1      30.090   9.545  22.975  1.00  0.00     0.197 C 
HETATM   46  O5  UNL     1      30.502  10.123  21.923  1.00  0.00    -0.646 OA
HETATM   47  O6  UNL     1      31.004   9.013  23.864  1.00  0.00    -0.646 OA
ENDBRANCH  33  45
ENDBRANCH  31  33
ENDBRANCH   5  29
TORSDOF 13
ENDMDL
