MODEL 2
REMARK VINA RESULT: -10.715013155      0.727      1.469
REMARK  13 active torsions:
REMARK  status: ('A' for Active; 'I' for Inactive)
REMARK       I    between atoms: C1_2  and  N1_3 
REMARK    1  A    between atoms: C1_2  and  O7_40 
REMARK    2  A    between atoms: N1_3  and  C2_5 
REMARK    3  A    between atoms: C2_5  and  C3_6 
REMARK    4  A    between atoms: C2_5  and  P1_13 
REMARK    5  A    between atoms: C3_6  and  C4_7 
REMARK    6  A    between atoms: P1_13  and  C10_16 
REMARK    7  A    between atoms: C14_20  and  C15_21 
REMARK       I    between atoms: C15_21  and  N2_23 
REMARK    8  A    between atoms: N2_23  and  C16_25 
REMARK    9  A    between atoms: C16_25  and  C17_26 
REMARK   10  A    between atoms: C16_25  and  C26_37 
REMARK   11  A    between atoms: C17_26  and  C18_27 
REMARK   12  A    between atoms: O7_40  and  C27_41 
REMARK   13  A    between atoms: C27_41  and  C28_42 
ROOT
HETATM    1  C10 UNL     1      25.462  -2.793  20.094  1.00  0.00     0.092 C 
HETATM    2  C11 UNL     1      26.008  -1.996  18.975  1.00  0.00     0.016 C 
HETATM    3  C12 UNL     1      25.792  -2.939  17.807  1.00  0.00     0.002 C 
HETATM    4  C13 UNL     1      24.313  -3.283  18.038  1.00  0.00     0.015 C 
HETATM    5  C14 UNL     1      24.184  -3.376  19.561  1.00  0.00     0.092 C 
ENDROOT
BRANCH   1   6
HETATM    6  P1  UNL     1      25.251  -1.912  21.599  1.00  0.00     0.135 P 
HETATM    7  O2  UNL     1      24.553  -2.972  22.836  1.00  0.00    -0.666 OA
HETATM    8  O3  UNL     1      24.148  -0.538  21.424  1.00  0.00    -0.666 OA
BRANCH   6   9
HETATM    9  C2  UNL     1      26.766  -1.324  22.333  1.00  0.00     0.183 C 
BRANCH   9  10
HETATM   10  N1  UNL     1      26.976   0.020  21.834  1.00  0.00    -0.322 N 
HETATM   11  C1  UNL     1      27.235   1.086  22.738  1.00  0.00     0.361 C 
HETATM   12  O1  UNL     1      27.273   0.821  23.948  1.00  0.00    -0.238 OA
ATOM     13  H1  UNL     1      26.937   0.202  20.832  1.00  0.00     0.165 HD
BRANCH  11  14
HETATM   14  O7  UNL     1      27.447   2.398  22.339  1.00  0.00    -0.299 OA
BRANCH  14  15
HETATM   15  C27 UNL     1      27.454   3.411  23.311  1.00  0.00     0.219 C 
BRANCH  15  16
HETATM   16  C28 UNL     1      28.723   4.151  23.228  1.00  0.00    -0.034 A 
HETATM   17  C29 UNL     1      29.834   3.751  23.927  1.00  0.00     0.009 A 
HETATM   18  C30 UNL     1      31.033   4.442  23.855  1.00  0.00     0.001 A 
HETATM   19  C31 UNL     1      31.087   5.566  23.047  1.00  0.00     0.000 A 
HETATM   20  C32 UNL     1      29.992   5.995  22.333  1.00  0.00     0.001 A 
HETATM   21  C33 UNL     1      28.812   5.269  22.438  1.00  0.00     0.009 A 
ENDBRANCH  15  16
ENDBRANCH  14  15
ENDBRANCH  11  14
ENDBRANCH   9  10
BRANCH   9  22
HETATM   22  C3  UNL     1      27.936  -2.227  22.089  1.00  0.00     0.074 C 
BRANCH  22  23
HETATM   23  C4  UNL     1      27.896  -3.368  23.033  1.00  0.00    -0.056 A 
HETATM   24  C5  UNL     1      27.809  -4.685  22.651  1.00  0.00     0.007 A 
HETATM   25  C6  UNL     1      27.776  -5.690  23.591  1.00  0.00     0.001 A 
HETATM   26  C7  UNL     1      27.829  -5.426  24.945  1.00  0.00     0.000 A 
HETATM   27  C8  UNL     1      27.916  -4.116  25.350  1.00  0.00     0.001 A 
HETATM   28  C9  UNL     1      27.947  -3.135  24.402  1.00  0.00     0.007 A 
ENDBRANCH  22  23
ENDBRANCH   9  22
ENDBRANCH   6   9
ENDBRANCH   1   6
BRANCH   5  29
HETATM   29  C15 UNL     1      24.113  -4.831  19.949  1.00  0.00     0.223 C 
HETATM   30  O4  UNL     1      25.134  -5.453  20.345  1.00  0.00    -0.273 OA
HETATM   31  N2  UNL     1      22.891  -5.538  19.879  1.00  0.00    -0.346 N 
ATOM     32  H2  UNL     1      22.043  -5.066  19.564  1.00  0.00     0.163 HD
BRANCH  31  33
HETATM   33  C16 UNL     1      22.850  -6.943  20.258  1.00  0.00     0.189 C 
BRANCH  33  34
HETATM   34  C17 UNL     1      22.084  -7.079  21.557  1.00  0.00     0.077 C 
BRANCH  34  35
HETATM   35  C18 UNL     1      23.002  -7.088  22.717  1.00  0.00    -0.028 A 
HETATM   36  C19 UNL     1      23.461  -6.013  23.437  1.00  0.00     0.096 A 
HETATM   37  N3  UNL     1      24.272  -6.462  24.401  1.00  0.00    -0.365 N 
HETATM   38  C20 UNL     1      24.353  -7.800  24.331  1.00  0.00     0.042 A 
ATOM     39  H3  UNL     1      24.754  -5.877  25.084  1.00  0.00     0.165 HD
HETATM   40  C21 UNL     1      25.039  -8.726  25.075  1.00  0.00     0.030 A 
HETATM   41  C25 UNL     1      23.562  -8.212  23.277  1.00  0.00    -0.002 A 
HETATM   42  C22 UNL     1      24.948 -10.078  24.785  1.00  0.00     0.002 A 
HETATM   43  C23 UNL     1      24.163 -10.493  23.740  1.00  0.00     0.001 A 
HETATM   44  C24 UNL     1      23.488  -9.549  23.011  1.00  0.00     0.014 A 
ENDBRANCH  34  35
ENDBRANCH  33  34
BRANCH  33  45
HETATM   45  C26 UNL     1      22.113  -7.714  19.223  1.00  0.00     0.197 C 
HETATM   46  O5  UNL     1      21.631  -8.852  19.511  1.00  0.00    -0.646 OA
HETATM   47  O6  UNL     1      21.948  -7.205  17.950  1.00  0.00    -0.646 OA
ENDBRANCH  33  45
ENDBRANCH  31  33
ENDBRANCH   5  29
TORSDOF 13
ENDMDL
