MODEL 9
REMARK VINA RESULT: -7.618069893      4.727      7.682
REMARK  4 active torsions:
REMARK  status: ('A' for Active; 'I' for Inactive)
REMARK    1  A    between atoms: C2_2  and  C4_4 
REMARK    2  A    between atoms: C6_6  and  C7_7 
REMARK       I    between atoms: C7_7  and  N1_9 
REMARK    3  A    between atoms: C16_18  and  O2_19 
REMARK    4  A    between atoms: C18_22  and  O3_23 
ROOT
HETATM    1  C4  UNL     1       3.372  39.752   2.556  1.00  0.00    -0.020 A 
HETATM    2  C5  UNL     1       2.265  38.934   2.254  1.00  0.00     0.030 A 
HETATM    3  C6  UNL     1       2.041  38.357   1.034  1.00  0.00     0.066 A 
HETATM    4  C16 UNL     1       2.974  38.607   0.003  1.00  0.00     0.084 A 
HETATM    5  C17 UNL     1       4.080  39.425   0.306  1.00  0.00     0.074 A 
HETATM    6  C18 UNL     1       4.254  39.969   1.558  1.00  0.00     0.075 A 
ENDROOT
BRANCH   3   7
HETATM    7  C7  UNL     1       1.013  37.415   0.726  1.00  0.00     0.264 C 
HETATM    8  O1  UNL     1      -0.153  37.879   0.404  1.00  0.00    -0.267 OA
HETATM    9  N1  UNL     1       1.076  36.002   0.706  1.00  0.00    -0.298 N 
HETATM   10  C8  UNL     1      -0.003  35.217   0.331  1.00  0.00     0.112 A 
HETATM   11  C15 UNL     1       2.041  35.113   0.964  1.00  0.00     0.112 A 
HETATM   12  C9  UNL     1       0.320  33.900   0.366  1.00  0.00    -0.009 A 
HETATM   13  C10 UNL     1      -0.338  32.707   0.085  1.00  0.00     0.014 A 
HETATM   14  C14 UNL     1       1.620  33.806   0.767  1.00  0.00    -0.009 A 
HETATM   15  C11 UNL     1       0.266  31.478   0.191  1.00  0.00     0.001 A 
HETATM   16  C12 UNL     1       1.611  31.411   0.606  1.00  0.00     0.001 A 
HETATM   17  C13 UNL     1       2.267  32.584   0.888  1.00  0.00     0.014 A 
ENDBRANCH   3   7
BRANCH   4  18
HETATM   18  O2  UNL     1       2.937  38.154  -1.253  1.00  0.00    -0.360 OA
ATOM     19  H2  UNL     1       3.663  38.076  -1.860  1.00  0.00     0.217 HD
ENDBRANCH   4  18
BRANCH   1  20
HETATM   20  C2  UNL     1       3.569  40.126   3.938  1.00  0.00     0.013 C 
HETATM   21  C1  UNL     1       3.532  39.005   4.955  1.00  0.00     0.015 C 
HETATM   22  C3  UNL     1       2.809  41.312   4.375  1.00  0.00     0.015 C 
ENDBRANCH   1  20
BRANCH   6  23
HETATM   23  O3  UNL     1       5.373  40.755   1.753  1.00  0.00    -0.360 OA
ATOM     24  H3  UNL     1       6.247  40.383   1.715  1.00  0.00     0.217 HD
ENDBRANCH   6  23
TORSDOF 4
ENDMDL
