MODEL 4
REMARK VINA RESULT: -8.021364595      1.186      1.444
REMARK  4 active torsions:
REMARK  status: ('A' for Active; 'I' for Inactive)
REMARK    1  A    between atoms: C2_2  and  C4_4 
REMARK    2  A    between atoms: C6_6  and  C7_7 
REMARK       I    between atoms: C7_7  and  N1_9 
REMARK    3  A    between atoms: C16_18  and  O2_19 
REMARK    4  A    between atoms: C18_22  and  O3_23 
ROOT
HETATM    1  C4  UNL     1       0.619  33.714   0.450  1.00  0.00    -0.020 A 
HETATM    2  C5  UNL     1       0.354  34.625  -0.593  1.00  0.00     0.030 A 
HETATM    3  C6  UNL     1      -0.873  34.806  -1.167  1.00  0.00     0.066 A 
HETATM    4  C16 UNL     1      -1.948  34.020  -0.692  1.00  0.00     0.084 A 
HETATM    5  C17 UNL     1      -1.683  33.111   0.349  1.00  0.00     0.074 A 
HETATM    6  C18 UNL     1      -0.424  32.981   0.892  1.00  0.00     0.075 A 
ENDROOT
BRANCH   3   7
HETATM    7  C7  UNL     1      -1.214  35.809  -2.124  1.00  0.00     0.264 C 
HETATM    8  O1  UNL     1      -1.818  35.430  -3.206  1.00  0.00    -0.267 OA
HETATM    9  N1  UNL     1      -0.996  37.206  -2.068  1.00  0.00    -0.298 N 
HETATM   10  C8  UNL     1      -1.435  38.066  -3.063  1.00  0.00     0.112 A 
HETATM   11  C15 UNL     1      -0.423  38.020  -1.175  1.00  0.00     0.112 A 
HETATM   12  C9  UNL     1      -1.130  39.353  -2.761  1.00  0.00    -0.009 A 
HETATM   13  C10 UNL     1      -1.335  40.590  -3.361  1.00  0.00     0.014 A 
HETATM   14  C14 UNL     1      -0.483  39.351  -1.560  1.00  0.00    -0.009 A 
HETATM   15  C11 UNL     1      -0.923  41.772  -2.796  1.00  0.00     0.001 A 
HETATM   16  C12 UNL     1      -0.258  41.741  -1.554  1.00  0.00     0.001 A 
HETATM   17  C13 UNL     1      -0.049  40.522  -0.955  1.00  0.00     0.014 A 
ENDBRANCH   3   7
BRANCH   4  18
HETATM   18  O2  UNL     1      -3.213  34.032  -1.120  1.00  0.00    -0.360 OA
ATOM     19  H2  UNL     1      -3.621  33.434  -1.735  1.00  0.00     0.217 HD
ENDBRANCH   4  18
BRANCH   1  20
HETATM   20  C2  UNL     1       1.919  33.778   1.079  1.00  0.00     0.013 C 
HETATM   21  C1  UNL     1       2.573  35.142   1.146  1.00  0.00     0.015 C 
HETATM   22  C3  UNL     1       2.859  32.718   0.670  1.00  0.00     0.015 C 
ENDBRANCH   1  20
BRANCH   6  23
HETATM   23  O3  UNL     1      -0.269  32.062   1.911  1.00  0.00    -0.360 OA
ATOM     24  H3  UNL     1       0.099  32.317   2.749  1.00  0.00     0.217 HD
ENDBRANCH   6  23
TORSDOF 4
ENDMDL
