MODEL 2
REMARK VINA RESULT: -9.155655633      1.533      1.538
REMARK  4 active torsions:
REMARK  status: ('A' for Active; 'I' for Inactive)
REMARK    1  A    between atoms: C2_2  and  C4_4 
REMARK    2  A    between atoms: C6_6  and  C7_7 
REMARK       I    between atoms: C7_7  and  N1_9 
REMARK    3  A    between atoms: C16_18  and  O2_19 
REMARK    4  A    between atoms: C18_22  and  O3_23 
ROOT
HETATM    1  C4  UNL     1      -0.283  32.422   0.871  1.00  0.00    -0.020 A 
HETATM    2  C5  UNL     1      -0.502  33.060  -0.366  1.00  0.00     0.030 A 
HETATM    3  C6  UNL     1      -1.616  33.794  -0.669  1.00  0.00     0.066 A 
HETATM    4  C16 UNL     1      -2.620  33.911   0.318  1.00  0.00     0.084 A 
HETATM    5  C17 UNL     1      -2.400  33.273   1.554  1.00  0.00     0.074 A 
HETATM    6  C18 UNL     1      -1.251  32.555   1.801  1.00  0.00     0.075 A 
ENDROOT
BRANCH   3   7
HETATM    7  C7  UNL     1      -1.816  34.567  -1.852  1.00  0.00     0.264 C 
HETATM    8  O1  UNL     1      -2.898  34.359  -2.533  1.00  0.00    -0.267 OA
HETATM    9  N1  UNL     1      -0.990  35.570  -2.413  1.00  0.00    -0.298 N 
HETATM   10  C8  UNL     1      -1.348  36.277  -3.550  1.00  0.00     0.112 A 
HETATM   11  C15 UNL     1       0.189  36.100  -2.068  1.00  0.00     0.112 A 
HETATM   12  C9  UNL     1      -0.404  37.199  -3.865  1.00  0.00    -0.009 A 
HETATM   13  C10 UNL     1      -0.249  38.164  -4.855  1.00  0.00     0.014 A 
HETATM   14  C14 UNL     1       0.589  37.107  -2.934  1.00  0.00    -0.009 A 
HETATM   15  C11 UNL     1       0.837  39.002  -4.916  1.00  0.00     0.001 A 
HETATM   16  C12 UNL     1       1.847  38.886  -3.940  1.00  0.00     0.001 A 
HETATM   17  C13 UNL     1       1.702  37.933  -2.961  1.00  0.00     0.014 A 
ENDBRANCH   3   7
BRANCH   4  18
HETATM   18  O2  UNL     1      -3.779  34.567   0.223  1.00  0.00    -0.360 OA
ATOM     19  H2  UNL     1      -4.049  35.337   0.709  1.00  0.00     0.217 HD
ENDBRANCH   4  18
BRANCH   1  20
HETATM   20  C2  UNL     1       1.024  31.849   1.105  1.00  0.00     0.013 C 
HETATM   21  C1  UNL     1       2.209  32.779   0.951  1.00  0.00     0.015 C 
HETATM   22  C3  UNL     1       1.249  30.536   0.473  1.00  0.00     0.015 C 
ENDBRANCH   1  20
BRANCH   6  23
HETATM   23  O3  UNL     1      -1.131  31.969   3.046  1.00  0.00    -0.360 OA
ATOM     24  H3  UNL     1      -0.729  32.434   3.770  1.00  0.00     0.217 HD
ENDBRANCH   6  23
TORSDOF 4
ENDMDL
