MODEL 10
REMARK VINA RESULT: -7.590497067      1.074      1.428
REMARK  4 active torsions:
REMARK  status: ('A' for Active; 'I' for Inactive)
REMARK    1  A    between atoms: C2_2  and  C4_4 
REMARK    2  A    between atoms: C6_6  and  C7_7 
REMARK       I    between atoms: C7_7  and  N1_9 
REMARK    3  A    between atoms: C16_18  and  O2_19 
REMARK    4  A    between atoms: C18_22  and  O3_23 
ROOT
HETATM    1  C4  UNL     1       0.078  32.727   0.784  1.00  0.00    -0.020 A 
HETATM    2  C5  UNL     1      -0.022  33.792  -0.133  1.00  0.00     0.030 A 
HETATM    3  C6  UNL     1      -1.170  34.491  -0.383  1.00  0.00     0.066 A 
HETATM    4  C16 UNL     1      -2.339  34.114   0.316  1.00  0.00     0.084 A 
HETATM    5  C17 UNL     1      -2.238  33.050   1.234  1.00  0.00     0.074 A 
HETATM    6  C18 UNL     1      -1.049  32.391   1.447  1.00  0.00     0.075 A 
ENDROOT
BRANCH   3   7
HETATM    7  C7  UNL     1      -1.284  35.659  -1.197  1.00  0.00     0.264 C 
HETATM    8  O1  UNL     1      -1.959  35.563  -2.298  1.00  0.00    -0.267 OA
HETATM    9  N1  UNL     1      -0.762  36.955  -0.974  1.00  0.00    -0.298 N 
HETATM   10  C8  UNL     1      -1.004  38.011  -1.839  1.00  0.00     0.112 A 
HETATM   11  C15 UNL     1      -0.021  37.502  -0.005  1.00  0.00     0.112 A 
HETATM   12  C9  UNL     1      -0.421  39.150  -1.389  1.00  0.00    -0.009 A 
HETATM   13  C10 UNL     1      -0.349  40.469  -1.824  1.00  0.00     0.014 A 
HETATM   14  C14 UNL     1       0.213  38.852  -0.218  1.00  0.00    -0.009 A 
HETATM   15  C11 UNL     1       0.316  41.449  -1.129  1.00  0.00     0.001 A 
HETATM   16  C12 UNL     1       0.961  41.114   0.078  1.00  0.00     0.001 A 
HETATM   17  C13 UNL     1       0.897  39.813   0.514  1.00  0.00     0.014 A 
ENDBRANCH   3   7
BRANCH   4  18
HETATM   18  O2  UNL     1      -3.556  34.654   0.213  1.00  0.00    -0.360 OA
ATOM     19  H2  UNL     1      -4.336  34.418   0.702  1.00  0.00     0.217 HD
ENDBRANCH   4  18
BRANCH   1  20
HETATM   20  C2  UNL     1       1.400  32.219   1.077  1.00  0.00     0.013 C 
HETATM   21  C1  UNL     1       2.549  33.192   0.921  1.00  0.00     0.015 C 
HETATM   22  C3  UNL     1       1.697  30.894   0.502  1.00  0.00     0.015 C 
ENDBRANCH   1  20
BRANCH   6  23
HETATM   23  O3  UNL     1      -1.055  31.363   2.369  1.00  0.00    -0.360 OA
ATOM     24  H3  UNL     1      -1.382  31.497   3.251  1.00  0.00     0.217 HD
ENDBRANCH   6  23
TORSDOF 4
ENDMDL
