MODEL 5
REMARK VINA RESULT: -7.988193272      2.543      7.375
REMARK  4 active torsions:
REMARK  status: ('A' for Active; 'I' for Inactive)
REMARK    1  A    between atoms: C2_2  and  C4_4 
REMARK    2  A    between atoms: C6_6  and  C7_7 
REMARK       I    between atoms: C7_7  and  N1_9 
REMARK    3  A    between atoms: C16_18  and  O2_19 
REMARK    4  A    between atoms: C18_22  and  O3_23 
ROOT
HETATM    1  C4  UNL     1      -0.448  39.255  -4.951  1.00  0.00    -0.020 A 
HETATM    2  C5  UNL     1      -0.574  37.937  -4.469  1.00  0.00     0.030 A 
HETATM    3  C6  UNL     1      -0.909  37.613  -3.183  1.00  0.00     0.066 A 
HETATM    4  C16 UNL     1      -1.132  38.670  -2.272  1.00  0.00     0.084 A 
HETATM    5  C17 UNL     1      -1.005  39.987  -2.755  1.00  0.00     0.074 A 
HETATM    6  C18 UNL     1      -0.674  40.247  -4.065  1.00  0.00     0.075 A 
ENDROOT
BRANCH   3   7
HETATM    7  C7  UNL     1      -1.182  36.302  -2.690  1.00  0.00     0.264 C 
HETATM    8  O1  UNL     1      -2.221  35.685  -3.158  1.00  0.00    -0.267 OA
HETATM    9  N1  UNL     1      -0.462  35.538  -1.741  1.00  0.00    -0.298 N 
HETATM   10  C8  UNL     1      -0.826  34.245  -1.399  1.00  0.00     0.112 A 
HETATM   11  C15 UNL     1       0.637  35.761  -1.013  1.00  0.00     0.112 A 
HETATM   12  C9  UNL     1       0.038  33.721  -0.494  1.00  0.00    -0.009 A 
HETATM   13  C10 UNL     1       0.170  32.503   0.165  1.00  0.00     0.014 A 
HETATM   14  C14 UNL     1       0.982  34.670  -0.230  1.00  0.00    -0.009 A 
HETATM   15  C11 UNL     1       1.193  32.236   1.041  1.00  0.00     0.001 A 
HETATM   16  C12 UNL     1       2.156  33.233   1.294  1.00  0.00     0.001 A 
HETATM   17  C13 UNL     1       2.031  34.440   0.648  1.00  0.00     0.014 A 
ENDBRANCH   3   7
BRANCH   4  18
HETATM   18  O2  UNL     1      -1.454  38.574  -0.980  1.00  0.00    -0.360 OA
ATOM     19  H2  UNL     1      -1.962  39.189  -0.464  1.00  0.00     0.217 HD
ENDBRANCH   4  18
BRANCH   1  20
HETATM   20  C2  UNL     1      -0.279  39.432  -6.376  1.00  0.00     0.013 C 
HETATM   21  C1  UNL     1      -0.884  38.367  -7.267  1.00  0.00     0.015 C 
HETATM   22  C3  UNL     1       1.080  39.818  -6.797  1.00  0.00     0.015 C 
ENDBRANCH   1  20
BRANCH   6  23
HETATM   23  O3  UNL     1      -0.576  41.573  -4.439  1.00  0.00    -0.360 OA
ATOM     24  H3  UNL     1      -1.336  42.053  -4.747  1.00  0.00     0.217 HD
ENDBRANCH   6  23
TORSDOF 4
ENDMDL
