MODEL 1
REMARK VINA RESULT: -9.323381133      0.000      0.000
REMARK  4 active torsions:
REMARK  status: ('A' for Active; 'I' for Inactive)
REMARK    1  A    between atoms: C2_2  and  C4_4 
REMARK    2  A    between atoms: C6_6  and  C7_7 
REMARK       I    between atoms: C7_7  and  N1_9 
REMARK    3  A    between atoms: C16_18  and  O2_19 
REMARK    4  A    between atoms: C18_22  and  O3_23 
ROOT
HETATM    1  C4  UNL     1      -0.231  32.486   0.831  1.00  0.00    -0.020 A 
HETATM    2  C5  UNL     1      -0.378  33.210  -0.369  1.00  0.00     0.030 A 
HETATM    3  C6  UNL     1      -1.474  33.963  -0.688  1.00  0.00     0.066 A 
HETATM    4  C16 UNL     1      -2.537  34.010   0.242  1.00  0.00     0.084 A 
HETATM    5  C17 UNL     1      -2.390  33.287   1.441  1.00  0.00     0.074 A 
HETATM    6  C18 UNL     1      -1.255  32.554   1.707  1.00  0.00     0.075 A 
ENDROOT
BRANCH   3   7
HETATM    7  C7  UNL     1      -1.605  34.818  -1.824  1.00  0.00     0.264 C 
HETATM    8  O1  UNL     1      -2.011  34.288  -2.935  1.00  0.00    -0.267 OA
HETATM    9  N1  UNL     1      -1.362  36.208  -1.927  1.00  0.00    -0.298 N 
HETATM   10  C8  UNL     1      -1.587  36.916  -3.097  1.00  0.00     0.112 A 
HETATM   11  C15 UNL     1      -0.940  37.141  -1.067  1.00  0.00     0.112 A 
HETATM   12  C9  UNL     1      -1.307  38.232  -2.929  1.00  0.00    -0.009 A 
HETATM   13  C10 UNL     1      -1.363  39.371  -3.726  1.00  0.00     0.014 A 
HETATM   14  C14 UNL     1      -0.891  38.403  -1.640  1.00  0.00    -0.009 A 
HETATM   15  C11 UNL     1      -1.028  40.621  -3.267  1.00  0.00     0.001 A 
HETATM   16  C12 UNL     1      -0.604  40.769  -1.931  1.00  0.00     0.001 A 
HETATM   17  C13 UNL     1      -0.543  39.649  -1.138  1.00  0.00     0.014 A 
ENDBRANCH   3   7
BRANCH   4  18
HETATM   18  O2  UNL     1      -3.692  34.670   0.122  1.00  0.00    -0.360 OA
ATOM     19  H2  UNL     1      -3.837  35.603   0.224  1.00  0.00     0.217 HD
ENDBRANCH   4  18
BRANCH   1  20
HETATM   20  C2  UNL     1       1.062  31.899   1.104  1.00  0.00     0.013 C 
HETATM   21  C1  UNL     1       2.265  32.804   0.937  1.00  0.00     0.015 C 
HETATM   22  C3  UNL     1       1.272  30.562   0.519  1.00  0.00     0.015 C 
ENDBRANCH   1  20
BRANCH   6  23
HETATM   23  O3  UNL     1      -1.208  31.882   2.913  1.00  0.00    -0.360 OA
ATOM     24  H3  UNL     1      -1.159  32.354   3.736  1.00  0.00     0.217 HD
ENDBRANCH   6  23
TORSDOF 4
ENDMDL
