MODEL 6
REMARK VINA RESULT: -7.714746747      2.250      7.384
REMARK  4 active torsions:
REMARK  status: ('A' for Active; 'I' for Inactive)
REMARK    1  A    between atoms: C2_2  and  C4_4 
REMARK    2  A    between atoms: C6_6  and  C7_7 
REMARK       I    between atoms: C7_7  and  N1_9 
REMARK    3  A    between atoms: C16_18  and  O2_19 
REMARK    4  A    between atoms: C18_22  and  O3_23 
ROOT
HETATM    1  C4  UNL     1      -0.567  40.196  -3.016  1.00  0.00    -0.020 A 
HETATM    2  C5  UNL     1      -0.956  38.932  -2.529  1.00  0.00     0.030 A 
HETATM    3  C6  UNL     1      -0.938  37.780  -3.266  1.00  0.00     0.066 A 
HETATM    4  C16 UNL     1      -0.510  37.863  -4.610  1.00  0.00     0.084 A 
HETATM    5  C17 UNL     1      -0.121  39.126  -5.097  1.00  0.00     0.074 A 
HETATM    6  C18 UNL     1      -0.155  40.248  -4.300  1.00  0.00     0.075 A 
ENDROOT
BRANCH   3   7
HETATM    7  C7  UNL     1      -1.190  36.464  -2.775  1.00  0.00     0.264 C 
HETATM    8  O1  UNL     1      -2.208  35.824  -3.259  1.00  0.00    -0.267 OA
HETATM    9  N1  UNL     1      -0.469  35.717  -1.813  1.00  0.00    -0.298 N 
HETATM   10  C8  UNL     1      -0.810  34.417  -1.476  1.00  0.00     0.112 A 
HETATM   11  C15 UNL     1       0.614  35.965  -1.069  1.00  0.00     0.112 A 
HETATM   12  C9  UNL     1       0.051  33.913  -0.557  1.00  0.00    -0.009 A 
HETATM   13  C10 UNL     1       0.200  32.699   0.106  1.00  0.00     0.014 A 
HETATM   14  C14 UNL     1       0.971  34.882  -0.279  1.00  0.00    -0.009 A 
HETATM   15  C11 UNL     1       1.214  32.454   0.998  1.00  0.00     0.001 A 
HETATM   16  C12 UNL     1       2.151  33.473   1.265  1.00  0.00     0.001 A 
HETATM   17  C13 UNL     1       2.010  34.676   0.616  1.00  0.00     0.014 A 
ENDBRANCH   3   7
BRANCH   4  18
HETATM   18  O2  UNL     1      -0.428  36.869  -5.498  1.00  0.00    -0.360 OA
ATOM     19  H2  UNL     1       0.318  36.306  -5.668  1.00  0.00     0.217 HD
ENDBRANCH   4  18
BRANCH   1  20
HETATM   20  C2  UNL     1      -0.460  41.276  -2.062  1.00  0.00     0.013 C 
HETATM   21  C1  UNL     1       0.112  40.927  -0.704  1.00  0.00     0.015 C 
HETATM   22  C3  UNL     1      -1.649  42.143  -1.969  1.00  0.00     0.015 C 
ENDBRANCH   1  20
BRANCH   6  23
HETATM   23  O3  UNL     1       0.249  41.439  -4.872  1.00  0.00    -0.360 OA
ATOM     24  H3  UNL     1      -0.335  41.937  -5.431  1.00  0.00     0.217 HD
ENDBRANCH   6  23
TORSDOF 4
ENDMDL
