MODEL 4
REMARK VINA RESULT: -9.326957375      1.835      2.910
REMARK  9 active torsions:
REMARK  status: ('A' for Active; 'I' for Inactive)
REMARK    1  A    between atoms: O1_2  and  C2_3 
REMARK    2  A    between atoms: C4_5  and  N1_6 
REMARK    3  A    between atoms: C7_9  and  N2_10 
REMARK    4  A    between atoms: C17_21  and  N4_22 
REMARK    5  A    between atoms: N4_22  and  C18_24 
REMARK    6  A    between atoms: C21_30  and  N6_31 
REMARK    7  A    between atoms: N6_31  and  C22_33 
REMARK    8  A    between atoms: C27_38  and  S1_39 
REMARK    9  A    between atoms: S1_39  and  C28_42 
ROOT
HETATM    1  C18 UNL     1       2.650  17.374   9.377  1.00  0.00     0.684 A 
HETATM    2  N5  UNL     1       2.608  16.650  10.489  1.00  0.00    -0.200 N 
ATOM      3  H5  UNL     1       1.823  16.805  11.122  1.00  0.00     0.183 HD
HETATM    4  C19 UNL     1       3.510  15.736  10.840  1.00  0.00     0.133 A 
HETATM    5  C20 UNL     1       4.577  15.493  10.025  1.00  0.00     0.094 A 
HETATM    6 CL1  UNL     1       5.809  14.298  10.426  1.00  0.00    -0.079 Cl
HETATM    7  C21 UNL     1       4.662  16.244   8.824  1.00  0.00     0.144 A 
HETATM    8  N7  UNL     1       3.719  17.124   8.568  1.00  0.00    -0.175 N 
ATOM      9  H7  UNL     1       3.792  17.659   7.702  1.00  0.00     0.186 HD
ENDROOT
BRANCH   1  10
HETATM   10  N4  UNL     1       1.704  18.357   8.976  1.00  0.00    -0.189 N 
ATOM     11  H4  UNL     1       0.734  18.241   9.271  1.00  0.00     0.184 HD
BRANCH  10  12
HETATM   12  C17 UNL     1       2.032  19.473   8.200  1.00  0.00     0.082 A 
HETATM   13  C2  UNL     1       0.984  20.246   7.677  1.00  0.00     0.097 A 
HETATM   14  C3  UNL     1       1.218  21.367   6.899  1.00  0.00     0.068 A 
HETATM   15  C4  UNL     1       2.476  21.800   6.585  1.00  0.00     0.033 A 
HETATM   16  C15 UNL     1       3.532  21.045   7.097  1.00  0.00     0.032 A 
HETATM   17  C16 UNL     1       3.286  19.921   7.876  1.00  0.00     0.035 A 
BRANCH  13  18
HETATM   18  O1  UNL     1      -0.310  19.849   7.965  1.00  0.00    -0.354 OA
HETATM   19  C1  UNL     1      -1.300  19.887   6.970  1.00  0.00     0.210 C 
ENDBRANCH  13  18
BRANCH  15  20
HETATM   20  N1  UNL     1       2.698  22.933   5.791  1.00  0.00    -0.381 N 
HETATM   21  C5  UNL     1       3.011  24.210   6.360  1.00  0.00     0.125 C 
HETATM   22  C6  UNL     1       4.456  24.479   5.902  1.00  0.00     0.055 C 
HETATM   23  C7  UNL     1       4.436  24.654   4.425  1.00  0.00     0.226 C 
HETATM   24  C13 UNL     1       3.358  23.979   3.674  1.00  0.00     0.055 C 
HETATM   25  C14 UNL     1       2.634  22.864   4.362  1.00  0.00     0.125 C 
BRANCH  23  26
HETATM   26  N2  UNL     1       5.714  24.261   3.817  1.00  0.00     0.096 N 
HETATM   27  C8  UNL     1       5.663  24.596   2.411  1.00  0.00     0.303 C 
HETATM   28  C9  UNL     1       6.949  25.210   1.918  1.00  0.00     0.302 C 
HETATM   29  N3  UNL     1       7.178  26.420   2.671  1.00  0.00     0.087 N 
HETATM   30  C10 UNL     1       6.207  27.454   2.337  1.00  0.00     0.310 C 
HETATM   31  C11 UNL     1       7.177  26.220   4.087  1.00  0.00     0.302 C 
HETATM   32  C12 UNL     1       6.842  24.810   4.492  1.00  0.00     0.303 C 
ENDBRANCH  23  26
ENDBRANCH  15  20
ENDBRANCH  10  12
ENDBRANCH   1  10
BRANCH   7  33
HETATM   33  N6  UNL     1       5.767  15.977   8.008  1.00  0.00    -0.339 N 
ATOM     34  H6  UNL     1       6.178  15.045   8.063  1.00  0.00     0.167 HD
BRANCH  33  35
HETATM   35  C22 UNL     1       6.354  16.894   7.116  1.00  0.00     0.055 A 
HETATM   36  C23 UNL     1       5.675  17.457   6.078  1.00  0.00     0.031 A 
HETATM   37  C24 UNL     1       6.294  18.357   5.217  1.00  0.00     0.002 A 
HETATM   38  C25 UNL     1       7.605  18.697   5.401  1.00  0.00     0.002 A 
HETATM   39  C26 UNL     1       8.276  18.123   6.449  1.00  0.00     0.026 A 
HETATM   40  C27 UNL     1       7.716  17.235   7.321  1.00  0.00     0.086 A 
BRANCH  40  41
HETATM   41  S1  UNL     1       8.598  16.527   8.644  1.00  0.00     0.181 S 
HETATM   42  O2  UNL     1       8.018  17.034   9.947  1.00  0.00    -0.222 OA
HETATM   43  O3  UNL     1       8.503  15.032   8.560  1.00  0.00    -0.222 OA
BRANCH  41  44
HETATM   44  C28 UNL     1      10.321  16.962   8.583  1.00  0.00     0.105 C 
HETATM   45  C29 UNL     1      11.130  15.775   8.083  1.00  0.00     0.026 C 
HETATM   46  C30 UNL     1      10.826  17.475   9.887  1.00  0.00     0.026 C 
ENDBRANCH  41  44
ENDBRANCH  40  41
ENDBRANCH  33  35
ENDBRANCH   7  33
TORSDOF 9
ENDMDL
