MODEL 8
REMARK VINA RESULT: -9.275867837      3.408      5.482
REMARK  9 active torsions:
REMARK  status: ('A' for Active; 'I' for Inactive)
REMARK    1  A    between atoms: O1_2  and  C2_3 
REMARK    2  A    between atoms: C4_5  and  N1_6 
REMARK    3  A    between atoms: C7_9  and  N2_10 
REMARK    4  A    between atoms: C17_21  and  N4_22 
REMARK    5  A    between atoms: N4_22  and  C18_24 
REMARK    6  A    between atoms: C21_30  and  N6_31 
REMARK    7  A    between atoms: N6_31  and  C22_33 
REMARK    8  A    between atoms: C27_38  and  S1_39 
REMARK    9  A    between atoms: S1_39  and  C28_42 
ROOT
HETATM    1  C18 UNL     1       5.143  20.214   6.988  1.00  0.00     0.684 A 
HETATM    2  N5  UNL     1       5.996  20.656   6.072  1.00  0.00    -0.200 N 
ATOM      3  H5  UNL     1       5.936  21.639   5.808  1.00  0.00     0.183 HD
HETATM    4  C19 UNL     1       6.925  19.914   5.471  1.00  0.00     0.133 A 
HETATM    5  C20 UNL     1       7.044  18.593   5.791  1.00  0.00     0.094 A 
HETATM    6 CL1  UNL     1       8.250  17.552   5.037  1.00  0.00    -0.079 Cl
HETATM    7  C21 UNL     1       6.152  18.078   6.767  1.00  0.00     0.144 A 
HETATM    8  N7  UNL     1       5.270  18.893   7.302  1.00  0.00    -0.175 N 
ATOM      9  H7  UNL     1       4.634  18.510   8.002  1.00  0.00     0.186 HD
ENDROOT
BRANCH   1  10
HETATM   10  N4  UNL     1       4.141  20.980   7.645  1.00  0.00    -0.189 N 
ATOM     11  H4  UNL     1       4.417  21.553   8.443  1.00  0.00     0.184 HD
BRANCH  10  12
HETATM   12  C17 UNL     1       2.798  20.991   7.255  1.00  0.00     0.082 A 
HETATM   13  C2  UNL     1       1.923  20.085   7.873  1.00  0.00     0.097 A 
HETATM   14  C3  UNL     1       0.578  20.027   7.549  1.00  0.00     0.068 A 
HETATM   15  C4  UNL     1       0.008  20.842   6.610  1.00  0.00     0.033 A 
HETATM   16  C15 UNL     1       0.863  21.750   5.984  1.00  0.00     0.032 A 
HETATM   17  C16 UNL     1       2.211  21.800   6.317  1.00  0.00     0.035 A 
BRANCH  13  18
HETATM   18  O1  UNL     1       2.451  19.238   8.831  1.00  0.00    -0.354 OA
HETATM   19  C1  UNL     1       1.805  18.030   9.141  1.00  0.00     0.210 C 
ENDBRANCH  13  18
BRANCH  15  20
HETATM   20  N1  UNL     1      -1.353  20.768   6.287  1.00  0.00    -0.381 N 
HETATM   21  C5  UNL     1      -2.185  19.695   6.745  1.00  0.00     0.125 C 
HETATM   22  C6  UNL     1      -3.177  20.375   7.706  1.00  0.00     0.055 C 
HETATM   23  C7  UNL     1      -4.038  21.280   6.899  1.00  0.00     0.226 C 
HETATM   24  C13 UNL     1      -3.472  21.823   5.647  1.00  0.00     0.055 C 
HETATM   25  C14 UNL     1      -1.985  21.775   5.488  1.00  0.00     0.125 C 
BRANCH  23  26
HETATM   26  N2  UNL     1      -4.525  22.415   7.694  1.00  0.00     0.096 N 
HETATM   27  C8  UNL     1      -4.717  23.537   6.803  1.00  0.00     0.303 C 
HETATM   28  C9  UNL     1      -5.993  24.290   7.089  1.00  0.00     0.302 C 
HETATM   29  N3  UNL     1      -7.094  23.373   6.917  1.00  0.00     0.087 N 
HETATM   30  C10 UNL     1      -7.273  23.003   5.519  1.00  0.00     0.310 C 
HETATM   31  C11 UNL     1      -6.975  22.184   7.702  1.00  0.00     0.302 C 
HETATM   32  C12 UNL     1      -5.681  22.098   8.466  1.00  0.00     0.303 C 
ENDBRANCH  23  26
ENDBRANCH  15  20
ENDBRANCH  10  12
ENDBRANCH   1  10
BRANCH   7  33
HETATM   33  N6  UNL     1       6.295  16.720   7.076  1.00  0.00    -0.339 N 
ATOM     34  H6  UNL     1       6.701  16.115   6.361  1.00  0.00     0.167 HD
BRANCH  33  35
HETATM   35  C22 UNL     1       5.922  16.124   8.295  1.00  0.00     0.055 A 
HETATM   36  C23 UNL     1       4.623  15.953   8.669  1.00  0.00     0.031 A 
HETATM   37  C24 UNL     1       4.296  15.362   9.885  1.00  0.00     0.002 A 
HETATM   38  C25 UNL     1       5.281  14.939  10.733  1.00  0.00     0.002 A 
HETATM   39  C26 UNL     1       6.583  15.117  10.344  1.00  0.00     0.026 A 
HETATM   40  C27 UNL     1       6.957  15.690   9.163  1.00  0.00     0.086 A 
BRANCH  40  41
HETATM   41  S1  UNL     1       8.621  15.899   8.701  1.00  0.00     0.181 S 
HETATM   42  O2  UNL     1       9.497  15.106   9.648  1.00  0.00    -0.222 OA
HETATM   43  O3  UNL     1       8.805  15.435   7.285  1.00  0.00    -0.222 OA
BRANCH  41  44
HETATM   44  C28 UNL     1       9.107  17.607   8.776  1.00  0.00     0.105 C 
HETATM   45  C29 UNL     1      10.622  17.703   8.882  1.00  0.00     0.026 C 
HETATM   46  C30 UNL     1       8.421  18.348   9.872  1.00  0.00     0.026 C 
ENDBRANCH  41  44
ENDBRANCH  40  41
ENDBRANCH  33  35
ENDBRANCH   7  33
TORSDOF 9
ENDMDL
