MODEL 2
REMARK VINA RESULT: -9.413706443      1.684      2.797
REMARK  9 active torsions:
REMARK  status: ('A' for Active; 'I' for Inactive)
REMARK    1  A    between atoms: O1_2  and  C2_3 
REMARK    2  A    between atoms: C4_5  and  N1_6 
REMARK    3  A    between atoms: C7_9  and  N2_10 
REMARK    4  A    between atoms: C17_21  and  N4_22 
REMARK    5  A    between atoms: N4_22  and  C18_24 
REMARK    6  A    between atoms: C21_30  and  N6_31 
REMARK    7  A    between atoms: N6_31  and  C22_33 
REMARK    8  A    between atoms: C27_38  and  S1_39 
REMARK    9  A    between atoms: S1_39  and  C28_42 
ROOT
HETATM    1  C18 UNL     1       2.772  17.342   9.445  1.00  0.00     0.684 A 
HETATM    2  N5  UNL     1       2.667  16.578  10.525  1.00  0.00    -0.200 N 
ATOM      3  H5  UNL     1       1.838  16.696  11.107  1.00  0.00     0.183 HD
HETATM    4  C19 UNL     1       3.561  15.668  10.907  1.00  0.00     0.133 A 
HETATM    5  C20 UNL     1       4.687  15.473  10.159  1.00  0.00     0.094 A 
HETATM    6 CL1  UNL     1       5.912  14.287  10.604  1.00  0.00    -0.079 Cl
HETATM    7  C21 UNL     1       4.839  16.269   8.995  1.00  0.00     0.144 A 
HETATM    8  N7  UNL     1       3.898  17.141   8.704  1.00  0.00    -0.175 N 
ATOM      9  H7  UNL     1       4.020  17.707   7.864  1.00  0.00     0.186 HD
ENDROOT
BRANCH   1  10
HETATM   10  N4  UNL     1       1.835  18.322   9.014  1.00  0.00    -0.189 N 
ATOM     11  H4  UNL     1       0.855  18.200   9.271  1.00  0.00     0.184 HD
BRANCH  10  12
HETATM   12  C17 UNL     1       2.186  19.443   8.255  1.00  0.00     0.082 A 
HETATM   13  C2  UNL     1       1.155  20.206   7.685  1.00  0.00     0.097 A 
HETATM   14  C3  UNL     1       1.412  21.331   6.921  1.00  0.00     0.068 A 
HETATM   15  C4  UNL     1       2.679  21.780   6.668  1.00  0.00     0.033 A 
HETATM   16  C15 UNL     1       3.718  21.035   7.226  1.00  0.00     0.032 A 
HETATM   17  C16 UNL     1       3.449  19.907   7.992  1.00  0.00     0.035 A 
BRANCH  13  18
HETATM   18  O1  UNL     1      -0.146  19.794   7.913  1.00  0.00    -0.354 OA
HETATM   19  C1  UNL     1      -1.222  20.626   7.566  1.00  0.00     0.210 C 
ENDBRANCH  13  18
BRANCH  15  20
HETATM   20  N1  UNL     1       2.924  22.917   5.887  1.00  0.00    -0.381 N 
HETATM   21  C5  UNL     1       3.299  24.172   6.468  1.00  0.00     0.125 C 
HETATM   22  C6  UNL     1       4.742  24.394   5.979  1.00  0.00     0.055 C 
HETATM   23  C7  UNL     1       4.692  24.595   4.506  1.00  0.00     0.226 C 
HETATM   24  C13 UNL     1       3.571  23.974   3.771  1.00  0.00     0.055 C 
HETATM   25  C14 UNL     1       2.822  22.876   4.459  1.00  0.00     0.125 C 
BRANCH  23  26
HETATM   26  N2  UNL     1       5.939  24.164   3.859  1.00  0.00     0.096 N 
HETATM   27  C8  UNL     1       5.838  24.463   2.448  1.00  0.00     0.303 C 
HETATM   28  C9  UNL     1       7.114  25.042   1.889  1.00  0.00     0.302 C 
HETATM   29  N3  UNL     1       7.391  26.267   2.600  1.00  0.00     0.087 N 
HETATM   30  C10 UNL     1       6.424  27.308   2.276  1.00  0.00     0.310 C 
HETATM   31  C11 UNL     1       7.443  26.105   4.019  1.00  0.00     0.302 C 
HETATM   32  C12 UNL     1       7.102  24.711   4.475  1.00  0.00     0.303 C 
ENDBRANCH  23  26
ENDBRANCH  15  20
ENDBRANCH  10  12
ENDBRANCH   1  10
BRANCH   7  33
HETATM   33  N6  UNL     1       6.003  16.050   8.248  1.00  0.00    -0.339 N 
ATOM     34  H6  UNL     1       6.554  15.221   8.468  1.00  0.00     0.167 HD
BRANCH  33  35
HETATM   35  C22 UNL     1       6.470  16.886   7.217  1.00  0.00     0.055 A 
HETATM   36  C23 UNL     1       5.681  17.307   6.189  1.00  0.00     0.031 A 
HETATM   37  C24 UNL     1       6.184  18.131   5.187  1.00  0.00     0.002 A 
HETATM   38  C25 UNL     1       7.489  18.537   5.218  1.00  0.00     0.002 A 
HETATM   39  C26 UNL     1       8.270  18.106   6.258  1.00  0.00     0.026 A 
HETATM   40  C27 UNL     1       7.827  17.298   7.264  1.00  0.00     0.086 A 
BRANCH  40  41
HETATM   41  S1  UNL     1       8.848  16.771   8.571  1.00  0.00     0.181 S 
HETATM   42  O2  UNL     1       8.646  15.286   8.784  1.00  0.00    -0.222 OA
HETATM   43  O3  UNL     1      10.280  17.074   8.235  1.00  0.00    -0.222 OA
BRANCH  41  44
HETATM   44  C28 UNL     1       8.458  17.620  10.083  1.00  0.00     0.105 C 
HETATM   45  C29 UNL     1       8.405  19.119   9.829  1.00  0.00     0.026 C 
HETATM   46  C30 UNL     1       9.392  17.272  11.190  1.00  0.00     0.026 C 
ENDBRANCH  41  44
ENDBRANCH  40  41
ENDBRANCH  33  35
ENDBRANCH   7  33
TORSDOF 9
ENDMDL
