MODEL 5
REMARK VINA RESULT: -9.321913028      4.062      9.775
REMARK  9 active torsions:
REMARK  status: ('A' for Active; 'I' for Inactive)
REMARK    1  A    between atoms: O1_2  and  C2_3 
REMARK    2  A    between atoms: C4_5  and  N1_6 
REMARK    3  A    between atoms: C7_9  and  N2_10 
REMARK    4  A    between atoms: C17_21  and  N4_22 
REMARK    5  A    between atoms: N4_22  and  C18_24 
REMARK    6  A    between atoms: C21_30  and  N6_31 
REMARK    7  A    between atoms: N6_31  and  C22_33 
REMARK    8  A    between atoms: C27_38  and  S1_39 
REMARK    9  A    between atoms: S1_39  and  C28_42 
ROOT
HETATM    1  C18 UNL     1       0.263  20.332   7.901  1.00  0.00     0.684 A 
HETATM    2  N5  UNL     1      -0.735  19.972   7.104  1.00  0.00    -0.200 N 
ATOM      3  H5  UNL     1      -0.915  18.974   6.996  1.00  0.00     0.183 HD
HETATM    4  C19 UNL     1      -1.520  20.815   6.435  1.00  0.00     0.133 A 
HETATM    5  C20 UNL     1      -1.318  22.160   6.548  1.00  0.00     0.094 A 
HETATM    6 CL1  UNL     1      -2.317  23.332   5.693  1.00  0.00    -0.079 Cl
HETATM    7  C21 UNL     1      -0.260  22.589   7.392  1.00  0.00     0.144 A 
HETATM    8  N7  UNL     1       0.458  21.677   8.009  1.00  0.00    -0.175 N 
ATOM      9  H7  UNL     1       1.215  21.998   8.613  1.00  0.00     0.186 HD
ENDROOT
BRANCH   1  10
HETATM   10  N4  UNL     1       1.118  19.456   8.627  1.00  0.00    -0.189 N 
ATOM     11  H4  UNL     1       0.811  19.132   9.544  1.00  0.00     0.184 HD
BRANCH  10  12
HETATM   12  C17 UNL     1       2.357  19.017   8.150  1.00  0.00     0.082 A 
HETATM   13  C2  UNL     1       2.885  17.827   8.676  1.00  0.00     0.097 A 
HETATM   14  C3  UNL     1       4.103  17.319   8.261  1.00  0.00     0.068 A 
HETATM   15  C4  UNL     1       4.877  17.933   7.315  1.00  0.00     0.033 A 
HETATM   16  C15 UNL     1       4.369  19.117   6.779  1.00  0.00     0.032 A 
HETATM   17  C16 UNL     1       3.145  19.619   7.203  1.00  0.00     0.035 A 
BRANCH  13  18
HETATM   18  O1  UNL     1       2.140  17.168   9.637  1.00  0.00    -0.354 OA
HETATM   19  C1  UNL     1       2.758  16.258  10.510  1.00  0.00     0.210 C 
ENDBRANCH  13  18
BRANCH  15  20
HETATM   20  N1  UNL     1       6.112  17.411   6.909  1.00  0.00    -0.381 N 
HETATM   21  C5  UNL     1       6.729  17.793   5.673  1.00  0.00     0.125 C 
HETATM   22  C6  UNL     1       7.994  18.555   6.107  1.00  0.00     0.055 C 
HETATM   23  C7  UNL     1       8.905  17.580   6.764  1.00  0.00     0.226 C 
HETATM   24  C13 UNL     1       8.290  16.402   7.410  1.00  0.00     0.055 C 
HETATM   25  C14 UNL     1       6.828  16.473   7.721  1.00  0.00     0.125 C 
BRANCH  23  26
HETATM   26  N2  UNL     1       9.767  18.231   7.760  1.00  0.00     0.096 N 
HETATM   27  C8  UNL     1       9.997  17.294   8.836  1.00  0.00     0.303 C 
HETATM   28  C9  UNL     1      11.431  17.294   9.304  1.00  0.00     0.302 C 
HETATM   29  N3  UNL     1      12.261  16.920   8.184  1.00  0.00     0.087 N 
HETATM   30  C10 UNL     1      12.069  15.525   7.813  1.00  0.00     0.310 C 
HETATM   31  C11 UNL     1      12.065  17.741   7.029  1.00  0.00     0.302 C 
HETATM   32  C12 UNL     1      10.966  18.756   7.196  1.00  0.00     0.303 C 
ENDBRANCH  23  26
ENDBRANCH  15  20
ENDBRANCH  10  12
ENDBRANCH   1  10
BRANCH   7  33
HETATM   33  N6  UNL     1      -0.074  23.973   7.489  1.00  0.00    -0.339 N 
ATOM     34  H6  UNL     1      -0.877  24.538   7.767  1.00  0.00     0.167 HD
BRANCH  33  35
HETATM   35  C22 UNL     1       1.136  24.645   7.232  1.00  0.00     0.055 A 
HETATM   36  C23 UNL     1       2.235  24.024   6.719  1.00  0.00     0.031 A 
HETATM   37  C24 UNL     1       3.413  24.725   6.483  1.00  0.00     0.002 A 
HETATM   38  C25 UNL     1       3.488  26.061   6.762  1.00  0.00     0.002 A 
HETATM   39  C26 UNL     1       2.375  26.673   7.277  1.00  0.00     0.026 A 
HETATM   40  C27 UNL     1       1.197  26.032   7.528  1.00  0.00     0.086 A 
BRANCH  40  41
HETATM   41  S1  UNL     1      -0.197  26.842   8.181  1.00  0.00     0.181 S 
HETATM   42  O2  UNL     1      -1.286  26.869   7.129  1.00  0.00    -0.222 OA
HETATM   43  O3  UNL     1      -0.661  26.118   9.412  1.00  0.00    -0.222 OA
BRANCH  41  44
HETATM   44  C28 UNL     1       0.182  28.514   8.648  1.00  0.00     0.105 C 
HETATM   45  C29 UNL     1       0.731  28.536  10.067  1.00  0.00     0.026 C 
HETATM   46  C30 UNL     1      -0.981  29.430   8.484  1.00  0.00     0.026 C 
ENDBRANCH  41  44
ENDBRANCH  40  41
ENDBRANCH  33  35
ENDBRANCH   7  33
TORSDOF 9
ENDMDL
