MODEL 3
REMARK VINA RESULT: -9.349439168      3.650      9.155
REMARK  9 active torsions:
REMARK  status: ('A' for Active; 'I' for Inactive)
REMARK    1  A    between atoms: O1_2  and  C2_3 
REMARK    2  A    between atoms: C4_5  and  N1_6 
REMARK    3  A    between atoms: C7_9  and  N2_10 
REMARK    4  A    between atoms: C17_21  and  N4_22 
REMARK    5  A    between atoms: N4_22  and  C18_24 
REMARK    6  A    between atoms: C21_30  and  N6_31 
REMARK    7  A    between atoms: N6_31  and  C22_33 
REMARK    8  A    between atoms: C27_38  and  S1_39 
REMARK    9  A    between atoms: S1_39  and  C28_42 
ROOT
HETATM    1  C18 UNL     1       0.478  20.474   7.779  1.00  0.00     0.684 A 
HETATM    2  N5  UNL     1      -0.728  20.082   7.389  1.00  0.00    -0.200 N 
ATOM      3  H5  UNL     1      -1.051  19.167   7.704  1.00  0.00     0.183 HD
HETATM    4  C19 UNL     1      -1.550  20.791   6.617  1.00  0.00     0.133 A 
HETATM    5  C20 UNL     1      -1.163  22.022   6.171  1.00  0.00     0.094 A 
HETATM    6 CL1  UNL     1      -2.198  23.015   5.148  1.00  0.00    -0.079 Cl
HETATM    7  C21 UNL     1       0.120  22.481   6.566  1.00  0.00     0.144 A 
HETATM    8  N7  UNL     1       0.856  21.704   7.330  1.00  0.00    -0.175 N 
ATOM      9  H7  UNL     1       1.777  22.047   7.607  1.00  0.00     0.186 HD
ENDROOT
BRANCH   1  10
HETATM   10  N4  UNL     1       1.377  19.739   8.601  1.00  0.00    -0.189 N 
ATOM     11  H4  UNL     1       1.121  19.581   9.576  1.00  0.00     0.184 HD
BRANCH  10  12
HETATM   12  C17 UNL     1       2.593  19.222   8.143  1.00  0.00     0.082 A 
HETATM   13  C2  UNL     1       3.068  18.036   8.724  1.00  0.00     0.097 A 
HETATM   14  C3  UNL     1       4.261  17.454   8.331  1.00  0.00     0.068 A 
HETATM   15  C4  UNL     1       5.058  17.986   7.355  1.00  0.00     0.033 A 
HETATM   16  C15 UNL     1       4.601  19.165   6.765  1.00  0.00     0.032 A 
HETATM   17  C16 UNL     1       3.403  19.741   7.166  1.00  0.00     0.035 A 
BRANCH  13  18
HETATM   18  O1  UNL     1       2.298  17.457   9.717  1.00  0.00    -0.354 OA
HETATM   19  C1  UNL     1       2.807  16.390  10.475  1.00  0.00     0.210 C 
ENDBRANCH  13  18
BRANCH  15  20
HETATM   20  N1  UNL     1       6.266  17.390   6.973  1.00  0.00    -0.381 N 
HETATM   21  C5  UNL     1       6.872  17.650   5.700  1.00  0.00     0.125 C 
HETATM   22  C6  UNL     1       8.171  18.398   6.050  1.00  0.00     0.055 C 
HETATM   23  C7  UNL     1       9.060  17.447   6.769  1.00  0.00     0.226 C 
HETATM   24  C13 UNL     1       8.418  16.347   7.518  1.00  0.00     0.055 C 
HETATM   25  C14 UNL     1       6.965  16.495   7.846  1.00  0.00     0.125 C 
BRANCH  23  26
HETATM   26  N2  UNL     1       9.963  18.145   7.694  1.00  0.00     0.096 N 
HETATM   27  C8  UNL     1      10.244  17.257   8.800  1.00  0.00     0.303 C 
HETATM   28  C9  UNL     1      11.697  17.281   9.204  1.00  0.00     0.302 C 
HETATM   29  N3  UNL     1      12.478  16.859   8.066  1.00  0.00     0.087 N 
HETATM   30  C10 UNL     1      12.275  15.448   7.767  1.00  0.00     0.310 C 
HETATM   31  C11 UNL     1      12.228  17.626   6.885  1.00  0.00     0.302 C 
HETATM   32  C12 UNL     1      11.134  18.646   7.055  1.00  0.00     0.303 C 
ENDBRANCH  23  26
ENDBRANCH  15  20
ENDBRANCH  10  12
ENDBRANCH   1  10
BRANCH   7  33
HETATM   33  N6  UNL     1       0.493  23.745   6.094  1.00  0.00    -0.339 N 
ATOM     34  H6  UNL     1       0.423  23.912   5.090  1.00  0.00     0.167 HD
BRANCH  33  35
HETATM   35  C22 UNL     1       0.957  24.804   6.897  1.00  0.00     0.055 A 
HETATM   36  C23 UNL     1       0.162  25.463   7.787  1.00  0.00     0.031 A 
HETATM   37  C24 UNL     1       0.659  26.507   8.560  1.00  0.00     0.002 A 
HETATM   38  C25 UNL     1       1.966  26.891   8.440  1.00  0.00     0.002 A 
HETATM   39  C26 UNL     1       2.753  26.221   7.542  1.00  0.00     0.026 A 
HETATM   40  C27 UNL     1       2.315  25.191   6.760  1.00  0.00     0.086 A 
BRANCH  40  41
HETATM   41  S1  UNL     1       3.345  24.360   5.631  1.00  0.00     0.181 S 
HETATM   42  O2  UNL     1       3.508  22.923   6.081  1.00  0.00    -0.222 OA
HETATM   43  O3  UNL     1       2.734  24.425   4.261  1.00  0.00    -0.222 OA
BRANCH  41  44
HETATM   44  C28 UNL     1       4.952  25.112   5.541  1.00  0.00     0.105 C 
HETATM   45  C29 UNL     1       4.923  26.264   4.548  1.00  0.00     0.026 C 
HETATM   46  C30 UNL     1       6.026  24.129   5.225  1.00  0.00     0.026 C 
ENDBRANCH  41  44
ENDBRANCH  40  41
ENDBRANCH  33  35
ENDBRANCH   7  33
TORSDOF 9
ENDMDL
