MODEL 2
REMARK VINA RESULT: -10.460101170      0.091      1.213
REMARK  7 active torsions:
REMARK  status: ('A' for Active; 'I' for Inactive)
REMARK    1  A    between atoms: O1_2  and  C2_3 
REMARK    2  A    between atoms: C5_6  and  C6_7 
REMARK    3  A    between atoms: C6_7  and  C7_8 
REMARK    4  A    between atoms: C9_11  and  O3_12 
REMARK    5  A    between atoms: C10_14  and  O4_15 
REMARK    6  A    between atoms: C12_18  and  O5_19 
REMARK    7  A    between atoms: C12_18  and  C13_21 
ROOT
HETATM    1  C7  UNL     1      13.560   2.822  38.706  1.00  0.00     0.108 C 
HETATM    2  C8  UNL     1      13.756   3.383  40.034  1.00  0.00     0.165 C 
HETATM    3  O2  UNL     1      14.288   4.421  40.243  1.00  0.00    -0.294 OA
HETATM    4  C9  UNL     1      13.252   2.602  41.197  1.00  0.00     0.216 C 
HETATM    5  C10 UNL     1      11.727   2.608  41.005  1.00  0.00     0.157 C 
HETATM    6  C11 UNL     1      11.453   1.975  39.688  1.00  0.00     0.084 C 
HETATM    7  C12 UNL     1      12.051   2.683  38.501  1.00  0.00     0.158 C 
ENDROOT
BRANCH   1   8
HETATM    8  C6  UNL     1      14.206   3.563  37.608  1.00  0.00     0.054 C 
BRANCH   8   9
HETATM    9  C5  UNL     1      15.593   3.113  37.372  1.00  0.00    -0.057 A 
HETATM   10  C4  UNL     1      16.540   3.124  38.406  1.00  0.00     0.010 A 
HETATM   11  C3  UNL     1      17.827   2.687  38.253  1.00  0.00     0.037 A 
HETATM   12  C2  UNL     1      18.259   2.202  37.041  1.00  0.00     0.068 A 
HETATM   13  C15 UNL     1      17.349   2.177  36.002  1.00  0.00     0.037 A 
HETATM   14  C14 UNL     1      16.041   2.625  36.168  1.00  0.00     0.010 A 
BRANCH  12  15
HETATM   15  O1  UNL     1      19.574   1.748  36.860  1.00  0.00    -0.356 OA
HETATM   16  C1  UNL     1      19.873   1.127  35.626  1.00  0.00     0.210 C 
ENDBRANCH  12  15
ENDBRANCH   8   9
ENDBRANCH   1   8
BRANCH   7  17
HETATM   17  O5  UNL     1      11.449   3.923  38.390  1.00  0.00    -0.378 OA
ATOM     18  H5  UNL     1      10.503   3.841  38.358  1.00  0.00     0.211 HD
ENDBRANCH   7  17
BRANCH   7  19
HETATM   19  C13 UNL     1      11.732   1.864  37.301  1.00  0.00     0.210 C 
HETATM   20  O6  UNL     1      11.809   2.322  36.131  1.00  0.00    -0.646 OA
HETATM   21  O7  UNL     1      11.325   0.532  37.404  1.00  0.00    -0.646 OA
ENDBRANCH   7  19
BRANCH   4  22
HETATM   22  O3  UNL     1      13.615   3.152  42.406  1.00  0.00    -0.385 OA
ATOM     23  H3  UNL     1      14.046   3.994  42.312  1.00  0.00     0.210 HD
ENDBRANCH   4  22
BRANCH   5  24
HETATM   24  O4  UNL     1      11.072   1.940  42.001  1.00  0.00    -0.392 OA
ATOM     25  H4  UNL     1      11.050   1.001  41.854  1.00  0.00     0.210 HD
ENDBRANCH   5  24
TORSDOF 7
ENDMDL
