MODEL 4
REMARK VINA RESULT: -9.042009544      2.304      7.091
REMARK  7 active torsions:
REMARK  status: ('A' for Active; 'I' for Inactive)
REMARK    1  A    between atoms: O1_2  and  C2_3 
REMARK    2  A    between atoms: C5_6  and  C6_7 
REMARK    3  A    between atoms: C6_7  and  C7_8 
REMARK    4  A    between atoms: C9_11  and  O3_12 
REMARK    5  A    between atoms: C10_14  and  O4_15 
REMARK    6  A    between atoms: C12_18  and  O5_19 
REMARK    7  A    between atoms: C12_18  and  C13_21 
ROOT
HETATM    1  C7  UNL     1      17.894   2.310  37.110  1.00  0.00     0.108 C 
HETATM    2  C8  UNL     1      18.665   2.117  35.892  1.00  0.00     0.165 C 
HETATM    3  O2  UNL     1      18.742   2.919  35.022  1.00  0.00    -0.294 OA
HETATM    4  C9  UNL     1      19.401   0.833  35.734  1.00  0.00     0.216 C 
HETATM    5  C10 UNL     1      20.460   0.883  36.846  1.00  0.00     0.157 C 
HETATM    6  C11 UNL     1      19.730   1.005  38.136  1.00  0.00     0.084 C 
HETATM    7  C12 UNL     1      18.882   2.243  38.276  1.00  0.00     0.158 C 
ENDROOT
BRANCH   1   8
HETATM    8  C6  UNL     1      17.071   3.532  37.148  1.00  0.00     0.054 C 
BRANCH   8   9
HETATM    9  C5  UNL     1      15.626   3.232  37.091  1.00  0.00    -0.057 A 
HETATM   10  C4  UNL     1      15.107   2.368  36.116  1.00  0.00     0.010 A 
HETATM   11  C3  UNL     1      13.785   2.028  36.038  1.00  0.00     0.037 A 
HETATM   12  C2  UNL     1      12.880   2.536  36.941  1.00  0.00     0.068 A 
HETATM   13  C15 UNL     1      13.360   3.390  37.914  1.00  0.00     0.037 A 
HETATM   14  C14 UNL     1      14.709   3.729  37.986  1.00  0.00     0.010 A 
BRANCH  12  15
HETATM   15  O1  UNL     1      11.519   2.202  36.881  1.00  0.00    -0.356 OA
HETATM   16  C1  UNL     1      10.978   1.516  37.993  1.00  0.00     0.210 C 
ENDBRANCH  12  15
ENDBRANCH   8   9
ENDBRANCH   1   8
BRANCH   7  17
HETATM   17  O5  UNL     1      19.722   3.342  38.279  1.00  0.00    -0.378 OA
ATOM     18  H5  UNL     1      19.247   4.133  38.505  1.00  0.00     0.211 HD
ENDBRANCH   7  17
BRANCH   7  19
HETATM   19  C13 UNL     1      18.184   2.144  39.585  1.00  0.00     0.210 C 
HETATM   20  O6  UNL     1      17.440   3.060  40.025  1.00  0.00    -0.646 OA
HETATM   21  O7  UNL     1      18.314   1.024  40.408  1.00  0.00    -0.646 OA
ENDBRANCH   7  19
BRANCH   4  22
HETATM   22  O3  UNL     1      19.975   0.698  34.490  1.00  0.00    -0.385 OA
ATOM     23  H3  UNL     1      20.858   1.047  34.452  1.00  0.00     0.210 HD
ENDBRANCH   4  22
BRANCH   5  24
HETATM   24  O4  UNL     1      21.261  -0.225  36.855  1.00  0.00    -0.392 OA
ATOM     25  H4  UNL     1      21.985  -0.144  37.465  1.00  0.00     0.210 HD
ENDBRANCH   5  24
TORSDOF 7
ENDMDL
