MODEL 3
REMARK VINA RESULT: -9.105139146      2.298      7.187
REMARK  7 active torsions:
REMARK  status: ('A' for Active; 'I' for Inactive)
REMARK    1  A    between atoms: O1_2  and  C2_3 
REMARK    2  A    between atoms: C5_6  and  C6_7 
REMARK    3  A    between atoms: C6_7  and  C7_8 
REMARK    4  A    between atoms: C9_11  and  O3_12 
REMARK    5  A    between atoms: C10_14  and  O4_15 
REMARK    6  A    between atoms: C12_18  and  O5_19 
REMARK    7  A    between atoms: C12_18  and  C13_21 
ROOT
HETATM    1  C7  UNL     1      17.939   2.276  37.099  1.00  0.00     0.108 C 
HETATM    2  C8  UNL     1      18.719   2.098  35.884  1.00  0.00     0.165 C 
HETATM    3  O2  UNL     1      18.777   2.898  35.011  1.00  0.00    -0.294 OA
HETATM    4  C9  UNL     1      19.491   0.834  35.737  1.00  0.00     0.216 C 
HETATM    5  C10 UNL     1      20.544   0.919  36.853  1.00  0.00     0.157 C 
HETATM    6  C11 UNL     1      19.805   1.028  38.139  1.00  0.00     0.084 C 
HETATM    7  C12 UNL     1      18.924   2.242  38.269  1.00  0.00     0.158 C 
ENDROOT
BRANCH   1   8
HETATM    8  C6  UNL     1      17.082   3.475  37.127  1.00  0.00     0.054 C 
BRANCH   8   9
HETATM    9  C5  UNL     1      15.646   3.135  37.069  1.00  0.00    -0.057 A 
HETATM   10  C4  UNL     1      14.739   3.672  37.993  1.00  0.00     0.010 A 
HETATM   11  C3  UNL     1      13.395   3.419  37.964  1.00  0.00     0.037 A 
HETATM   12  C2  UNL     1      12.861   2.601  36.996  1.00  0.00     0.068 A 
HETATM   13  C15 UNL     1      13.727   2.057  36.070  1.00  0.00     0.037 A 
HETATM   14  C14 UNL     1      15.094   2.321  36.108  1.00  0.00     0.010 A 
BRANCH  12  15
HETATM   15  O1  UNL     1      11.486   2.328  36.947  1.00  0.00    -0.356 OA
HETATM   16  C1  UNL     1      10.950   1.550  37.999  1.00  0.00     0.210 C 
ENDBRANCH  12  15
ENDBRANCH   8   9
ENDBRANCH   1   8
BRANCH   7  17
HETATM   17  O5  UNL     1      19.732   3.364  38.269  1.00  0.00    -0.378 OA
ATOM     18  H5  UNL     1      20.580   3.174  37.885  1.00  0.00     0.211 HD
ENDBRANCH   7  17
BRANCH   7  19
HETATM   19  C13 UNL     1      18.223   2.131  39.576  1.00  0.00     0.210 C 
HETATM   20  O6  UNL     1      17.487   3.048  40.028  1.00  0.00    -0.646 OA
HETATM   21  O7  UNL     1      18.342   0.998  40.382  1.00  0.00    -0.646 OA
ENDBRANCH   7  19
BRANCH   4  22
HETATM   22  O3  UNL     1      20.074   0.708  34.495  1.00  0.00    -0.385 OA
ATOM     23  H3  UNL     1      19.504   0.995  33.791  1.00  0.00     0.210 HD
ENDBRANCH   4  22
BRANCH   5  24
HETATM   24  O4  UNL     1      21.375  -0.166  36.871  1.00  0.00    -0.392 OA
ATOM     25  H4  UNL     1      22.250   0.052  37.169  1.00  0.00     0.210 HD
ENDBRANCH   5  24
TORSDOF 7
ENDMDL
