MODEL 5
REMARK VINA RESULT: -8.575685250      2.488      7.227
REMARK  7 active torsions:
REMARK  status: ('A' for Active; 'I' for Inactive)
REMARK    1  A    between atoms: O1_2  and  C2_3 
REMARK    2  A    between atoms: C5_6  and  C6_7 
REMARK    3  A    between atoms: C6_7  and  C7_8 
REMARK    4  A    between atoms: C9_11  and  O3_12 
REMARK    5  A    between atoms: C10_14  and  O4_15 
REMARK    6  A    between atoms: C12_18  and  O5_19 
REMARK    7  A    between atoms: C12_18  and  C13_21 
ROOT
HETATM    1  C7  UNL     1      18.623   1.693  38.355  1.00  0.00     0.108 C 
HETATM    2  C8  UNL     1      19.530   1.811  37.224  1.00  0.00     0.165 C 
HETATM    3  O2  UNL     1      19.742   2.824  36.647  1.00  0.00    -0.294 OA
HETATM    4  C9  UNL     1      20.233   0.580  36.769  1.00  0.00     0.216 C 
HETATM    5  C10 UNL     1      21.149   0.227  37.951  1.00  0.00     0.157 C 
HETATM    6  C11 UNL     1      20.270   0.018  39.133  1.00  0.00     0.084 C 
HETATM    7  C12 UNL     1      19.457   1.218  39.545  1.00  0.00     0.158 C 
ENDROOT
BRANCH   1   8
HETATM    8  C6  UNL     1      17.846   2.905  38.668  1.00  0.00     0.054 C 
BRANCH   8   9
HETATM    9  C5  UNL     1      16.480   2.852  38.108  1.00  0.00    -0.057 A 
HETATM   10  C4  UNL     1      16.264   2.502  36.768  1.00  0.00     0.010 A 
HETATM   11  C3  UNL     1      15.020   2.403  36.207  1.00  0.00     0.037 A 
HETATM   12  C2  UNL     1      13.895   2.649  36.958  1.00  0.00     0.068 A 
HETATM   13  C15 UNL     1      14.074   2.995  38.283  1.00  0.00     0.037 A 
HETATM   14  C14 UNL     1      15.345   3.093  38.845  1.00  0.00     0.010 A 
BRANCH  12  15
HETATM   15  O1  UNL     1      12.610   2.554  36.404  1.00  0.00    -0.356 OA
HETATM   16  C1  UNL     1      11.558   2.205  37.283  1.00  0.00     0.210 C 
ENDBRANCH  12  15
ENDBRANCH   8   9
ENDBRANCH   1   8
BRANCH   7  17
HETATM   17  O5  UNL     1      20.329   2.205  39.966  1.00  0.00    -0.378 OA
ATOM     18  H5  UNL     1      19.882   2.848  40.504  1.00  0.00     0.211 HD
ENDBRANCH   7  17
BRANCH   7  19
HETATM   19  C13 UNL     1      18.601   0.790  40.683  1.00  0.00     0.210 C 
HETATM   20  O6  UNL     1      17.435   1.234  40.855  1.00  0.00    -0.646 OA
HETATM   21  O7  UNL     1      19.042  -0.133  41.633  1.00  0.00    -0.646 OA
ENDBRANCH   7  19
BRANCH   4  22
HETATM   22  O3  UNL     1      20.950   0.774  35.609  1.00  0.00    -0.385 OA
ATOM     23  H3  UNL     1      20.855   0.056  34.994  1.00  0.00     0.210 HD
ENDBRANCH   4  22
BRANCH   5  24
HETATM   24  O4  UNL     1      21.901  -0.889  37.714  1.00  0.00    -0.392 OA
ATOM     25  H4  UNL     1      22.813  -0.682  37.541  1.00  0.00     0.210 HD
ENDBRANCH   5  24
TORSDOF 7
ENDMDL
