MODEL 1
REMARK VINA RESULT: -10.534800434      0.000      0.000
REMARK  7 active torsions:
REMARK  status: ('A' for Active; 'I' for Inactive)
REMARK    1  A    between atoms: O1_2  and  C2_3 
REMARK    2  A    between atoms: C5_6  and  C6_7 
REMARK    3  A    between atoms: C6_7  and  C7_8 
REMARK    4  A    between atoms: C9_11  and  O3_12 
REMARK    5  A    between atoms: C10_14  and  O4_15 
REMARK    6  A    between atoms: C12_18  and  O5_19 
REMARK    7  A    between atoms: C12_18  and  C13_21 
ROOT
HETATM    1  C7  UNL     1      13.562   2.793  38.768  1.00  0.00     0.108 C 
HETATM    2  C8  UNL     1      13.739   3.400  40.078  1.00  0.00     0.165 C 
HETATM    3  O2  UNL     1      14.273   4.443  40.258  1.00  0.00    -0.294 OA
HETATM    4  C9  UNL     1      13.214   2.662  41.259  1.00  0.00     0.216 C 
HETATM    5  C10 UNL     1      11.693   2.667  41.045  1.00  0.00     0.157 C 
HETATM    6  C11 UNL     1      11.436   1.988  39.747  1.00  0.00     0.084 C 
HETATM    7  C12 UNL     1      12.055   2.651  38.544  1.00  0.00     0.158 C 
ENDROOT
BRANCH   1   8
HETATM    8  C6  UNL     1      14.227   3.492  37.654  1.00  0.00     0.054 C 
BRANCH   8   9
HETATM    9  C5  UNL     1      15.617   3.035  37.460  1.00  0.00    -0.057 A 
HETATM   10  C4  UNL     1      16.071   2.622  36.199  1.00  0.00     0.010 A 
HETATM   11  C3  UNL     1      17.357   2.222  35.955  1.00  0.00     0.037 A 
HETATM   12  C2  UNL     1      18.286   2.208  36.969  1.00  0.00     0.068 A 
HETATM   13  C15 UNL     1      17.871   2.610  38.223  1.00  0.00     0.037 A 
HETATM   14  C14 UNL     1      16.560   3.016  38.461  1.00  0.00     0.010 A 
BRANCH  12  15
HETATM   15  O1  UNL     1      19.610   1.802  36.742  1.00  0.00    -0.356 OA
HETATM   16  C1  UNL     1      19.864   1.086  35.550  1.00  0.00     0.210 C 
ENDBRANCH  12  15
ENDBRANCH   8   9
ENDBRANCH   1   8
BRANCH   7  17
HETATM   17  O5  UNL     1      11.460   3.889  38.380  1.00  0.00    -0.378 OA
ATOM     18  H5  UNL     1      11.115   4.213  39.204  1.00  0.00     0.211 HD
ENDBRANCH   7  17
BRANCH   7  19
HETATM   19  C13 UNL     1      11.751   1.792  37.370  1.00  0.00     0.210 C 
HETATM   20  O6  UNL     1      11.426   0.581  37.485  1.00  0.00    -0.646 OA
HETATM   21  O7  UNL     1      11.808   2.280  36.063  1.00  0.00    -0.646 OA
ENDBRANCH   7  19
BRANCH   4  22
HETATM   22  O3  UNL     1      13.562   3.254  42.454  1.00  0.00    -0.385 OA
ATOM     23  H3  UNL     1      12.862   3.782  42.819  1.00  0.00     0.210 HD
ENDBRANCH   4  22
BRANCH   5  24
HETATM   24  O4  UNL     1      11.021   2.036  42.053  1.00  0.00    -0.392 OA
ATOM     25  H4  UNL     1      10.315   2.566  42.406  1.00  0.00     0.210 HD
ENDBRANCH   5  24
TORSDOF 7
ENDMDL
