MODEL 12
REMARK VINA RESULT: -8.790525095      4.340      8.041
REMARK  7 active torsions:
REMARK  status: ('A' for Active; 'I' for Inactive)
REMARK       I    between atoms: C1_2  and  N1_3 
REMARK    1  A    between atoms: C1_2  and  C7_13 
REMARK    2  A    between atoms: N1_3  and  C2_5 
REMARK    3  A    between atoms: N3_15  and  C9_16 
REMARK    4  A    between atoms: C9_16  and  C10_17 
REMARK    5  A    between atoms: C12_21  and  C13_22 
REMARK       I    between atoms: C13_22  and  N4_24 
REMARK    6  A    between atoms: N4_24  and  C14_26 
REMARK    7  A    between atoms: C17_29  and  N5_30 
ROOT
HETATM    1  C7  UNL     1      11.087  65.261   0.977  1.00  0.00     0.121 C 
HETATM    2  C8  UNL     1      11.672  64.513  -0.203  1.00  0.00     0.287 C 
HETATM    3  N3  UNL     1      10.592  63.925  -0.926  1.00  0.00     0.095 N 
HETATM    4  C11 UNL     1       9.397  64.604  -0.497  1.00  0.00     0.287 C 
HETATM    5  C12 UNL     1       9.665  64.750   0.993  1.00  0.00     0.121 C 
ENDROOT
BRANCH   5   6
HETATM    6  C13 UNL     1       8.728  65.739   1.613  1.00  0.00     0.229 C 
HETATM    7  O2  UNL     1       7.617  65.393   2.031  1.00  0.00    -0.273 OA
HETATM    8  N4  UNL     1       9.172  67.068   1.693  1.00  0.00    -0.324 N 
ATOM      9  H4  UNL     1      10.101  67.267   1.324  1.00  0.00     0.169 HD
BRANCH   8  10
HETATM   10  C14 UNL     1       8.463  68.141   2.229  1.00  0.00     0.073 A 
HETATM   11  C15 UNL     1       7.640  68.940   1.489  1.00  0.00     0.035 A 
HETATM   12  C16 UNL     1       6.947  70.011   2.083  1.00  0.00     0.032 A 
HETATM   13  C17 UNL     1       7.059  70.306   3.421  1.00  0.00     0.045 A 
HETATM   14  C23 UNL     1       7.897  69.479   4.137  1.00  0.00     0.074 A 
HETATM   15  C24 UNL     1       8.580  68.437   3.592  1.00  0.00     0.145 A 
HETATM   16  F3  UNL     1       9.399  67.637   4.321  1.00  0.00    -0.204 F 
BRANCH  13  17
HETATM   17  N5  UNL     1       6.355  71.391   4.011  1.00  0.00    -0.290 N 
HETATM   18  C18 UNL     1       6.905  72.626   4.095  1.00  0.00     0.100 A 
HETATM   19  C19 UNL     1       6.150  73.613   4.682  1.00  0.00     0.018 A 
HETATM   20  C20 UNL     1       4.883  73.366   5.168  1.00  0.00     0.007 A 
HETATM   21  C21 UNL     1       4.339  72.101   5.074  1.00  0.00     0.075 A 
HETATM   22  C22 UNL     1       5.115  71.124   4.481  1.00  0.00     0.252 A 
HETATM   23  O3  UNL     1       4.620  69.953   4.390  1.00  0.00    -0.268 OA
ENDBRANCH  13  17
ENDBRANCH   8  10
ENDBRANCH   5   6
BRANCH   1  24
HETATM   24  C1  UNL     1      11.790  65.003   2.236  1.00  0.00     0.230 C 
HETATM   25  O1  UNL     1      11.229  64.290   3.133  1.00  0.00    -0.273 OA
HETATM   26  N1  UNL     1      13.071  65.498   2.532  1.00  0.00    -0.313 N 
ATOM     27  H1  UNL     1      13.564  66.074   1.849  1.00  0.00     0.170 HD
BRANCH  26  28
HETATM   28  C2  UNL     1      13.691  65.195   3.798  1.00  0.00     0.107 A 
HETATM   29  C3  UNL     1      14.743  64.308   3.873  1.00  0.00     0.050 A 
HETATM   30  C4  UNL     1      15.341  64.017   5.099  1.00  0.00     0.029 A 
HETATM   31  C5  UNL     1      14.864  64.630   6.234  1.00  0.00     0.049 A 
HETATM   32 CL1  UNL     1      15.588  64.288   7.792  1.00  0.00    -0.083 Cl
HETATM   33  C6  UNL     1      13.806  65.513   6.125  1.00  0.00     0.113 A 
HETATM   34  N2  UNL     1      13.240  65.781   4.917  1.00  0.00    -0.351 N 
ATOM     35  H2  UNL     1      12.462  66.437   4.862  1.00  0.00     0.166 HD
ENDBRANCH  26  28
ENDBRANCH   1  24
BRANCH   3  36
HETATM   36  C9  UNL     1      10.770  63.885  -2.341  1.00  0.00     0.343 C 
BRANCH  36  37
HETATM   37  C10 UNL     1      10.320  65.116  -3.064  1.00  0.00     0.381 C 
HETATM   38  F1  UNL     1      11.318  66.062  -3.205  1.00  0.00    -0.213 F 
HETATM   39  F2  UNL     1       9.988  64.717  -4.366  1.00  0.00    -0.213 F 
ENDBRANCH  36  37
ENDBRANCH   3  36
TORSDOF 7
ENDMDL
