MODEL 4
REMARK VINA RESULT: -10.584797580      1.226      1.643
REMARK  7 active torsions:
REMARK  status: ('A' for Active; 'I' for Inactive)
REMARK       I    between atoms: C1_2  and  N1_3 
REMARK    1  A    between atoms: C1_2  and  C7_13 
REMARK    2  A    between atoms: N1_3  and  C2_5 
REMARK    3  A    between atoms: N3_15  and  C9_16 
REMARK    4  A    between atoms: C9_16  and  C10_17 
REMARK    5  A    between atoms: C12_21  and  C13_22 
REMARK       I    between atoms: C13_22  and  N4_24 
REMARK    6  A    between atoms: N4_24  and  C14_26 
REMARK    7  A    between atoms: C17_29  and  N5_30 
ROOT
HETATM    1  C7  UNL     1      10.320  66.541   3.817  1.00  0.00     0.121 C 
HETATM    2  C8  UNL     1      10.472  68.036   4.009  1.00  0.00     0.287 C 
HETATM    3  N3  UNL     1      10.075  68.674   2.796  1.00  0.00     0.095 N 
HETATM    4  C11 UNL     1       9.321  67.700   2.051  1.00  0.00     0.287 C 
HETATM    5  C12 UNL     1      10.128  66.440   2.322  1.00  0.00     0.121 C 
ENDROOT
BRANCH   5   6
HETATM    6  C13 UNL     1       9.354  65.215   1.945  1.00  0.00     0.229 C 
HETATM    7  O2  UNL     1       8.992  65.020   0.780  1.00  0.00    -0.273 OA
HETATM    8  N4  UNL     1       9.062  64.308   2.976  1.00  0.00    -0.324 N 
ATOM      9  H4  UNL     1       9.399  64.546   3.909  1.00  0.00     0.169 HD
BRANCH   8  10
HETATM   10  C14 UNL     1       8.357  63.114   2.845  1.00  0.00     0.073 A 
HETATM   11  C15 UNL     1       8.755  62.094   2.030  1.00  0.00     0.035 A 
HETATM   12  C16 UNL     1       8.003  60.907   1.937  1.00  0.00     0.032 A 
HETATM   13  C17 UNL     1       6.845  60.714   2.651  1.00  0.00     0.045 A 
HETATM   14  C23 UNL     1       6.473  61.764   3.464  1.00  0.00     0.074 A 
HETATM   15  C24 UNL     1       7.178  62.922   3.575  1.00  0.00     0.145 A 
HETATM   16  F3  UNL     1       6.790  63.940   4.384  1.00  0.00    -0.204 F 
BRANCH  13  17
HETATM   17  N5  UNL     1       6.092  59.512   2.549  1.00  0.00    -0.290 N 
HETATM   18  C18 UNL     1       4.884  59.487   1.937  1.00  0.00     0.100 A 
HETATM   19  C19 UNL     1       4.230  58.280   1.887  1.00  0.00     0.018 A 
HETATM   20  C20 UNL     1       4.772  57.136   2.433  1.00  0.00     0.007 A 
HETATM   21  C21 UNL     1       6.005  57.181   3.053  1.00  0.00     0.075 A 
HETATM   22  C22 UNL     1       6.646  58.405   3.093  1.00  0.00     0.252 A 
HETATM   23  O3  UNL     1       7.784  58.455   3.664  1.00  0.00    -0.268 OA
ENDBRANCH  13  17
ENDBRANCH   8  10
ENDBRANCH   5   6
BRANCH   1  24
HETATM   24  C1  UNL     1      11.477  65.775   4.287  1.00  0.00     0.230 C 
HETATM   25  O1  UNL     1      11.702  64.617   3.801  1.00  0.00    -0.273 OA
HETATM   26  N1  UNL     1      12.378  66.237   5.261  1.00  0.00    -0.313 N 
ATOM     27  H1  UNL     1      12.244  67.157   5.682  1.00  0.00     0.170 HD
BRANCH  26  28
HETATM   28  C2  UNL     1      13.492  65.417   5.666  1.00  0.00     0.107 A 
HETATM   29  C3  UNL     1      13.786  65.238   7.001  1.00  0.00     0.050 A 
HETATM   30  C4  UNL     1      14.864  64.444   7.391  1.00  0.00     0.029 A 
HETATM   31  C5  UNL     1      15.632  63.842   6.421  1.00  0.00     0.049 A 
HETATM   32 CL1  UNL     1      16.995  62.838   6.873  1.00  0.00    -0.083 Cl
HETATM   33  C6  UNL     1      15.311  64.042   5.092  1.00  0.00     0.113 A 
HETATM   34  N2  UNL     1      14.254  64.821   4.737  1.00  0.00    -0.351 N 
ATOM     35  H2  UNL     1      14.037  64.953   3.749  1.00  0.00     0.166 HD
ENDBRANCH  26  28
ENDBRANCH   1  24
BRANCH   3  36
HETATM   36  C9  UNL     1       9.413  69.926   2.967  1.00  0.00     0.343 C 
BRANCH  36  37
HETATM   37  C10 UNL     1       7.973  69.823   3.364  1.00  0.00     0.381 C 
HETATM   38  F1  UNL     1       7.793  69.625   4.720  1.00  0.00    -0.213 F 
HETATM   39  F2  UNL     1       7.389  71.066   3.081  1.00  0.00    -0.213 F 
ENDBRANCH  36  37
ENDBRANCH   3  36
TORSDOF 7
ENDMDL
