MODEL 13
REMARK VINA RESULT: -8.783658730      4.302      8.048
REMARK  7 active torsions:
REMARK  status: ('A' for Active; 'I' for Inactive)
REMARK       I    between atoms: C1_2  and  N1_3 
REMARK    1  A    between atoms: C1_2  and  C7_13 
REMARK    2  A    between atoms: N1_3  and  C2_5 
REMARK    3  A    between atoms: N3_15  and  C9_16 
REMARK    4  A    between atoms: C9_16  and  C10_17 
REMARK    5  A    between atoms: C12_21  and  C13_22 
REMARK       I    between atoms: C13_22  and  N4_24 
REMARK    6  A    between atoms: N4_24  and  C14_26 
REMARK    7  A    between atoms: C17_29  and  N5_30 
ROOT
HETATM    1  C7  UNL     1      10.991  65.237   0.978  1.00  0.00     0.121 C 
HETATM    2  C8  UNL     1      11.606  64.543  -0.221  1.00  0.00     0.287 C 
HETATM    3  N3  UNL     1      10.551  63.921  -0.953  1.00  0.00     0.095 N 
HETATM    4  C11 UNL     1       9.327  64.534  -0.505  1.00  0.00     0.287 C 
HETATM    5  C12 UNL     1       9.595  64.660   0.987  1.00  0.00     0.121 C 
ENDROOT
BRANCH   5   6
HETATM    6  C13 UNL     1       8.615  65.591   1.632  1.00  0.00     0.229 C 
HETATM    7  O2  UNL     1       7.532  65.181   2.065  1.00  0.00    -0.273 OA
HETATM    8  N4  UNL     1       8.987  66.941   1.718  1.00  0.00    -0.324 N 
ATOM      9  H4  UNL     1       9.898  67.194   1.336  1.00  0.00     0.169 HD
BRANCH   8  10
HETATM   10  C14 UNL     1       8.229  67.968   2.275  1.00  0.00     0.073 A 
HETATM   11  C15 UNL     1       7.342  68.720   1.560  1.00  0.00     0.035 A 
HETATM   12  C16 UNL     1       6.602  69.746   2.175  1.00  0.00     0.032 A 
HETATM   13  C17 UNL     1       6.730  70.044   3.511  1.00  0.00     0.045 A 
HETATM   14  C23 UNL     1       7.633  69.266   4.203  1.00  0.00     0.074 A 
HETATM   15  C24 UNL     1       8.363  68.268   3.636  1.00  0.00     0.145 A 
HETATM   16  F3  UNL     1       9.246  67.516   4.342  1.00  0.00    -0.204 F 
BRANCH  13  17
HETATM   17  N5  UNL     1       5.978  71.084   4.123  1.00  0.00    -0.290 N 
HETATM   18  C18 UNL     1       4.778  70.838   4.703  1.00  0.00     0.100 A 
HETATM   19  C19 UNL     1       4.124  71.905   5.270  1.00  0.00     0.018 A 
HETATM   20  C20 UNL     1       4.658  73.177   5.254  1.00  0.00     0.007 A 
HETATM   21  C21 UNL     1       5.882  73.408   4.658  1.00  0.00     0.075 A 
HETATM   22  C22 UNL     1       6.523  72.321   4.094  1.00  0.00     0.252 A 
HETATM   23  O3  UNL     1       7.653  72.526   3.541  1.00  0.00    -0.268 OA
ENDBRANCH  13  17
ENDBRANCH   8  10
ENDBRANCH   5   6
BRANCH   1  24
HETATM   24  C1  UNL     1      11.711  64.985   2.228  1.00  0.00     0.230 C 
HETATM   25  O1  UNL     1      11.173  64.255   3.125  1.00  0.00    -0.273 OA
HETATM   26  N1  UNL     1      12.984  65.504   2.516  1.00  0.00    -0.313 N 
ATOM     27  H1  UNL     1      13.459  66.094   1.833  1.00  0.00     0.170 HD
BRANCH  26  28
HETATM   28  C2  UNL     1      13.622  65.205   3.774  1.00  0.00     0.107 A 
HETATM   29  C3  UNL     1      14.690  64.335   3.834  1.00  0.00     0.050 A 
HETATM   30  C4  UNL     1      15.305  64.048   5.052  1.00  0.00     0.029 A 
HETATM   31  C5  UNL     1      14.829  64.647   6.195  1.00  0.00     0.049 A 
HETATM   32 CL1  UNL     1      15.575  64.310   7.744  1.00  0.00    -0.083 Cl
HETATM   33  C6  UNL     1      13.756  65.514   6.101  1.00  0.00     0.113 A 
HETATM   34  N2  UNL     1      13.173  65.778   4.901  1.00  0.00    -0.351 N 
ATOM     35  H2  UNL     1      12.383  66.421   4.857  1.00  0.00     0.166 HD
ENDBRANCH  26  28
ENDBRANCH   1  24
BRANCH   3  36
HETATM   36  C9  UNL     1      10.724  63.920  -2.368  1.00  0.00     0.343 C 
BRANCH  36  37
HETATM   37  C10 UNL     1      10.327  65.192  -3.049  1.00  0.00     0.381 C 
HETATM   38  F1  UNL     1      11.373  66.083  -3.197  1.00  0.00    -0.213 F 
HETATM   39  F2  UNL     1       9.937  64.846  -4.351  1.00  0.00    -0.213 F 
ENDBRANCH  36  37
ENDBRANCH   3  36
TORSDOF 7
ENDMDL
