MODEL 2
REMARK VINA RESULT: -10.918913927      0.768      1.102
REMARK  7 active torsions:
REMARK  status: ('A' for Active; 'I' for Inactive)
REMARK       I    between atoms: C1_2  and  N1_3 
REMARK    1  A    between atoms: C1_2  and  C7_13 
REMARK    2  A    between atoms: N1_3  and  C2_5 
REMARK    3  A    between atoms: N3_15  and  C9_16 
REMARK    4  A    between atoms: C9_16  and  C10_17 
REMARK    5  A    between atoms: C12_21  and  C13_22 
REMARK       I    between atoms: C13_22  and  N4_24 
REMARK    6  A    between atoms: N4_24  and  C14_26 
REMARK    7  A    between atoms: C17_29  and  N5_30 
ROOT
HETATM    1  C7  UNL     1      10.411  66.773   4.005  1.00  0.00     0.121 C 
HETATM    2  C8  UNL     1      10.809  68.215   3.768  1.00  0.00     0.287 C 
HETATM    3  N3  UNL     1      10.228  68.631   2.534  1.00  0.00     0.095 N 
HETATM    4  C11 UNL     1       9.192  67.679   2.230  1.00  0.00     0.287 C 
HETATM    5  C12 UNL     1       9.857  66.380   2.655  1.00  0.00     0.121 C 
ENDROOT
BRANCH   5   6
HETATM    6  C13 UNL     1       8.853  65.274   2.770  1.00  0.00     0.229 C 
HETATM    7  O2  UNL     1       7.673  65.509   3.051  1.00  0.00    -0.273 OA
HETATM    8  N4  UNL     1       9.319  63.970   2.543  1.00  0.00    -0.324 N 
ATOM      9  H4  UNL     1      10.308  63.866   2.316  1.00  0.00     0.169 HD
BRANCH   8  10
HETATM   10  C14 UNL     1       8.558  62.804   2.599  1.00  0.00     0.073 A 
HETATM   11  C15 UNL     1       8.035  62.305   3.757  1.00  0.00     0.035 A 
HETATM   12  C16 UNL     1       7.273  61.122   3.756  1.00  0.00     0.032 A 
HETATM   13  C17 UNL     1       7.017  60.415   2.605  1.00  0.00     0.045 A 
HETATM   14  C23 UNL     1       7.560  60.948   1.455  1.00  0.00     0.074 A 
HETATM   15  C24 UNL     1       8.301  62.088   1.425  1.00  0.00     0.145 A 
HETATM   16  F3  UNL     1       8.824  62.591   0.278  1.00  0.00    -0.204 F 
BRANCH  13  17
HETATM   17  N5  UNL     1       6.247  59.220   2.614  1.00  0.00    -0.290 N 
HETATM   18  C18 UNL     1       4.968  59.204   2.167  1.00  0.00     0.100 A 
HETATM   19  C19 UNL     1       4.301  58.003   2.214  1.00  0.00     0.018 A 
HETATM   20  C20 UNL     1       4.901  56.857   2.694  1.00  0.00     0.007 A 
HETATM   21  C21 UNL     1       6.205  56.894   3.145  1.00  0.00     0.075 A 
HETATM   22  C22 UNL     1       6.857  58.111   3.089  1.00  0.00     0.252 A 
HETATM   23  O3  UNL     1       8.061  58.154   3.504  1.00  0.00    -0.268 OA
ENDBRANCH  13  17
ENDBRANCH   8  10
ENDBRANCH   5   6
BRANCH   1  24
HETATM   24  C1  UNL     1      11.528  65.922   4.422  1.00  0.00     0.230 C 
HETATM   25  O1  UNL     1      11.624  64.738   3.957  1.00  0.00    -0.273 OA
HETATM   26  N1  UNL     1      12.528  66.329   5.322  1.00  0.00    -0.313 N 
ATOM     27  H1  UNL     1      12.499  67.266   5.724  1.00  0.00     0.170 HD
BRANCH  26  28
HETATM   28  C2  UNL     1      13.594  65.426   5.679  1.00  0.00     0.107 A 
HETATM   29  C3  UNL     1      13.899  65.185   7.002  1.00  0.00     0.050 A 
HETATM   30  C4  UNL     1      14.931  64.312   7.345  1.00  0.00     0.029 A 
HETATM   31  C5  UNL     1      15.641  63.695   6.341  1.00  0.00     0.049 A 
HETATM   32 CL1  UNL     1      16.945  62.593   6.733  1.00  0.00    -0.083 Cl
HETATM   33  C6  UNL     1      15.311  63.959   5.025  1.00  0.00     0.113 A 
HETATM   34  N2  UNL     1      14.299  64.815   4.716  1.00  0.00    -0.351 N 
ATOM     35  H2  UNL     1      14.074  64.993   3.738  1.00  0.00     0.166 HD
ENDBRANCH  26  28
ENDBRANCH   1  24
BRANCH   3  36
HETATM   36  C9  UNL     1       9.805  69.993   2.500  1.00  0.00     0.343 C 
BRANCH  36  37
HETATM   37  C10 UNL     1       8.415  70.229   3.001  1.00  0.00     0.381 C 
HETATM   38  F1  UNL     1       8.284  70.030   4.363  1.00  0.00    -0.213 F 
HETATM   39  F2  UNL     1       8.137  71.586   2.788  1.00  0.00    -0.213 F 
ENDBRANCH  36  37
ENDBRANCH   3  36
TORSDOF 7
ENDMDL
