MODEL 15
REMARK VINA RESULT: -8.576064431      4.069      5.767
REMARK  7 active torsions:
REMARK  status: ('A' for Active; 'I' for Inactive)
REMARK       I    between atoms: C1_2  and  N1_3 
REMARK    1  A    between atoms: C1_2  and  C7_13 
REMARK    2  A    between atoms: N1_3  and  C2_5 
REMARK    3  A    between atoms: N3_15  and  C9_16 
REMARK    4  A    between atoms: C9_16  and  C10_17 
REMARK    5  A    between atoms: C12_21  and  C13_22 
REMARK       I    between atoms: C13_22  and  N4_24 
REMARK    6  A    between atoms: N4_24  and  C14_26 
REMARK    7  A    between atoms: C17_29  and  N5_30 
ROOT
HETATM    1  C7  UNL     1      10.790  65.081   0.967  1.00  0.00     0.121 C 
HETATM    2  C8  UNL     1      11.615  64.898  -0.290  1.00  0.00     0.287 C 
HETATM    3  N3  UNL     1      10.856  64.100  -1.197  1.00  0.00     0.095 N 
HETATM    4  C11 UNL     1       9.493  64.141  -0.735  1.00  0.00     0.287 C 
HETATM    5  C12 UNL     1       9.696  64.058   0.771  1.00  0.00     0.121 C 
ENDROOT
BRANCH   5   6
HETATM    6  C13 UNL     1       8.445  64.437   1.502  1.00  0.00     0.229 C 
HETATM    7  O2  UNL     1       7.671  65.286   1.048  1.00  0.00    -0.273 OA
HETATM    8  N4  UNL     1       8.201  63.784   2.720  1.00  0.00    -0.324 N 
ATOM      9  H4  UNL     1       8.891  63.096   3.021  1.00  0.00     0.169 HD
BRANCH   8  10
HETATM   10  C14 UNL     1       7.105  63.985   3.555  1.00  0.00     0.073 A 
HETATM   11  C15 UNL     1       6.285  65.074   3.468  1.00  0.00     0.035 A 
HETATM   12  C16 UNL     1       5.191  65.227   4.339  1.00  0.00     0.032 A 
HETATM   13  C17 UNL     1       4.891  64.302   5.311  1.00  0.00     0.045 A 
HETATM   14  C23 UNL     1       5.738  63.216   5.370  1.00  0.00     0.074 A 
HETATM   15  C24 UNL     1       6.803  63.041   4.543  1.00  0.00     0.145 A 
HETATM   16  F3  UNL     1       7.622  61.961   4.623  1.00  0.00    -0.204 F 
BRANCH  13  17
HETATM   17  N5  UNL     1       3.783  64.466   6.186  1.00  0.00    -0.290 N 
HETATM   18  C18 UNL     1       2.673  63.697   6.071  1.00  0.00     0.100 A 
HETATM   19  C19 UNL     1       1.653  63.927   6.962  1.00  0.00     0.018 A 
HETATM   20  C20 UNL     1       1.745  64.898   7.937  1.00  0.00     0.007 A 
HETATM   21  C21 UNL     1       2.884  65.672   8.039  1.00  0.00     0.075 A 
HETATM   22  C22 UNL     1       3.898  65.424   7.134  1.00  0.00     0.252 A 
HETATM   23  O3  UNL     1       4.952  66.134   7.221  1.00  0.00    -0.268 OA
ENDBRANCH  13  17
ENDBRANCH   8  10
ENDBRANCH   5   6
BRANCH   1  24
HETATM   24  C1  UNL     1      11.550  64.859   2.200  1.00  0.00     0.230 C 
HETATM   25  O1  UNL     1      11.099  64.053   3.079  1.00  0.00    -0.273 OA
HETATM   26  N1  UNL     1      12.772  65.488   2.488  1.00  0.00    -0.313 N 
ATOM     27  H1  UNL     1      13.178  66.143   1.818  1.00  0.00     0.170 HD
BRANCH  26  28
HETATM   28  C2  UNL     1      13.456  65.213   3.727  1.00  0.00     0.107 A 
HETATM   29  C3  UNL     1      14.561  64.390   3.754  1.00  0.00     0.050 A 
HETATM   30  C4  UNL     1      15.221  64.124   4.954  1.00  0.00     0.029 A 
HETATM   31  C5  UNL     1      14.750  64.697   6.112  1.00  0.00     0.049 A 
HETATM   32 CL1  UNL     1      15.551  64.387   7.639  1.00  0.00    -0.083 Cl
HETATM   33  C6  UNL     1      13.638  65.517   6.051  1.00  0.00     0.113 A 
HETATM   34  N2  UNL     1      13.013  65.761   4.868  1.00  0.00    -0.351 N 
ATOM     35  H2  UNL     1      12.195  66.370   4.849  1.00  0.00     0.166 HD
ENDBRANCH  26  28
ENDBRANCH   1  24
BRANCH   3  36
HETATM   36  C9  UNL     1      11.021  64.438  -2.573  1.00  0.00     0.343 C 
BRANCH  36  37
HETATM   37  C10 UNL     1       9.982  63.867  -3.487  1.00  0.00     0.381 C 
HETATM   38  F1  UNL     1       9.405  64.812  -4.315  1.00  0.00    -0.213 F 
HETATM   39  F2  UNL     1      10.644  62.971  -4.338  1.00  0.00    -0.213 F 
ENDBRANCH  36  37
ENDBRANCH   3  36
TORSDOF 7
ENDMDL
