MODEL 1
REMARK VINA RESULT: -11.095432915      0.000      0.000
REMARK  7 active torsions:
REMARK  status: ('A' for Active; 'I' for Inactive)
REMARK       I    between atoms: C1_2  and  N1_3 
REMARK    1  A    between atoms: C1_2  and  C7_13 
REMARK    2  A    between atoms: N1_3  and  C2_5 
REMARK    3  A    between atoms: N3_15  and  C9_16 
REMARK    4  A    between atoms: C9_16  and  C10_17 
REMARK    5  A    between atoms: C12_21  and  C13_22 
REMARK       I    between atoms: C13_22  and  N4_24 
REMARK    6  A    between atoms: N4_24  and  C14_26 
REMARK    7  A    between atoms: C17_29  and  N5_30 
ROOT
HETATM    1  C7  UNL     1      10.388  66.703   3.986  1.00  0.00     0.121 C 
HETATM    2  C8  UNL     1      10.724  68.169   3.800  1.00  0.00     0.287 C 
HETATM    3  N3  UNL     1      10.157  68.592   2.561  1.00  0.00     0.095 N 
HETATM    4  C11 UNL     1       9.175  67.602   2.202  1.00  0.00     0.287 C 
HETATM    5  C12 UNL     1       9.889  66.323   2.611  1.00  0.00     0.121 C 
ENDROOT
BRANCH   5   6
HETATM    6  C13 UNL     1       8.936  65.170   2.667  1.00  0.00     0.229 C 
HETATM    7  O2  UNL     1       7.715  65.344   2.576  1.00  0.00    -0.273 OA
HETATM    8  N4  UNL     1       9.495  63.893   2.828  1.00  0.00    -0.324 N 
ATOM      9  H4  UNL     1      10.511  63.840   2.895  1.00  0.00     0.169 HD
BRANCH   8  10
HETATM   10  C14 UNL     1       8.793  62.692   2.905  1.00  0.00     0.073 A 
HETATM   11  C15 UNL     1       8.015  62.346   3.972  1.00  0.00     0.035 A 
HETATM   12  C16 UNL     1       7.327  61.118   3.996  1.00  0.00     0.032 A 
HETATM   13  C17 UNL     1       7.400  60.215   2.963  1.00  0.00     0.045 A 
HETATM   14  C23 UNL     1       8.195  60.597   1.903  1.00  0.00     0.074 A 
HETATM   15  C24 UNL     1       8.871  61.776   1.851  1.00  0.00     0.145 A 
HETATM   16  F3  UNL     1       9.647  62.128   0.793  1.00  0.00    -0.204 F 
BRANCH  13  17
HETATM   17  N5  UNL     1       6.702  58.976   2.998  1.00  0.00    -0.290 N 
HETATM   18  C18 UNL     1       7.236  57.883   3.594  1.00  0.00     0.100 A 
HETATM   19  C19 UNL     1       6.488  56.730   3.578  1.00  0.00     0.018 A 
HETATM   20  C20 UNL     1       5.245  56.679   2.984  1.00  0.00     0.007 A 
HETATM   21  C21 UNL     1       4.717  57.804   2.381  1.00  0.00     0.075 A 
HETATM   22  C22 UNL     1       5.486  58.952   2.408  1.00  0.00     0.252 A 
HETATM   23  O3  UNL     1       5.006  59.995   1.854  1.00  0.00    -0.268 OA
ENDBRANCH  13  17
ENDBRANCH   8  10
ENDBRANCH   5   6
BRANCH   1  24
HETATM   24  C1  UNL     1      11.532  65.894   4.411  1.00  0.00     0.230 C 
HETATM   25  O1  UNL     1      11.709  64.739   3.899  1.00  0.00    -0.273 OA
HETATM   26  N1  UNL     1      12.472  66.310   5.368  1.00  0.00    -0.313 N 
ATOM     27  H1  UNL     1      12.377  67.226   5.809  1.00  0.00     0.170 HD
BRANCH  26  28
HETATM   28  C2  UNL     1      13.571  65.450   5.729  1.00  0.00     0.107 A 
HETATM   29  C3  UNL     1      13.868  65.204   7.053  1.00  0.00     0.050 A 
HETATM   30  C4  UNL     1      14.931  64.371   7.400  1.00  0.00     0.029 A 
HETATM   31  C5  UNL     1      15.681  63.798   6.399  1.00  0.00     0.049 A 
HETATM   32 CL1  UNL     1      17.025  62.747   6.795  1.00  0.00    -0.083 Cl
HETATM   33  C6  UNL     1      15.358  64.066   5.082  1.00  0.00     0.113 A 
HETATM   34  N2  UNL     1      14.315  64.881   4.769  1.00  0.00    -0.351 N 
ATOM     35  H2  UNL     1      14.096  65.063   3.790  1.00  0.00     0.166 HD
ENDBRANCH  26  28
ENDBRANCH   1  24
BRANCH   3  36
HETATM   36  C9  UNL     1       9.672  69.933   2.552  1.00  0.00     0.343 C 
BRANCH  36  37
HETATM   37  C10 UNL     1       8.285  70.101   3.090  1.00  0.00     0.381 C 
HETATM   38  F1  UNL     1       8.208  69.938   4.460  1.00  0.00    -0.213 F 
HETATM   39  F2  UNL     1       7.917  71.431   2.844  1.00  0.00    -0.213 F 
ENDBRANCH  36  37
ENDBRANCH   3  36
TORSDOF 7
ENDMDL
