MODEL 3
REMARK VINA RESULT: -10.738693857      1.134      1.468
REMARK  7 active torsions:
REMARK  status: ('A' for Active; 'I' for Inactive)
REMARK       I    between atoms: C1_2  and  N1_3 
REMARK    1  A    between atoms: C1_2  and  C7_13 
REMARK    2  A    between atoms: N1_3  and  C2_5 
REMARK    3  A    between atoms: N3_15  and  C9_16 
REMARK    4  A    between atoms: C9_16  and  C10_17 
REMARK    5  A    between atoms: C12_21  and  C13_22 
REMARK       I    between atoms: C13_22  and  N4_24 
REMARK    6  A    between atoms: N4_24  and  C14_26 
REMARK    7  A    between atoms: C17_29  and  N5_30 
ROOT
HETATM    1  C7  UNL     1      10.298  66.354   3.729  1.00  0.00     0.121 C 
HETATM    2  C8  UNL     1      10.368  67.863   3.834  1.00  0.00     0.287 C 
HETATM    3  N3  UNL     1       9.931  68.408   2.590  1.00  0.00     0.095 N 
HETATM    4  C11 UNL     1       9.229  67.353   1.907  1.00  0.00     0.287 C 
HETATM    5  C12 UNL     1      10.105  66.156   2.243  1.00  0.00     0.121 C 
ENDROOT
BRANCH   5   6
HETATM    6  C13 UNL     1       9.397  64.871   1.943  1.00  0.00     0.229 C 
HETATM    7  O2  UNL     1       9.012  64.605   0.799  1.00  0.00    -0.273 OA
HETATM    8  N4  UNL     1       9.195  63.993   3.019  1.00  0.00    -0.324 N 
ATOM      9  H4  UNL     1       9.545  64.291   3.929  1.00  0.00     0.169 HD
BRANCH   8  10
HETATM   10  C14 UNL     1       8.562  62.754   2.960  1.00  0.00     0.073 A 
HETATM   11  C15 UNL     1       8.932  61.763   2.098  1.00  0.00     0.035 A 
HETATM   12  C16 UNL     1       8.257  60.528   2.082  1.00  0.00     0.032 A 
HETATM   13  C17 UNL     1       7.204  60.257   2.922  1.00  0.00     0.045 A 
HETATM   14  C23 UNL     1       6.857  61.279   3.780  1.00  0.00     0.074 A 
HETATM   15  C24 UNL     1       7.490  62.482   3.818  1.00  0.00     0.145 A 
HETATM   16  F3  UNL     1       7.128  63.472   4.673  1.00  0.00    -0.204 F 
BRANCH  13  17
HETATM   17  N5  UNL     1       6.527  59.006   2.898  1.00  0.00    -0.290 N 
HETATM   18  C18 UNL     1       7.005  57.934   3.575  1.00  0.00     0.100 A 
HETATM   19  C19 UNL     1       6.283  56.767   3.493  1.00  0.00     0.018 A 
HETATM   20  C20 UNL     1       5.121  56.681   2.756  1.00  0.00     0.007 A 
HETATM   21  C21 UNL     1       4.650  57.785   2.073  1.00  0.00     0.075 A 
HETATM   22  C22 UNL     1       5.390  58.948   2.168  1.00  0.00     0.252 A 
HETATM   23  O3  UNL     1       4.963  59.971   1.540  1.00  0.00    -0.268 OA
ENDBRANCH  13  17
ENDBRANCH   8  10
ENDBRANCH   5   6
BRANCH   1  24
HETATM   24  C1  UNL     1      11.497  65.679   4.233  1.00  0.00     0.230 C 
HETATM   25  O1  UNL     1      11.840  64.555   3.738  1.00  0.00    -0.273 OA
HETATM   26  N1  UNL     1      12.316  66.198   5.250  1.00  0.00    -0.313 N 
ATOM     27  H1  UNL     1      12.087  67.094   5.680  1.00  0.00     0.170 HD
BRANCH  26  28
HETATM   28  C2  UNL     1      13.480  65.468   5.687  1.00  0.00     0.107 A 
HETATM   29  C3  UNL     1      13.691  65.215   7.025  1.00  0.00     0.050 A 
HETATM   30  C4  UNL     1      14.817  64.508   7.446  1.00  0.00     0.029 A 
HETATM   31  C5  UNL     1      15.717  64.068   6.503  1.00  0.00     0.049 A 
HETATM   32 CL1  UNL     1      17.144  63.178   6.993  1.00  0.00    -0.083 Cl
HETATM   33  C6  UNL     1      15.476  64.339   5.169  1.00  0.00     0.113 A 
HETATM   34  N2  UNL     1      14.369  65.030   4.784  1.00  0.00    -0.351 N 
ATOM     35  H2  UNL     1      14.214  65.217   3.794  1.00  0.00     0.166 HD
ENDBRANCH  26  28
ENDBRANCH   1  24
BRANCH   3  36
HETATM   36  C9  UNL     1       9.202  69.629   2.694  1.00  0.00     0.343 C 
BRANCH  36  37
HETATM   37  C10 UNL     1       9.924  70.836   2.181  1.00  0.00     0.381 C 
HETATM   38  F1  UNL     1       9.174  71.995   2.256  1.00  0.00    -0.213 F 
HETATM   39  F2  UNL     1      11.021  71.039   3.030  1.00  0.00    -0.213 F 
ENDBRANCH  36  37
ENDBRANCH   3  36
TORSDOF 7
ENDMDL
