MODEL 5
REMARK VINA RESULT: -9.764897500      1.215      1.686
REMARK  7 active torsions:
REMARK  status: ('A' for Active; 'I' for Inactive)
REMARK       I    between atoms: C1_2  and  N1_3 
REMARK    1  A    between atoms: C1_2  and  C7_13 
REMARK    2  A    between atoms: N1_3  and  C2_5 
REMARK    3  A    between atoms: N3_15  and  C9_16 
REMARK    4  A    between atoms: C9_16  and  C10_17 
REMARK    5  A    between atoms: C12_21  and  C13_22 
REMARK       I    between atoms: C13_22  and  N4_24 
REMARK    6  A    between atoms: N4_24  and  C14_26 
REMARK    7  A    between atoms: C17_29  and  N5_30 
ROOT
HETATM    1  C7  UNL     1       9.388  67.766   3.457  1.00  0.00     0.121 C 
HETATM    2  C8  UNL     1       9.400  69.211   3.001  1.00  0.00     0.287 C 
HETATM    3  N3  UNL     1       8.644  69.294   1.794  1.00  0.00     0.095 N 
HETATM    4  C11 UNL     1       7.854  68.092   1.724  1.00  0.00     0.287 C 
HETATM    5  C12 UNL     1       8.849  67.061   2.233  1.00  0.00     0.121 C 
ENDROOT
BRANCH   5   6
HETATM    6  C13 UNL     1       8.159  65.781   2.592  1.00  0.00     0.229 C 
HETATM    7  O2  UNL     1       7.107  65.780   3.239  1.00  0.00    -0.273 OA
HETATM    8  N4  UNL     1       8.766  64.592   2.158  1.00  0.00    -0.324 N 
ATOM      9  H4  UNL     1       9.633  64.683   1.629  1.00  0.00     0.169 HD
BRANCH   8  10
HETATM   10  C14 UNL     1       8.295  63.300   2.382  1.00  0.00     0.073 A 
HETATM   11  C15 UNL     1       7.593  62.940   3.496  1.00  0.00     0.035 A 
HETATM   12  C16 UNL     1       7.141  61.619   3.670  1.00  0.00     0.032 A 
HETATM   13  C17 UNL     1       7.379  60.633   2.742  1.00  0.00     0.045 A 
HETATM   14  C23 UNL     1       8.090  61.032   1.630  1.00  0.00     0.074 A 
HETATM   15  C24 UNL     1       8.540  62.300   1.434  1.00  0.00     0.145 A 
HETATM   16  F3  UNL     1       9.238  62.666   0.328  1.00  0.00    -0.204 F 
BRANCH  13  17
HETATM   17  N5  UNL     1       6.918  59.301   2.928  1.00  0.00    -0.290 N 
HETATM   18  C18 UNL     1       7.641  58.398   3.633  1.00  0.00     0.100 A 
HETATM   19  C19 UNL     1       7.117  57.134   3.760  1.00  0.00     0.018 A 
HETATM   20  C20 UNL     1       5.905  56.790   3.197  1.00  0.00     0.007 A 
HETATM   21  C21 UNL     1       5.183  57.724   2.482  1.00  0.00     0.075 A 
HETATM   22  C22 UNL     1       5.728  58.989   2.366  1.00  0.00     0.252 A 
HETATM   23  O3  UNL     1       5.068  59.857   1.707  1.00  0.00    -0.268 OA
ENDBRANCH  13  17
ENDBRANCH   8  10
ENDBRANCH   5   6
BRANCH   1  24
HETATM   24  C1  UNL     1      10.709  67.270   3.853  1.00  0.00     0.230 C 
HETATM   25  O1  UNL     1      11.715  68.052   3.800  1.00  0.00    -0.273 OA
HETATM   26  N1  UNL     1      10.950  65.960   4.298  1.00  0.00    -0.313 N 
ATOM     27  H1  UNL     1      10.180  65.293   4.359  1.00  0.00     0.170 HD
BRANCH  26  28
HETATM   28  C2  UNL     1      12.283  65.553   4.668  1.00  0.00     0.107 A 
HETATM   29  C3  UNL     1      13.110  64.933   3.756  1.00  0.00     0.050 A 
HETATM   30  C4  UNL     1      14.398  64.541   4.117  1.00  0.00     0.029 A 
HETATM   31  C5  UNL     1      14.832  64.781   5.400  1.00  0.00     0.049 A 
HETATM   32 CL1  UNL     1      16.443  64.302   5.891  1.00  0.00    -0.083 Cl
HETATM   33  C6  UNL     1      13.977  65.404   6.291  1.00  0.00     0.113 A 
HETATM   34  N2  UNL     1      12.725  65.777   5.914  1.00  0.00    -0.351 N 
ATOM     35  H2  UNL     1      12.113  66.235   6.590  1.00  0.00     0.166 HD
ENDBRANCH  26  28
ENDBRANCH   1  24
BRANCH   3  36
HETATM   36  C9  UNL     1       7.898  70.499   1.638  1.00  0.00     0.343 C 
BRANCH  36  37
HETATM   37  C10 UNL     1       8.107  71.511   2.721  1.00  0.00     0.381 C 
HETATM   38  F1  UNL     1       8.104  72.814   2.260  1.00  0.00    -0.213 F 
HETATM   39  F2  UNL     1       7.005  71.410   3.582  1.00  0.00    -0.213 F 
ENDBRANCH  36  37
ENDBRANCH   3  36
TORSDOF 7
ENDMDL
