MODEL 7
REMARK VINA RESULT: -8.630495352      3.972      5.597
REMARK  7 active torsions:
REMARK  status: ('A' for Active; 'I' for Inactive)
REMARK    1  A    between atoms: N1_1  and  S1_4 
REMARK    2  A    between atoms: S1_4  and  N2_7 
REMARK    3  A    between atoms: C2_9  and  C3_10 
REMARK       I    between atoms: C3_10  and  N3_12 
REMARK    4  A    between atoms: N3_12  and  C4_14 
REMARK    5  A    between atoms: C10_21  and  C11_22 
REMARK       I    between atoms: C11_22  and  N4_24 
REMARK    6  A    between atoms: N4_24  and  C12_26 
REMARK    7  A    between atoms: C15_29  and  N5_30 
ROOT
HETATM    1  N2  UNL     1      10.204  65.218  -0.147  1.00  0.00    -0.192 NA
HETATM    2  C1  UNL     1      11.341  65.447   0.686  1.00  0.00     0.123 C 
HETATM    3  C2  UNL     1      10.814  65.638   2.119  1.00  0.00     0.106 C 
HETATM    4  C10 UNL     1       9.555  64.881   2.029  1.00  0.00     0.106 C 
HETATM    5  C23 UNL     1       9.004  65.320   0.696  1.00  0.00     0.123 C 
ENDROOT
BRANCH   4   6
HETATM    6  C11 UNL     1       8.535  65.150   3.064  1.00  0.00     0.228 C 
HETATM    7  O4  UNL     1       8.541  66.139   3.802  1.00  0.00    -0.273 OA
HETATM    8  N4  UNL     1       7.495  64.191   3.191  1.00  0.00    -0.324 N 
ATOM      9  H4  UNL     1       7.540  63.396   2.554  1.00  0.00     0.169 HD
BRANCH   8  10
HETATM   10  C12 UNL     1       6.421  64.202   4.080  1.00  0.00     0.073 A 
HETATM   11  C13 UNL     1       6.323  63.392   5.180  1.00  0.00     0.035 A 
HETATM   12  C14 UNL     1       5.241  63.412   6.064  1.00  0.00     0.032 A 
HETATM   13  C15 UNL     1       4.231  64.299   5.799  1.00  0.00     0.045 A 
HETATM   14  C21 UNL     1       4.300  65.127   4.701  1.00  0.00     0.074 A 
HETATM   15  C22 UNL     1       5.371  65.096   3.839  1.00  0.00     0.145 A 
HETATM   16  F1  UNL     1       5.384  65.946   2.762  1.00  0.00    -0.204 F 
BRANCH  13  17
HETATM   17  N5  UNL     1       3.102  64.370   6.659  1.00  0.00    -0.290 N 
HETATM   18  C16 UNL     1       2.013  63.637   6.385  1.00  0.00     0.100 A 
HETATM   19  C17 UNL     1       0.922  63.716   7.229  1.00  0.00     0.018 A 
HETATM   20  C18 UNL     1       0.970  64.538   8.326  1.00  0.00     0.007 A 
HETATM   21  C19 UNL     1       2.104  65.275   8.573  1.00  0.00     0.075 A 
HETATM   22  C20 UNL     1       3.171  65.173   7.715  1.00  0.00     0.252 A 
HETATM   23  O5  UNL     1       4.211  65.846   7.938  1.00  0.00    -0.268 OA
ENDBRANCH  13  17
ENDBRANCH   8  10
ENDBRANCH   4   6
BRANCH   3  24
HETATM   24  C3  UNL     1      11.839  65.038   3.030  1.00  0.00     0.228 C 
HETATM   25  O3  UNL     1      12.110  63.839   2.814  1.00  0.00    -0.273 OA
HETATM   26  N3  UNL     1      12.453  65.756   4.051  1.00  0.00    -0.327 N 
ATOM     27  H3  UNL     1      12.179  66.731   4.168  1.00  0.00     0.169 HD
BRANCH  26  28
HETATM   28  C4  UNL     1      13.419  65.247   4.932  1.00  0.00     0.034 A 
HETATM   29  C5  UNL     1      13.308  65.546   6.300  1.00  0.00     0.031 A 
HETATM   30  C6  UNL     1      14.197  65.105   7.244  1.00  0.00     0.026 A 
HETATM   31  C7  UNL     1      15.269  64.324   6.846  1.00  0.00     0.034 A 
HETATM   32 CL1  UNL     1      16.452  63.722   8.001  1.00  0.00    -0.084 Cl
HETATM   33  C8  UNL     1      15.401  64.020   5.528  1.00  0.00     0.026 A 
HETATM   34  C9  UNL     1      14.481  64.480   4.583  1.00  0.00     0.031 A 
ENDBRANCH  26  28
ENDBRANCH   3  24
BRANCH   1  35
HETATM   35  S1  UNL     1      10.149  63.686  -0.885  1.00  0.00     0.296 S 
HETATM   36  O1  UNL     1       8.752  63.131  -0.680  1.00  0.00    -0.189 OA
HETATM   37  O2  UNL     1      11.088  62.688  -0.268  1.00  0.00    -0.189 OA
BRANCH  35  38
HETATM   38  N1  UNL     1      10.440  63.737  -2.577  1.00  0.00    -0.316 N 
ATOM     39  H12 UNL     1      10.307  62.960  -3.225  1.00  0.00     0.170 HD
ATOM     40  H11 UNL     1      10.766  64.677  -2.803  1.00  0.00     0.170 HD
ENDBRANCH  35  38
ENDBRANCH   1  35
TORSDOF 7
ENDMDL
