MODEL 8
REMARK VINA RESULT: -8.609170845      3.920      5.532
REMARK  7 active torsions:
REMARK  status: ('A' for Active; 'I' for Inactive)
REMARK    1  A    between atoms: N1_1  and  S1_4 
REMARK    2  A    between atoms: S1_4  and  N2_7 
REMARK    3  A    between atoms: C2_9  and  C3_10 
REMARK       I    between atoms: C3_10  and  N3_12 
REMARK    4  A    between atoms: N3_12  and  C4_14 
REMARK    5  A    between atoms: C10_21  and  C11_22 
REMARK       I    between atoms: C11_22  and  N4_24 
REMARK    6  A    between atoms: N4_24  and  C12_26 
REMARK    7  A    between atoms: C15_29  and  N5_30 
ROOT
HETATM    1  N2  UNL     1      10.114  65.174   0.058  1.00  0.00    -0.192 NA
HETATM    2  C1  UNL     1      11.222  65.407   0.927  1.00  0.00     0.123 C 
HETATM    3  C2  UNL     1      10.644  65.689   2.324  1.00  0.00     0.106 C 
HETATM    4  C10 UNL     1       9.364  64.970   2.218  1.00  0.00     0.106 C 
HETATM    5  C23 UNL     1       8.884  65.358   0.842  1.00  0.00     0.123 C 
ENDROOT
BRANCH   4   6
HETATM    6  C11 UNL     1       8.312  65.325   3.194  1.00  0.00     0.228 C 
HETATM    7  O4  UNL     1       8.282  66.386   3.824  1.00  0.00    -0.273 OA
HETATM    8  N4  UNL     1       7.285  64.364   3.395  1.00  0.00    -0.324 N 
ATOM      9  H4  UNL     1       7.361  63.508   2.845  1.00  0.00     0.169 HD
BRANCH   8  10
HETATM   10  C12 UNL     1       6.187  64.447   4.250  1.00  0.00     0.073 A 
HETATM   11  C13 UNL     1       5.223  65.416   4.173  1.00  0.00     0.035 A 
HETATM   12  C14 UNL     1       4.127  65.490   5.035  1.00  0.00     0.032 A 
HETATM   13  C15 UNL     1       4.027  64.529   6.006  1.00  0.00     0.045 A 
HETATM   14  C21 UNL     1       4.981  63.541   6.110  1.00  0.00     0.074 A 
HETATM   15  C22 UNL     1       6.055  63.482   5.254  1.00  0.00     0.145 A 
HETATM   16  F1  UNL     1       6.973  62.473   5.406  1.00  0.00    -0.204 F 
BRANCH  13  17
HETATM   17  N5  UNL     1       2.936  64.546   6.917  1.00  0.00    -0.290 N 
HETATM   18  C16 UNL     1       3.060  65.188   8.088  1.00  0.00     0.100 A 
HETATM   19  C17 UNL     1       1.991  65.197   8.963  1.00  0.00     0.018 A 
HETATM   20  C18 UNL     1       0.829  64.553   8.624  1.00  0.00     0.007 A 
HETATM   21  C19 UNL     1       0.741  63.904   7.414  1.00  0.00     0.075 A 
HETATM   22  C20 UNL     1       1.821  63.916   6.566  1.00  0.00     0.252 A 
HETATM   23  O5  UNL     1       1.743  63.324   5.459  1.00  0.00    -0.268 OA
ENDBRANCH  13  17
ENDBRANCH   8  10
ENDBRANCH   4   6
BRANCH   3  24
HETATM   24  C3  UNL     1      11.608  65.102   3.307  1.00  0.00     0.228 C 
HETATM   25  O3  UNL     1      11.667  63.856   3.320  1.00  0.00    -0.273 OA
HETATM   26  N3  UNL     1      12.390  65.883   4.154  1.00  0.00    -0.327 N 
ATOM     27  H3  UNL     1      12.286  66.895   4.087  1.00  0.00     0.169 HD
BRANCH  26  28
HETATM   28  C4  UNL     1      13.310  65.390   5.091  1.00  0.00     0.034 A 
HETATM   29  C5  UNL     1      14.370  64.587   4.639  1.00  0.00     0.031 A 
HETATM   30  C6  UNL     1      15.319  64.051   5.467  1.00  0.00     0.026 A 
HETATM   31  C7  UNL     1      15.244  64.303   6.828  1.00  0.00     0.034 A 
HETATM   32 CL1  UNL     1      16.427  63.647   7.953  1.00  0.00    -0.084 Cl
HETATM   33  C8  UNL     1      14.228  65.076   7.293  1.00  0.00     0.026 A 
HETATM   34  C9  UNL     1      13.272  65.613   6.428  1.00  0.00     0.031 A 
ENDBRANCH  26  28
ENDBRANCH   3  24
BRANCH   1  35
HETATM   35  S1  UNL     1      10.035  63.608  -0.605  1.00  0.00     0.296 S 
HETATM   36  O1  UNL     1       8.674  63.035  -0.260  1.00  0.00    -0.189 OA
HETATM   37  O2  UNL     1      11.046  62.660  -0.024  1.00  0.00    -0.189 OA
BRANCH  35  38
HETATM   38  N1  UNL     1      10.185  63.588  -2.315  1.00  0.00    -0.316 N 
ATOM     39  H12 UNL     1       9.914  62.815  -2.925  1.00  0.00     0.170 HD
ATOM     40  H11 UNL     1      10.589  64.480  -2.598  1.00  0.00     0.170 HD
ENDBRANCH  35  38
ENDBRANCH   1  35
TORSDOF 7
ENDMDL
