MODEL 5
REMARK VINA RESULT: -8.919745757      3.971      5.619
REMARK  7 active torsions:
REMARK  status: ('A' for Active; 'I' for Inactive)
REMARK    1  A    between atoms: N1_1  and  S1_4 
REMARK    2  A    between atoms: S1_4  and  N2_7 
REMARK    3  A    between atoms: C2_9  and  C3_10 
REMARK       I    between atoms: C3_10  and  N3_12 
REMARK    4  A    between atoms: N3_12  and  C4_14 
REMARK    5  A    between atoms: C10_21  and  C11_22 
REMARK       I    between atoms: C11_22  and  N4_24 
REMARK    6  A    between atoms: N4_24  and  C12_26 
REMARK    7  A    between atoms: C15_29  and  N5_30 
ROOT
HETATM    1  N2  UNL     1      10.085  65.199   0.038  1.00  0.00    -0.192 NA
HETATM    2  C1  UNL     1      11.173  65.446   0.928  1.00  0.00     0.123 C 
HETATM    3  C2  UNL     1      10.565  65.710   2.316  1.00  0.00     0.106 C 
HETATM    4  C10 UNL     1       9.300  64.970   2.183  1.00  0.00     0.106 C 
HETATM    5  C23 UNL     1       8.838  65.357   0.801  1.00  0.00     0.123 C 
ENDROOT
BRANCH   4   6
HETATM    6  C11 UNL     1       8.225  65.301   3.141  1.00  0.00     0.228 C 
HETATM    7  O4  UNL     1       8.132  66.380   3.732  1.00  0.00    -0.273 OA
HETATM    8  N4  UNL     1       7.251  64.292   3.374  1.00  0.00    -0.324 N 
ATOM      9  H4  UNL     1       7.377  63.422   2.856  1.00  0.00     0.169 HD
BRANCH   8  10
HETATM   10  C12 UNL     1       6.146  64.345   4.221  1.00  0.00     0.073 A 
HETATM   11  C13 UNL     1       5.125  65.250   4.100  1.00  0.00     0.035 A 
HETATM   12  C14 UNL     1       4.022  65.294   4.955  1.00  0.00     0.032 A 
HETATM   13  C15 UNL     1       3.975  64.371   5.967  1.00  0.00     0.045 A 
HETATM   14  C21 UNL     1       4.987  63.448   6.115  1.00  0.00     0.074 A 
HETATM   15  C22 UNL     1       6.067  63.417   5.266  1.00  0.00     0.145 A 
HETATM   16  F1  UNL     1       7.043  62.473   5.464  1.00  0.00    -0.204 F 
BRANCH  13  17
HETATM   17  N5  UNL     1       2.880  64.361   6.872  1.00  0.00    -0.290 N 
HETATM   18  C16 UNL     1       1.781  63.652   6.575  1.00  0.00     0.100 A 
HETATM   19  C17 UNL     1       0.724  63.651   7.465  1.00  0.00     0.018 A 
HETATM   20  C18 UNL     1       0.814  64.371   8.629  1.00  0.00     0.007 A 
HETATM   21  C19 UNL     1       1.958  65.086   8.898  1.00  0.00     0.075 A 
HETATM   22  C20 UNL     1       2.991  65.065   7.993  1.00  0.00     0.252 A 
HETATM   23  O5  UNL     1       4.039  65.717   8.236  1.00  0.00    -0.268 OA
ENDBRANCH  13  17
ENDBRANCH   8  10
ENDBRANCH   4   6
BRANCH   3  24
HETATM   24  C3  UNL     1      11.521  65.134   3.313  1.00  0.00     0.228 C 
HETATM   25  O3  UNL     1      11.509  63.890   3.410  1.00  0.00    -0.273 OA
HETATM   26  N3  UNL     1      12.370  65.922   4.086  1.00  0.00    -0.327 N 
ATOM     27  H3  UNL     1      12.322  66.931   3.953  1.00  0.00     0.169 HD
BRANCH  26  28
HETATM   28  C4  UNL     1      13.286  65.439   5.032  1.00  0.00     0.034 A 
HETATM   29  C5  UNL     1      14.369  64.663   4.588  1.00  0.00     0.031 A 
HETATM   30  C6  UNL     1      15.316  64.139   5.425  1.00  0.00     0.026 A 
HETATM   31  C7  UNL     1      15.216  64.375   6.787  1.00  0.00     0.034 A 
HETATM   32 CL1  UNL     1      16.396  63.734   7.924  1.00  0.00    -0.084 Cl
HETATM   33  C8  UNL     1      14.178  65.123   7.244  1.00  0.00     0.026 A 
HETATM   34  C9  UNL     1      13.224  65.648   6.370  1.00  0.00     0.031 A 
ENDBRANCH  26  28
ENDBRANCH   3  24
BRANCH   1  35
HETATM   35  S1  UNL     1      10.045  63.636  -0.635  1.00  0.00     0.296 S 
HETATM   36  O1  UNL     1       8.684  63.042  -0.327  1.00  0.00    -0.189 OA
HETATM   37  O2  UNL     1      11.054  62.699  -0.034  1.00  0.00    -0.189 OA
BRANCH  35  38
HETATM   38  N1  UNL     1      10.238  63.627  -2.341  1.00  0.00    -0.316 N 
ATOM     39  H12 UNL     1       9.763  62.997  -2.988  1.00  0.00     0.170 HD
ATOM     40  H11 UNL     1      10.908  64.360  -2.577  1.00  0.00     0.170 HD
ENDBRANCH  35  38
ENDBRANCH   1  35
TORSDOF 7
ENDMDL
