MODEL 1
REMARK VINA RESULT: -9.703607647      0.000      0.000
REMARK  7 active torsions:
REMARK  status: ('A' for Active; 'I' for Inactive)
REMARK    1  A    between atoms: N1_1  and  S1_4 
REMARK    2  A    between atoms: S1_4  and  N2_7 
REMARK    3  A    between atoms: C2_9  and  C3_10 
REMARK       I    between atoms: C3_10  and  N3_12 
REMARK    4  A    between atoms: N3_12  and  C4_14 
REMARK    5  A    between atoms: C10_21  and  C11_22 
REMARK       I    between atoms: C11_22  and  N4_24 
REMARK    6  A    between atoms: N4_24  and  C12_26 
REMARK    7  A    between atoms: C15_29  and  N5_30 
ROOT
HETATM    1  N2  UNL     1       7.238  69.290   3.346  1.00  0.00    -0.192 NA
HETATM    2  C1  UNL     1       8.314  68.955   4.221  1.00  0.00     0.123 C 
HETATM    3  C2  UNL     1       8.506  67.431   4.131  1.00  0.00     0.106 C 
HETATM    4  C10 UNL     1       7.967  67.187   2.783  1.00  0.00     0.106 C 
HETATM    5  C23 UNL     1       6.723  68.039   2.770  1.00  0.00     0.123 C 
ENDROOT
BRANCH   4   6
HETATM    6  C11 UNL     1       7.582  65.799   2.455  1.00  0.00     0.228 C 
HETATM    7  O4  UNL     1       7.276  65.414   1.324  1.00  0.00    -0.273 OA
HETATM    8  N4  UNL     1       7.575  64.873   3.533  1.00  0.00    -0.324 N 
ATOM      9  H4  UNL     1       7.840  65.247   4.445  1.00  0.00     0.169 HD
BRANCH   8  10
HETATM   10  C12 UNL     1       7.252  63.518   3.499  1.00  0.00     0.073 A 
HETATM   11  C13 UNL     1       6.031  63.008   3.852  1.00  0.00     0.035 A 
HETATM   12  C14 UNL     1       5.718  61.647   3.814  1.00  0.00     0.032 A 
HETATM   13  C15 UNL     1       6.701  60.789   3.395  1.00  0.00     0.045 A 
HETATM   14  C21 UNL     1       7.939  61.271   3.033  1.00  0.00     0.074 A 
HETATM   15  C22 UNL     1       8.233  62.613   3.076  1.00  0.00     0.145 A 
HETATM   16  F1  UNL     1       9.485  63.033   2.702  1.00  0.00    -0.204 F 
BRANCH  13  17
HETATM   17  N5  UNL     1       6.448  59.392   3.333  1.00  0.00    -0.290 N 
HETATM   18  C16 UNL     1       7.068  58.567   4.189  1.00  0.00     0.100 A 
HETATM   19  C17 UNL     1       6.813  57.212   4.117  1.00  0.00     0.018 A 
HETATM   20  C18 UNL     1       5.936  56.734   3.177  1.00  0.00     0.007 A 
HETATM   21  C19 UNL     1       5.320  57.611   2.316  1.00  0.00     0.075 A 
HETATM   22  C20 UNL     1       5.594  58.953   2.414  1.00  0.00     0.252 A 
HETATM   23  O5  UNL     1       5.033  59.758   1.628  1.00  0.00    -0.268 OA
ENDBRANCH  13  17
ENDBRANCH   8  10
ENDBRANCH   4   6
BRANCH   3  24
HETATM   24  C3  UNL     1       9.976  67.181   4.268  1.00  0.00     0.228 C 
HETATM   25  O3  UNL     1      10.700  68.194   4.189  1.00  0.00    -0.273 OA
HETATM   26  N3  UNL     1      10.509  65.912   4.471  1.00  0.00    -0.327 N 
ATOM     27  H3  UNL     1       9.855  65.132   4.523  1.00  0.00     0.169 HD
BRANCH  26  28
HETATM   28  C4  UNL     1      11.874  65.619   4.609  1.00  0.00     0.034 A 
HETATM   29  C5  UNL     1      12.493  65.857   5.846  1.00  0.00     0.031 A 
HETATM   30  C6  UNL     1      13.818  65.612   6.088  1.00  0.00     0.026 A 
HETATM   31  C7  UNL     1      14.605  65.102   5.067  1.00  0.00     0.034 A 
HETATM   32 CL1  UNL     1      16.315  64.762   5.303  1.00  0.00    -0.084 Cl
HETATM   33  C8  UNL     1      14.031  64.862   3.860  1.00  0.00     0.026 A 
HETATM   34  C9  UNL     1      12.677  65.119   3.637  1.00  0.00     0.031 A 
ENDBRANCH  26  28
ENDBRANCH   3  24
BRANCH   1  35
HETATM   35  S1  UNL     1       7.660  70.289   2.035  1.00  0.00     0.296 S 
HETATM   36  O1  UNL     1       6.520  71.266   1.821  1.00  0.00    -0.189 OA
HETATM   37  O2  UNL     1       7.818  69.544   0.739  1.00  0.00    -0.189 OA
BRANCH  35  38
HETATM   38  N1  UNL     1       9.082  71.210   2.314  1.00  0.00    -0.316 N 
ATOM     39  H12 UNL     1       9.899  71.239   1.703  1.00  0.00     0.170 HD
ATOM     40  H11 UNL     1       8.955  71.712   3.193  1.00  0.00     0.170 HD
ENDBRANCH  35  38
ENDBRANCH   1  35
TORSDOF 7
ENDMDL
