MODEL 1
REMARK VINA RESULT: -8.963058692      0.000      0.000
REMARK  6 active torsions:
REMARK  status: ('A' for Active; 'I' for Inactive)
REMARK    1  A    between atoms: S1_2  and  N1_5 
REMARK    2  A    between atoms: C3_7  and  C4_8 
REMARK       I    between atoms: C4_8  and  N2_10 
REMARK    3  A    between atoms: N2_10  and  C5_12 
REMARK    4  A    between atoms: C11_19  and  C12_20 
REMARK       I    between atoms: C12_20  and  N3_22 
REMARK    5  A    between atoms: N3_22  and  C13_24 
REMARK    6  A    between atoms: C16_27  and  N4_28 
ROOT
HETATM    1  N1  UNL     1      10.619  64.834   1.730  1.00  0.00    -0.209 NA
HETATM    2  C2  UNL     1      10.203  63.602   2.370  1.00  0.00     0.122 C 
HETATM    3  C3  UNL     1       8.691  63.652   2.145  1.00  0.00     0.106 C 
HETATM    4  C11 UNL     1       8.490  64.515   0.933  1.00  0.00     0.106 C 
HETATM    5  C24 UNL     1       9.907  64.782   0.479  1.00  0.00     0.122 C 
ENDROOT
BRANCH   4   6
HETATM    6  C12 UNL     1       7.887  65.830   1.365  1.00  0.00     0.228 C 
HETATM    7  O4  UNL     1       7.077  65.876   2.314  1.00  0.00    -0.273 OA
HETATM    8  N3  UNL     1       8.263  66.985   0.674  1.00  0.00    -0.324 N 
ATOM      9  H3  UNL     1       8.930  66.869  -0.090  1.00  0.00     0.169 HD
BRANCH   8  10
HETATM   10  C13 UNL     1       7.809  68.295   0.931  1.00  0.00     0.073 A 
HETATM   11  C14 UNL     1       6.653  68.864   0.486  1.00  0.00     0.035 A 
HETATM   12  C15 UNL     1       6.313  70.186   0.814  1.00  0.00     0.032 A 
HETATM   13  C16 UNL     1       7.113  70.982   1.595  1.00  0.00     0.045 A 
HETATM   14  C22 UNL     1       8.284  70.403   2.044  1.00  0.00     0.074 A 
HETATM   15  C23 UNL     1       8.621  69.119   1.729  1.00  0.00     0.145 A 
HETATM   16  F1  UNL     1       9.805  68.660   2.233  1.00  0.00    -0.204 F 
BRANCH  13  17
HETATM   17  N4  UNL     1       6.754  72.317   1.918  1.00  0.00    -0.290 N 
HETATM   18  C17 UNL     1       6.128  72.585   3.070  1.00  0.00     0.100 A 
HETATM   19  C18 UNL     1       5.776  73.888   3.389  1.00  0.00     0.018 A 
HETATM   20  C19 UNL     1       6.068  74.918   2.527  1.00  0.00     0.007 A 
HETATM   21  C20 UNL     1       6.711  74.637   1.346  1.00  0.00     0.075 A 
HETATM   22  C21 UNL     1       7.040  73.326   1.074  1.00  0.00     0.252 A 
HETATM   23  O5  UNL     1       7.628  73.045   0.001  1.00  0.00    -0.268 OA
ENDBRANCH  13  17
ENDBRANCH   8  10
ENDBRANCH   4   6
BRANCH   3  24
HETATM   24  C4  UNL     1       8.122  62.279   1.979  1.00  0.00     0.228 C 
HETATM   25  O3  UNL     1       8.267  61.678   0.892  1.00  0.00    -0.273 OA
HETATM   26  N2  UNL     1       7.423  61.639   3.026  1.00  0.00    -0.327 N 
ATOM     27  H2  UNL     1       7.329  62.163   3.896  1.00  0.00     0.169 HD
BRANCH  26  28
HETATM   28  C5  UNL     1       6.838  60.349   2.999  1.00  0.00     0.034 A 
HETATM   29  C6  UNL     1       7.615  59.266   3.434  1.00  0.00     0.031 A 
HETATM   30  C7  UNL     1       7.158  57.977   3.458  1.00  0.00     0.026 A 
HETATM   31  C8  UNL     1       5.885  57.674   3.046  1.00  0.00     0.034 A 
HETATM   32 CL1  UNL     1       5.320  56.026   3.082  1.00  0.00    -0.084 Cl
HETATM   33  C9  UNL     1       5.109  58.725   2.615  1.00  0.00     0.026 A 
HETATM   34  C10 UNL     1       5.577  60.045   2.591  1.00  0.00     0.031 A 
ENDBRANCH  26  28
ENDBRANCH   3  24
BRANCH   1  35
HETATM   35  S1  UNL     1      12.320  64.924   1.522  1.00  0.00     0.207 S 
HETATM   36  C1  UNL     1      13.177  65.147   3.052  1.00  0.00     0.180 C 
HETATM   37  O1  UNL     1      12.765  63.642   0.875  1.00  0.00    -0.212 OA
HETATM   38  O2  UNL     1      12.615  66.044   0.557  1.00  0.00    -0.212 OA
ENDBRANCH   1  35
TORSDOF 6
ENDMDL
