MODEL 2
REMARK VINA RESULT: -8.962139901      0.760      1.087
REMARK  6 active torsions:
REMARK  status: ('A' for Active; 'I' for Inactive)
REMARK    1  A    between atoms: S1_2  and  N1_5 
REMARK    2  A    between atoms: C3_7  and  C4_8 
REMARK       I    between atoms: C4_8  and  N2_10 
REMARK    3  A    between atoms: N2_10  and  C5_12 
REMARK    4  A    between atoms: C11_19  and  C12_20 
REMARK       I    between atoms: C12_20  and  N3_22 
REMARK    5  A    between atoms: N3_22  and  C13_24 
REMARK    6  A    between atoms: C16_27  and  N4_28 
ROOT
HETATM    1  N1  UNL     1      10.674  64.722   1.741  1.00  0.00    -0.209 NA
HETATM    2  C2  UNL     1      10.231  63.486   2.356  1.00  0.00     0.122 C 
HETATM    3  C3  UNL     1       8.714  63.615   2.209  1.00  0.00     0.106 C 
HETATM    4  C11 UNL     1       8.496  64.532   1.041  1.00  0.00     0.106 C 
HETATM    5  C24 UNL     1       9.900  64.751   0.526  1.00  0.00     0.122 C 
ENDROOT
BRANCH   4   6
HETATM    6  C12 UNL     1       7.978  65.856   1.550  1.00  0.00     0.228 C 
HETATM    7  O4  UNL     1       7.087  65.896   2.424  1.00  0.00    -0.273 OA
HETATM    8  N3  UNL     1       8.525  67.026   1.016  1.00  0.00    -0.324 N 
ATOM      9  H3  UNL     1       9.249  66.914   0.305  1.00  0.00     0.169 HD
BRANCH   8  10
HETATM   10  C13 UNL     1       8.172  68.346   1.364  1.00  0.00     0.073 A 
HETATM   11  C14 UNL     1       8.841  69.176   2.213  1.00  0.00     0.035 A 
HETATM   12  C15 UNL     1       8.383  70.476   2.479  1.00  0.00     0.032 A 
HETATM   13  C16 UNL     1       7.244  70.989   1.909  1.00  0.00     0.045 A 
HETATM   14  C22 UNL     1       6.568  70.145   1.050  1.00  0.00     0.074 A 
HETATM   15  C23 UNL     1       7.008  68.881   0.787  1.00  0.00     0.145 A 
HETATM   16  F1  UNL     1       6.252  68.142  -0.079  1.00  0.00    -0.204 F 
BRANCH  13  17
HETATM   17  N4  UNL     1       6.795  72.307   2.189  1.00  0.00    -0.290 N 
HETATM   18  C17 UNL     1       6.115  72.560   3.313  1.00  0.00     0.100 A 
HETATM   19  C18 UNL     1       5.675  73.845   3.591  1.00  0.00     0.018 A 
HETATM   20  C19 UNL     1       5.932  74.873   2.715  1.00  0.00     0.007 A 
HETATM   21  C20 UNL     1       6.630  74.607   1.562  1.00  0.00     0.075 A 
HETATM   22  C21 UNL     1       7.046  73.313   1.332  1.00  0.00     0.252 A 
HETATM   23  O5  UNL     1       7.687  73.046   0.284  1.00  0.00    -0.268 OA
ENDBRANCH  13  17
ENDBRANCH   8  10
ENDBRANCH   4   6
BRANCH   3  24
HETATM   24  C4  UNL     1       8.072  62.276   2.022  1.00  0.00     0.228 C 
HETATM   25  O3  UNL     1       7.963  61.800   0.871  1.00  0.00    -0.273 OA
HETATM   26  N2  UNL     1       7.586  61.533   3.118  1.00  0.00    -0.327 N 
ATOM     27  H2  UNL     1       7.696  61.956   4.040  1.00  0.00     0.169 HD
BRANCH  26  28
HETATM   28  C5  UNL     1       6.961  60.262   3.079  1.00  0.00     0.034 A 
HETATM   29  C6  UNL     1       7.719  59.145   3.458  1.00  0.00     0.031 A 
HETATM   30  C7  UNL     1       7.224  57.870   3.465  1.00  0.00     0.026 A 
HETATM   31  C8  UNL     1       5.928  57.615   3.090  1.00  0.00     0.034 A 
HETATM   32 CL1  UNL     1       5.315  55.985   3.104  1.00  0.00    -0.084 Cl
HETATM   33  C9  UNL     1       5.170  58.701   2.714  1.00  0.00     0.026 A 
HETATM   34  C10 UNL     1       5.678  60.007   2.708  1.00  0.00     0.031 A 
ENDBRANCH  26  28
ENDBRANCH   3  24
BRANCH   1  35
HETATM   35  S1  UNL     1      12.365  64.741   1.452  1.00  0.00     0.207 S 
HETATM   36  C1  UNL     1      13.305  64.820   2.946  1.00  0.00     0.180 C 
HETATM   37  O1  UNL     1      12.710  63.486   0.701  1.00  0.00    -0.212 OA
HETATM   38  O2  UNL     1      12.672  65.907   0.546  1.00  0.00    -0.212 OA
ENDBRANCH   1  35
TORSDOF 6
ENDMDL
