MODEL 3
REMARK VINA RESULT: -8.910122601      4.020     10.523
REMARK  6 active torsions:
REMARK  status: ('A' for Active; 'I' for Inactive)
REMARK    1  A    between atoms: S1_2  and  N1_5 
REMARK    2  A    between atoms: C3_7  and  C4_8 
REMARK       I    between atoms: C4_8  and  N2_10 
REMARK    3  A    between atoms: N2_10  and  C5_12 
REMARK    4  A    between atoms: C11_19  and  C12_20 
REMARK       I    between atoms: C12_20  and  N3_22 
REMARK    5  A    between atoms: N3_22  and  C13_24 
REMARK    6  A    between atoms: C16_27  and  N4_28 
ROOT
HETATM    1  N1  UNL     1      10.155  66.189   3.018  1.00  0.00    -0.209 NA
HETATM    2  C2  UNL     1       9.874  67.272   2.097  1.00  0.00     0.122 C 
HETATM    3  C3  UNL     1       8.345  67.292   2.126  1.00  0.00     0.106 C 
HETATM    4  C11 UNL     1       7.958  66.696   3.448  1.00  0.00     0.106 C 
HETATM    5  C24 UNL     1       9.294  66.505   4.129  1.00  0.00     0.122 C 
ENDROOT
BRANCH   4   6
HETATM    6  C12 UNL     1       7.359  65.330   3.211  1.00  0.00     0.228 C 
HETATM    7  O4  UNL     1       6.193  65.214   2.780  1.00  0.00    -0.273 OA
HETATM    8  N3  UNL     1       8.148  64.210   3.487  1.00  0.00    -0.324 N 
ATOM      9  H3  UNL     1       9.091  64.384   3.836  1.00  0.00     0.169 HD
BRANCH   8  10
HETATM   10  C13 UNL     1       7.765  62.862   3.328  1.00  0.00     0.073 A 
HETATM   11  C14 UNL     1       8.099  62.030   2.301  1.00  0.00     0.035 A 
HETATM   12  C15 UNL     1       7.651  60.701   2.259  1.00  0.00     0.032 A 
HETATM   13  C16 UNL     1       6.856  60.158   3.239  1.00  0.00     0.045 A 
HETATM   14  C22 UNL     1       6.520  61.003   4.278  1.00  0.00     0.074 A 
HETATM   15  C23 UNL     1       6.952  62.296   4.325  1.00  0.00     0.145 A 
HETATM   16  F1  UNL     1       6.551  63.032   5.404  1.00  0.00    -0.204 F 
BRANCH  13  17
HETATM   17  N4  UNL     1       6.412  58.811   3.181  1.00  0.00    -0.290 N 
HETATM   18  C17 UNL     1       7.127  57.842   3.765  1.00  0.00     0.100 A 
HETATM   19  C18 UNL     1       6.696  56.524   3.712  1.00  0.00     0.018 A 
HETATM   20  C19 UNL     1       5.530  56.201   3.060  1.00  0.00     0.007 A 
HETATM   21  C20 UNL     1       4.800  57.199   2.463  1.00  0.00     0.075 A 
HETATM   22  C21 UNL     1       5.270  58.493   2.544  1.00  0.00     0.252 A 
HETATM   23  O5  UNL     1       4.620  59.423   2.006  1.00  0.00    -0.268 OA
ENDBRANCH  13  17
ENDBRANCH   8  10
ENDBRANCH   4   6
BRANCH   3  24
HETATM   24  C4  UNL     1       7.818  68.679   1.939  1.00  0.00     0.228 C 
HETATM   25  O3  UNL     1       7.950  69.246   0.832  1.00  0.00    -0.273 OA
HETATM   26  N2  UNL     1       7.168  69.368   2.986  1.00  0.00    -0.327 N 
ATOM     27  H2  UNL     1       7.080  68.870   3.872  1.00  0.00     0.169 HD
BRANCH  26  28
HETATM   28  C5  UNL     1       6.627  70.677   2.941  1.00  0.00     0.034 A 
HETATM   29  C6  UNL     1       7.403  71.726   3.452  1.00  0.00     0.031 A 
HETATM   30  C7  UNL     1       6.990  73.031   3.459  1.00  0.00     0.026 A 
HETATM   31  C8  UNL     1       5.764  73.383   2.954  1.00  0.00     0.034 A 
HETATM   32 CL1  UNL     1       5.253  75.048   2.971  1.00  0.00    -0.084 Cl
HETATM   33  C9  UNL     1       4.988  72.365   2.448  1.00  0.00     0.026 A 
HETATM   34  C10 UNL     1       5.413  71.029   2.441  1.00  0.00     0.031 A 
ENDBRANCH  26  28
ENDBRANCH   3  24
BRANCH   1  35
HETATM   35  S1  UNL     1      11.811  66.117   3.462  1.00  0.00     0.207 S 
HETATM   36  C1  UNL     1      12.852  65.650   2.112  1.00  0.00     0.180 C 
HETATM   37  O1  UNL     1      12.205  67.480   3.958  1.00  0.00    -0.212 OA
HETATM   38  O2  UNL     1      11.944  65.160   4.618  1.00  0.00    -0.212 OA
ENDBRANCH   1  35
TORSDOF 6
ENDMDL
