MODEL 5
REMARK VINA RESULT: -10.612738751      1.292      1.570
REMARK  7 active torsions:
REMARK  status: ('A' for Active; 'I' for Inactive)
REMARK    1  A    between atoms: O1_2  and  C2_3 
REMARK    2  A    between atoms: C5_6  and  N1_7 
REMARK       I    between atoms: N1_7  and  C6_9 
REMARK    3  A    between atoms: C6_9  and  C7_11 
REMARK    4  A    between atoms: N2_13  and  S1_14 
REMARK    5  A    between atoms: C11_19  and  C12_20 
REMARK       I    between atoms: C12_20  and  N3_22 
REMARK    6  A    between atoms: N3_22  and  C13_24 
REMARK    7  A    between atoms: C16_27  and  N4_28 
ROOT
HETATM    1  C7  UNL     1       8.875  67.817   3.934  1.00  0.00     0.106 C 
HETATM    2  C8  UNL     1       8.819  69.303   3.561  1.00  0.00     0.122 C 
HETATM    3  N2  UNL     1       7.545  69.494   2.925  1.00  0.00    -0.209 NA
HETATM    4  C10 UNL     1       6.886  68.232   2.797  1.00  0.00     0.122 C 
HETATM    5  C11 UNL     1       8.025  67.238   2.852  1.00  0.00     0.106 C 
ENDROOT
BRANCH   5   6
HETATM    6  C12 UNL     1       7.551  65.861   3.166  1.00  0.00     0.228 C 
HETATM    7  O5  UNL     1       6.927  65.654   4.214  1.00  0.00    -0.273 OA
HETATM    8  N3  UNL     1       7.813  64.803   2.272  1.00  0.00    -0.324 N 
ATOM      9  H3  UNL     1       8.331  65.037   1.426  1.00  0.00     0.169 HD
BRANCH   8  10
HETATM   10  C13 UNL     1       7.431  63.451   2.428  1.00  0.00     0.073 A 
HETATM   11  C14 UNL     1       6.299  62.996   3.016  1.00  0.00     0.035 A 
HETATM   12  C15 UNL     1       6.008  61.634   3.123  1.00  0.00     0.032 A 
HETATM   13  C16 UNL     1       6.887  60.711   2.620  1.00  0.00     0.045 A 
HETATM   14  C22 UNL     1       8.030  61.135   2.025  1.00  0.00     0.074 A 
HETATM   15  C23 UNL     1       8.300  62.490   1.929  1.00  0.00     0.145 A 
HETATM   16  F1  UNL     1       9.459  62.844   1.324  1.00  0.00    -0.204 F 
BRANCH  13  17
HETATM   17  N4  UNL     1       6.580  59.331   2.735  1.00  0.00    -0.290 N 
HETATM   18  C17 UNL     1       7.159  58.557   3.694  1.00  0.00     0.100 A 
HETATM   19  C18 UNL     1       6.829  57.214   3.770  1.00  0.00     0.018 A 
HETATM   20  C19 UNL     1       5.916  56.642   2.882  1.00  0.00     0.007 A 
HETATM   21  C20 UNL     1       5.345  57.440   1.923  1.00  0.00     0.075 A 
HETATM   22  C21 UNL     1       5.696  58.758   1.883  1.00  0.00     0.252 A 
HETATM   23  O6  UNL     1       5.168  59.494   0.997  1.00  0.00    -0.268 OA
ENDBRANCH  13  17
ENDBRANCH   8  10
ENDBRANCH   5   6
BRANCH   1  24
HETATM   24  C6  UNL     1      10.278  67.312   3.919  1.00  0.00     0.228 C 
HETATM   25  N1  UNL     1      10.700  66.212   4.661  1.00  0.00    -0.327 N 
ATOM     26  H1  UNL     1      10.000  65.741   5.236  1.00  0.00     0.169 HD
HETATM   27  O2  UNL     1      11.068  67.942   3.188  1.00  0.00    -0.273 OA
BRANCH  25  28
HETATM   28  C5  UNL     1      12.002  65.697   4.688  1.00  0.00     0.037 A 
HETATM   29  C4  UNL     1      12.707  65.230   3.616  1.00  0.00     0.032 A 
HETATM   30  C3  UNL     1      13.985  64.725   3.708  1.00  0.00     0.042 A 
HETATM   31  C2  UNL     1      14.599  64.679   4.932  1.00  0.00     0.106 A 
HETATM   32  C25 UNL     1      13.926  65.144   6.071  1.00  0.00     0.151 A 
HETATM   33  C24 UNL     1      12.669  65.631   5.922  1.00  0.00     0.074 A 
HETATM   34  F2  UNL     1      14.539  65.096   7.283  1.00  0.00    -0.203 F 
BRANCH  31  35
HETATM   35  O1  UNL     1      15.869  64.181   5.053  1.00  0.00    -0.353 OA
HETATM   36  C1  UNL     1      16.109  62.993   5.768  1.00  0.00     0.210 C 
ENDBRANCH  31  35
ENDBRANCH  25  28
ENDBRANCH   1  24
BRANCH   3  37
HETATM   37  S1  UNL     1       7.664  70.372   1.455  1.00  0.00     0.207 S 
HETATM   38  C9  UNL     1       7.223  69.407   0.042  1.00  0.00     0.180 C 
HETATM   39  O3  UNL     1       6.880  71.640   1.484  1.00  0.00    -0.212 OA
HETATM   40  O4  UNL     1       9.120  70.767   1.281  1.00  0.00    -0.212 OA
ENDBRANCH   3  37
TORSDOF 7
ENDMDL
