MODEL 3
REMARK VINA RESULT: -11.152057369      0.950      1.219
REMARK  7 active torsions:
REMARK  status: ('A' for Active; 'I' for Inactive)
REMARK    1  A    between atoms: O1_2  and  C2_3 
REMARK    2  A    between atoms: C5_6  and  N1_7 
REMARK       I    between atoms: N1_7  and  C6_9 
REMARK    3  A    between atoms: C6_9  and  C7_11 
REMARK    4  A    between atoms: N2_13  and  S1_14 
REMARK    5  A    between atoms: C11_19  and  C12_20 
REMARK       I    between atoms: C12_20  and  N3_22 
REMARK    6  A    between atoms: N3_22  and  C13_24 
REMARK    7  A    between atoms: C16_27  and  N4_28 
ROOT
HETATM    1  C7  UNL     1       9.235  67.512   3.580  1.00  0.00     0.106 C 
HETATM    2  C8  UNL     1       9.095  69.037   3.654  1.00  0.00     0.122 C 
HETATM    3  N2  UNL     1       8.058  69.375   2.721  1.00  0.00    -0.209 NA
HETATM    4  C10 UNL     1       7.642  68.198   2.026  1.00  0.00     0.122 C 
HETATM    5  C11 UNL     1       8.835  67.276   2.161  1.00  0.00     0.106 C 
ENDROOT
BRANCH   5   6
HETATM    6  C12 UNL     1       8.478  65.856   1.891  1.00  0.00     0.228 C 
HETATM    7  O5  UNL     1       8.346  65.469   0.723  1.00  0.00    -0.273 OA
HETATM    8  N3  UNL     1       8.292  64.959   2.962  1.00  0.00    -0.324 N 
ATOM      9  H3  UNL     1       8.415  65.336   3.902  1.00  0.00     0.169 HD
BRANCH   8  10
HETATM   10  C13 UNL     1       7.953  63.589   2.870  1.00  0.00     0.073 A 
HETATM   11  C14 UNL     1       8.592  62.649   2.132  1.00  0.00     0.035 A 
HETATM   12  C15 UNL     1       8.182  61.315   2.104  1.00  0.00     0.032 A 
HETATM   13  C16 UNL     1       7.096  60.923   2.843  1.00  0.00     0.045 A 
HETATM   14  C22 UNL     1       6.435  61.841   3.593  1.00  0.00     0.074 A 
HETATM   15  C23 UNL     1       6.858  63.160   3.607  1.00  0.00     0.145 A 
HETATM   16  F1  UNL     1       6.153  64.023   4.376  1.00  0.00    -0.204 F 
BRANCH  13  17
HETATM   17  N4  UNL     1       6.689  59.565   2.806  1.00  0.00    -0.290 N 
HETATM   18  C17 UNL     1       7.283  58.628   3.595  1.00  0.00     0.100 A 
HETATM   19  C18 UNL     1       6.853  57.313   3.525  1.00  0.00     0.018 A 
HETATM   20  C19 UNL     1       5.824  56.933   2.662  1.00  0.00     0.007 A 
HETATM   21  C20 UNL     1       5.239  57.894   1.876  1.00  0.00     0.075 A 
HETATM   22  C21 UNL     1       5.692  59.178   1.975  1.00  0.00     0.252 A 
HETATM   23  O6  UNL     1       5.150  60.063   1.248  1.00  0.00    -0.268 OA
ENDBRANCH  13  17
ENDBRANCH   8  10
ENDBRANCH   5   6
BRANCH   1  24
HETATM   24  C6  UNL     1      10.632  67.086   3.879  1.00  0.00     0.228 C 
HETATM   25  N1  UNL     1      10.940  65.950   4.624  1.00  0.00    -0.327 N 
ATOM     26  H1  UNL     1      10.157  65.394   4.971  1.00  0.00     0.169 HD
HETATM   27  O2  UNL     1      11.529  67.818   3.414  1.00  0.00    -0.273 OA
BRANCH  25  28
HETATM   28  C5  UNL     1      12.230  65.505   4.938  1.00  0.00     0.037 A 
HETATM   29  C4  UNL     1      12.831  65.570   6.162  1.00  0.00     0.032 A 
HETATM   30  C3  UNL     1      14.111  65.124   6.405  1.00  0.00     0.042 A 
HETATM   31  C2  UNL     1      14.837  64.582   5.377  1.00  0.00     0.106 A 
HETATM   32  C25 UNL     1      14.274  64.487   4.096  1.00  0.00     0.151 A 
HETATM   33  C24 UNL     1      13.009  64.943   3.914  1.00  0.00     0.074 A 
HETATM   34  F2  UNL     1      14.998  63.949   3.079  1.00  0.00    -0.203 F 
BRANCH  31  35
HETATM   35  O1  UNL     1      16.112  64.130   5.590  1.00  0.00    -0.353 OA
HETATM   36  C1  UNL     1      16.350  63.022   6.425  1.00  0.00     0.210 C 
ENDBRANCH  31  35
ENDBRANCH  25  28
ENDBRANCH   1  24
BRANCH   3  37
HETATM   37  S1  UNL     1       8.493  70.677   1.689  1.00  0.00     0.207 S 
HETATM   38  C9  UNL     1       7.559  72.143   2.006  1.00  0.00     0.180 C 
HETATM   39  O3  UNL     1       9.954  70.972   1.730  1.00  0.00    -0.212 OA
HETATM   40  O4  UNL     1       8.176  70.252   0.267  1.00  0.00    -0.212 OA
ENDBRANCH   3  37
TORSDOF 7
ENDMDL
