MODEL 4
REMARK VINA RESULT: -11.064692617      1.304      1.663
REMARK  7 active torsions:
REMARK  status: ('A' for Active; 'I' for Inactive)
REMARK    1  A    between atoms: O1_2  and  C2_3 
REMARK    2  A    between atoms: C5_6  and  N1_7 
REMARK       I    between atoms: N1_7  and  C6_9 
REMARK    3  A    between atoms: C6_9  and  C7_11 
REMARK    4  A    between atoms: N2_13  and  S1_14 
REMARK    5  A    between atoms: C11_19  and  C12_20 
REMARK       I    between atoms: C12_20  and  N3_22 
REMARK    6  A    between atoms: N3_22  and  C13_24 
REMARK    7  A    between atoms: C16_27  and  N4_28 
ROOT
HETATM    1  C7  UNL     1       9.032  67.763   3.467  1.00  0.00     0.106 C 
HETATM    2  C8  UNL     1       8.937  69.293   3.470  1.00  0.00     0.122 C 
HETATM    3  N2  UNL     1       7.885  69.617   2.549  1.00  0.00    -0.209 NA
HETATM    4  C10 UNL     1       7.418  68.420   1.923  1.00  0.00     0.122 C 
HETATM    5  C11 UNL     1       8.587  67.471   2.072  1.00  0.00     0.106 C 
ENDROOT
BRANCH   5   6
HETATM    6  C12 UNL     1       8.183  66.051   1.881  1.00  0.00     0.228 C 
HETATM    7  O5  UNL     1       8.149  65.573   0.739  1.00  0.00    -0.273 OA
HETATM    8  N3  UNL     1       7.842  65.257   2.994  1.00  0.00    -0.324 N 
ATOM      9  H3  UNL     1       7.890  65.708   3.908  1.00  0.00     0.169 HD
BRANCH   8  10
HETATM   10  C13 UNL     1       7.441  63.902   2.976  1.00  0.00     0.073 A 
HETATM   11  C14 UNL     1       6.185  63.430   3.166  1.00  0.00     0.035 A 
HETATM   12  C15 UNL     1       5.886  62.067   3.130  1.00  0.00     0.032 A 
HETATM   13  C16 UNL     1       6.885  61.158   2.896  1.00  0.00     0.045 A 
HETATM   14  C22 UNL     1       8.154  61.599   2.703  1.00  0.00     0.074 A 
HETATM   15  C23 UNL     1       8.430  62.956   2.742  1.00  0.00     0.145 A 
HETATM   16  F1  UNL     1       9.717  63.326   2.541  1.00  0.00    -0.204 F 
BRANCH  13  17
HETATM   17  N4  UNL     1       6.568  59.776   2.863  1.00  0.00    -0.290 N 
HETATM   18  C17 UNL     1       6.989  58.932   3.845  1.00  0.00     0.100 A 
HETATM   19  C18 UNL     1       6.656  57.589   3.772  1.00  0.00     0.018 A 
HETATM   20  C19 UNL     1       5.898  57.089   2.710  1.00  0.00     0.007 A 
HETATM   21  C20 UNL     1       5.485  57.958   1.732  1.00  0.00     0.075 A 
HETATM   22  C21 UNL     1       5.834  59.272   1.842  1.00  0.00     0.252 A 
HETATM   23  O6  UNL     1       5.452  60.073   0.937  1.00  0.00    -0.268 OA
ENDBRANCH  13  17
ENDBRANCH   8  10
ENDBRANCH   5   6
BRANCH   1  24
HETATM   24  C6  UNL     1      10.424  67.311   3.750  1.00  0.00     0.228 C 
HETATM   25  N1  UNL     1      10.720  66.110   4.394  1.00  0.00    -0.327 N 
ATOM     26  H1  UNL     1       9.932  65.526   4.674  1.00  0.00     0.169 HD
HETATM   27  O2  UNL     1      11.328  68.081   3.370  1.00  0.00    -0.273 OA
BRANCH  25  28
HETATM   28  C5  UNL     1      12.005  65.638   4.688  1.00  0.00     0.037 A 
HETATM   29  C4  UNL     1      12.645  65.737   5.890  1.00  0.00     0.032 A 
HETATM   30  C3  UNL     1      13.917  65.260   6.114  1.00  0.00     0.042 A 
HETATM   31  C2  UNL     1      14.594  64.651   5.090  1.00  0.00     0.106 A 
HETATM   32  C25 UNL     1      13.988  64.519   3.832  1.00  0.00     0.151 A 
HETATM   33  C24 UNL     1      12.733  65.007   3.667  1.00  0.00     0.074 A 
HETATM   34  F2  UNL     1      14.663  63.915   2.818  1.00  0.00    -0.203 F 
BRANCH  31  35
HETATM   35  O1  UNL     1      15.861  64.168   5.285  1.00  0.00    -0.353 OA
HETATM   36  C1  UNL     1      16.092  63.103   6.175  1.00  0.00     0.210 C 
ENDBRANCH  31  35
ENDBRANCH  25  28
ENDBRANCH   1  24
BRANCH   3  37
HETATM   37  S1  UNL     1       8.329  70.855   1.445  1.00  0.00     0.207 S 
HETATM   38  C9  UNL     1       7.345  72.311   1.617  1.00  0.00     0.180 C 
HETATM   39  O3  UNL     1       9.779  71.194   1.522  1.00  0.00    -0.212 OA
HETATM   40  O4  UNL     1       8.084  70.321   0.044  1.00  0.00    -0.212 OA
ENDBRANCH   3  37
TORSDOF 7
ENDMDL
