MODEL 2
REMARK VINA RESULT: -11.347601358      0.738      1.059
REMARK  7 active torsions:
REMARK  status: ('A' for Active; 'I' for Inactive)
REMARK    1  A    between atoms: O1_2  and  C2_3 
REMARK    2  A    between atoms: C5_6  and  N1_7 
REMARK       I    between atoms: N1_7  and  C6_9 
REMARK    3  A    between atoms: C6_9  and  C7_11 
REMARK    4  A    between atoms: N2_13  and  S1_14 
REMARK    5  A    between atoms: C11_19  and  C12_20 
REMARK       I    between atoms: C12_20  and  N3_22 
REMARK    6  A    between atoms: N3_22  and  C13_24 
REMARK    7  A    between atoms: C16_27  and  N4_28 
ROOT
HETATM    1  C7  UNL     1       9.272  67.256   3.750  1.00  0.00     0.106 C 
HETATM    2  C8  UNL     1       9.404  68.784   3.760  1.00  0.00     0.122 C 
HETATM    3  N2  UNL     1       8.248  69.276   3.067  1.00  0.00    -0.209 NA
HETATM    4  C10 UNL     1       7.495  68.174   2.557  1.00  0.00     0.122 C 
HETATM    5  C11 UNL     1       8.518  67.062   2.476  1.00  0.00     0.106 C 
ENDROOT
BRANCH   5   6
HETATM    6  C12 UNL     1       7.881  65.720   2.382  1.00  0.00     0.228 C 
HETATM    7  O5  UNL     1       6.883  65.565   1.665  1.00  0.00    -0.273 OA
HETATM    8  N3  UNL     1       8.412  64.633   3.105  1.00  0.00    -0.324 N 
ATOM      9  H3  UNL     1       9.234  64.823   3.677  1.00  0.00     0.169 HD
BRANCH   8  10
HETATM   10  C13 UNL     1       7.923  63.306   3.119  1.00  0.00     0.073 A 
HETATM   11  C14 UNL     1       6.937  62.820   3.911  1.00  0.00     0.035 A 
HETATM   12  C15 UNL     1       6.521  61.488   3.853  1.00  0.00     0.032 A 
HETATM   13  C16 UNL     1       7.120  60.628   2.969  1.00  0.00     0.045 A 
HETATM   14  C22 UNL     1       8.111  61.085   2.163  1.00  0.00     0.074 A 
HETATM   15  C23 UNL     1       8.509  62.410   2.236  1.00  0.00     0.145 A 
HETATM   16  F1  UNL     1       9.503  62.799   1.403  1.00  0.00    -0.204 F 
BRANCH  13  17
HETATM   17  N4  UNL     1       6.689  59.278   2.920  1.00  0.00    -0.290 N 
HETATM   18  C17 UNL     1       7.287  58.318   3.679  1.00  0.00     0.100 A 
HETATM   19  C18 UNL     1       6.833  57.012   3.600  1.00  0.00     0.018 A 
HETATM   20  C19 UNL     1       5.776  56.663   2.756  1.00  0.00     0.007 A 
HETATM   21  C20 UNL     1       5.189  57.646   2.000  1.00  0.00     0.075 A 
HETATM   22  C21 UNL     1       5.665  58.921   2.108  1.00  0.00     0.252 A 
HETATM   23  O6  UNL     1       5.121  59.826   1.409  1.00  0.00    -0.268 OA
ENDBRANCH  13  17
ENDBRANCH   8  10
ENDBRANCH   5   6
BRANCH   1  24
HETATM   24  C6  UNL     1      10.611  66.601   3.751  1.00  0.00     0.228 C 
HETATM   25  N1  UNL     1      11.257  66.189   4.915  1.00  0.00    -0.327 N 
ATOM     26  H1  UNL     1      10.773  66.349   5.799  1.00  0.00     0.169 HD
HETATM   27  O2  UNL     1      11.131  66.438   2.630  1.00  0.00    -0.273 OA
BRANCH  25  28
HETATM   28  C5  UNL     1      12.513  65.573   4.976  1.00  0.00     0.037 A 
HETATM   29  C4  UNL     1      13.232  65.098   3.916  1.00  0.00     0.032 A 
HETATM   30  C3  UNL     1      14.461  64.491   4.042  1.00  0.00     0.042 A 
HETATM   31  C2  UNL     1      15.010  64.345   5.289  1.00  0.00     0.106 A 
HETATM   32  C25 UNL     1      14.320  64.812   6.417  1.00  0.00     0.151 A 
HETATM   33  C24 UNL     1      13.112  65.402   6.234  1.00  0.00     0.074 A 
HETATM   34  F2  UNL     1      14.868  64.664   7.652  1.00  0.00    -0.203 F 
BRANCH  31  35
HETATM   35  O1  UNL     1      16.231  63.744   5.444  1.00  0.00    -0.353 OA
HETATM   36  C1  UNL     1      16.361  62.570   6.208  1.00  0.00     0.210 C 
ENDBRANCH  31  35
ENDBRANCH  25  28
ENDBRANCH   1  24
BRANCH   3  37
HETATM   37  S1  UNL     1       8.638  70.460   1.886  1.00  0.00     0.207 S 
HETATM   38  C9  UNL     1       7.747  71.969   2.109  1.00  0.00     0.180 C 
HETATM   39  O3  UNL     1      10.103  70.726   1.809  1.00  0.00    -0.212 OA
HETATM   40  O4  UNL     1       8.228  69.902   0.534  1.00  0.00    -0.212 OA
ENDBRANCH   3  37
TORSDOF 7
ENDMDL
