MODEL 12
REMARK VINA RESULT: -9.515152927      4.059      5.402
REMARK  7 active torsions:
REMARK  status: ('A' for Active; 'I' for Inactive)
REMARK    1  A    between atoms: O1_2  and  C2_3 
REMARK    2  A    between atoms: C5_6  and  N1_7 
REMARK       I    between atoms: N1_7  and  C6_9 
REMARK    3  A    between atoms: C6_9  and  C7_11 
REMARK    4  A    between atoms: N2_13  and  S1_14 
REMARK    5  A    between atoms: C11_19  and  C12_20 
REMARK       I    between atoms: C12_20  and  N3_22 
REMARK    6  A    between atoms: N3_22  and  C13_24 
REMARK    7  A    between atoms: C16_27  and  N4_28 
ROOT
HETATM    1  C7  UNL     1       9.905  65.512   1.607  1.00  0.00     0.106 C 
HETATM    2  C8  UNL     1      10.464  65.421   0.182  1.00  0.00     0.122 C 
HETATM    3  N2  UNL     1       9.323  65.225  -0.668  1.00  0.00    -0.209 NA
HETATM    4  C10 UNL     1       8.150  65.089   0.136  1.00  0.00     0.122 C 
HETATM    5  C11 UNL     1       8.697  64.645   1.476  1.00  0.00     0.106 C 
ENDROOT
BRANCH   5   6
HETATM    6  C12 UNL     1       7.716  64.852   2.577  1.00  0.00     0.228 C 
HETATM    7  O5  UNL     1       7.872  65.794   3.365  1.00  0.00    -0.273 OA
HETATM    8  N3  UNL     1       6.618  63.981   2.718  1.00  0.00    -0.324 N 
ATOM      9  H3  UNL     1       6.544  63.225   2.038  1.00  0.00     0.169 HD
BRANCH   8  10
HETATM   10  C13 UNL     1       5.607  64.046   3.705  1.00  0.00     0.073 A 
HETATM   11  C14 UNL     1       4.481  64.798   3.656  1.00  0.00     0.035 A 
HETATM   12  C15 UNL     1       3.537  64.796   4.685  1.00  0.00     0.032 A 
HETATM   13  C16 UNL     1       3.739  64.013   5.791  1.00  0.00     0.045 A 
HETATM   14  C22 UNL     1       4.858  63.249   5.870  1.00  0.00     0.074 A 
HETATM   15  C23 UNL     1       5.782  63.264   4.839  1.00  0.00     0.145 A 
HETATM   16  F1  UNL     1       6.876  62.479   4.982  1.00  0.00    -0.204 F 
BRANCH  13  17
HETATM   17  N4  UNL     1       2.773  64.021   6.829  1.00  0.00    -0.290 N 
HETATM   18  C17 UNL     1       1.736  63.138   6.835  1.00  0.00     0.100 A 
HETATM   19  C18 UNL     1       0.816  63.182   7.869  1.00  0.00     0.018 A 
HETATM   20  C19 UNL     1       0.932  64.114   8.902  1.00  0.00     0.007 A 
HETATM   21  C20 UNL     1       1.985  64.994   8.877  1.00  0.00     0.075 A 
HETATM   22  C21 UNL     1       2.870  64.917   7.840  1.00  0.00     0.252 A 
HETATM   23  O6  UNL     1       3.841  65.731   7.818  1.00  0.00    -0.268 OA
ENDBRANCH  13  17
ENDBRANCH   8  10
ENDBRANCH   5   6
BRANCH   1  24
HETATM   24  C6  UNL     1      10.891  65.005   2.604  1.00  0.00     0.228 C 
HETATM   25  N1  UNL     1      12.022  65.722   2.990  1.00  0.00    -0.327 N 
ATOM     26  H1  UNL     1      12.163  66.637   2.560  1.00  0.00     0.169 HD
HETATM   27  O2  UNL     1      10.642  63.882   3.083  1.00  0.00    -0.273 OA
BRANCH  25  28
HETATM   28  C5  UNL     1      12.982  65.295   3.916  1.00  0.00     0.037 A 
HETATM   29  C4  UNL     1      14.103  64.568   3.639  1.00  0.00     0.032 A 
HETATM   30  C3  UNL     1      15.006  64.168   4.599  1.00  0.00     0.042 A 
HETATM   31  C2  UNL     1      14.785  64.508   5.908  1.00  0.00     0.106 A 
HETATM   32  C25 UNL     1      13.650  65.254   6.255  1.00  0.00     0.151 A 
HETATM   33  C24 UNL     1      12.794  65.622   5.269  1.00  0.00     0.074 A 
HETATM   34  F2  UNL     1      13.434  65.589   7.555  1.00  0.00    -0.203 F 
BRANCH  31  35
HETATM   35  O1  UNL     1      15.666  64.123   6.883  1.00  0.00    -0.353 OA
HETATM   36  C1  UNL     1      16.236  62.837   6.869  1.00  0.00     0.210 C 
ENDBRANCH  31  35
ENDBRANCH  25  28
ENDBRANCH   1  24
BRANCH   3  37
HETATM   37  S1  UNL     1       9.549  63.949  -1.795  1.00  0.00     0.207 S 
HETATM   38  C9  UNL     1       9.908  64.530  -3.424  1.00  0.00     0.180 C 
HETATM   39  O3  UNL     1      10.584  62.973  -1.351  1.00  0.00    -0.212 OA
HETATM   40  O4  UNL     1       8.240  63.184  -1.879  1.00  0.00    -0.212 OA
ENDBRANCH   3  37
TORSDOF 7
ENDMDL
