MODEL 13
REMARK VINA RESULT: -8.986252883      4.220      5.594
REMARK  7 active torsions:
REMARK  status: ('A' for Active; 'I' for Inactive)
REMARK    1  A    between atoms: O1_2  and  C2_3 
REMARK    2  A    between atoms: C5_6  and  N1_7 
REMARK       I    between atoms: N1_7  and  C6_9 
REMARK    3  A    between atoms: C6_9  and  C7_11 
REMARK    4  A    between atoms: N2_13  and  S1_14 
REMARK    5  A    between atoms: C11_19  and  C12_20 
REMARK       I    between atoms: C12_20  and  N3_22 
REMARK    6  A    between atoms: N3_22  and  C13_24 
REMARK    7  A    between atoms: C16_27  and  N4_28 
ROOT
HETATM    1  C7  UNL     1       9.289  65.556   1.078  1.00  0.00     0.106 C 
HETATM    2  C8  UNL     1       9.766  65.454  -0.376  1.00  0.00     0.122 C 
HETATM    3  N2  UNL     1       8.584  65.216  -1.155  1.00  0.00    -0.209 NA
HETATM    4  C10 UNL     1       7.463  65.065  -0.282  1.00  0.00     0.122 C 
HETATM    5  C11 UNL     1       8.097  64.657   1.030  1.00  0.00     0.106 C 
ENDROOT
BRANCH   5   6
HETATM    6  C12 UNL     1       7.176  64.860   2.183  1.00  0.00     0.228 C 
HETATM    7  O5  UNL     1       7.284  65.877   2.880  1.00  0.00    -0.273 OA
HETATM    8  N3  UNL     1       6.190  63.897   2.477  1.00  0.00    -0.324 N 
ATOM      9  H3  UNL     1       6.151  63.082   1.866  1.00  0.00     0.169 HD
BRANCH   8  10
HETATM   10  C13 UNL     1       5.247  63.946   3.529  1.00  0.00     0.073 A 
HETATM   11  C14 UNL     1       4.012  64.501   3.480  1.00  0.00     0.035 A 
HETATM   12  C15 UNL     1       3.148  64.500   4.577  1.00  0.00     0.032 A 
HETATM   13  C16 UNL     1       3.547  63.922   5.755  1.00  0.00     0.045 A 
HETATM   14  C22 UNL     1       4.779  63.358   5.836  1.00  0.00     0.074 A 
HETATM   15  C23 UNL     1       5.620  63.369   4.736  1.00  0.00     0.145 A 
HETATM   16  F1  UNL     1       6.835  62.790   4.886  1.00  0.00    -0.204 F 
BRANCH  13  17
HETATM   17  N4  UNL     1       2.661  63.928   6.862  1.00  0.00    -0.290 N 
HETATM   18  C17 UNL     1       1.705  62.969   7.007  1.00  0.00     0.100 A 
HETATM   19  C18 UNL     1       0.861  63.015   8.104  1.00  0.00     0.018 A 
HETATM   20  C19 UNL     1       0.973  64.025   9.061  1.00  0.00     0.007 A 
HETATM   21  C20 UNL     1       1.944  64.981   8.896  1.00  0.00     0.075 A 
HETATM   22  C21 UNL     1       2.755  64.900   7.801  1.00  0.00     0.252 A 
HETATM   23  O6  UNL     1       3.650  65.784   7.650  1.00  0.00    -0.268 OA
ENDBRANCH  13  17
ENDBRANCH   8  10
ENDBRANCH   5   6
BRANCH   1  24
HETATM   24  C6  UNL     1      10.343  65.089   2.023  1.00  0.00     0.228 C 
HETATM   25  N1  UNL     1      11.375  65.908   2.478  1.00  0.00    -0.327 N 
ATOM     26  H1  UNL     1      11.390  66.871   2.138  1.00  0.00     0.169 HD
HETATM   27  O2  UNL     1      10.248  63.902   2.392  1.00  0.00    -0.273 OA
BRANCH  25  28
HETATM   28  C5  UNL     1      12.392  65.524   3.361  1.00  0.00     0.037 A 
HETATM   29  C4  UNL     1      12.452  65.810   4.695  1.00  0.00     0.032 A 
HETATM   30  C3  UNL     1      13.487  65.411   5.510  1.00  0.00     0.042 A 
HETATM   31  C2  UNL     1      14.522  64.690   4.975  1.00  0.00     0.106 A 
HETATM   32  C25 UNL     1      14.516  64.365   3.610  1.00  0.00     0.151 A 
HETATM   33  C24 UNL     1      13.471  64.783   2.853  1.00  0.00     0.074 A 
HETATM   34  F2  UNL     1      15.544  63.649   3.083  1.00  0.00    -0.203 F 
BRANCH  31  35
HETATM   35  O1  UNL     1      15.564  64.280   5.763  1.00  0.00    -0.353 OA
HETATM   36  C1  UNL     1      15.359  63.970   7.120  1.00  0.00     0.210 C 
ENDBRANCH  31  35
ENDBRANCH  25  28
ENDBRANCH   1  24
BRANCH   3  37
HETATM   37  S1  UNL     1       8.776  63.927  -2.274  1.00  0.00     0.207 S 
HETATM   38  C9  UNL     1       8.575  64.442  -3.952  1.00  0.00     0.180 C 
HETATM   39  O3  UNL     1      10.072  63.211  -2.101  1.00  0.00    -0.212 OA
HETATM   40  O4  UNL     1       7.680  62.915  -1.989  1.00  0.00    -0.212 OA
ENDBRANCH   3  37
TORSDOF 7
ENDMDL
