MODEL 1
REMARK VINA RESULT: -11.402724303      0.000      0.000
REMARK  7 active torsions:
REMARK  status: ('A' for Active; 'I' for Inactive)
REMARK    1  A    between atoms: O1_2  and  C2_3 
REMARK    2  A    between atoms: C5_6  and  N1_7 
REMARK       I    between atoms: N1_7  and  C6_9 
REMARK    3  A    between atoms: C6_9  and  C7_11 
REMARK    4  A    between atoms: N2_13  and  S1_14 
REMARK    5  A    between atoms: C11_19  and  C12_20 
REMARK       I    between atoms: C12_20  and  N3_22 
REMARK    6  A    between atoms: N3_22  and  C13_24 
REMARK    7  A    between atoms: C16_27  and  N4_28 
ROOT
HETATM    1  C7  UNL     1       9.333  67.087   3.696  1.00  0.00     0.106 C 
HETATM    2  C8  UNL     1       9.387  68.617   3.783  1.00  0.00     0.122 C 
HETATM    3  N2  UNL     1       8.246  69.086   3.048  1.00  0.00    -0.209 NA
HETATM    4  C10 UNL     1       7.579  67.974   2.447  1.00  0.00     0.122 C 
HETATM    5  C11 UNL     1       8.661  66.919   2.373  1.00  0.00     0.106 C 
ENDROOT
BRANCH   5   6
HETATM    6  C12 UNL     1       8.098  65.553   2.182  1.00  0.00     0.228 C 
HETATM    7  O5  UNL     1       7.174  65.380   1.377  1.00  0.00    -0.273 OA
HETATM    8  N3  UNL     1       8.617  64.467   2.914  1.00  0.00    -0.324 N 
ATOM      9  H3  UNL     1       9.378  64.673   3.561  1.00  0.00     0.169 HD
BRANCH   8  10
HETATM   10  C13 UNL     1       8.192  63.120   2.844  1.00  0.00     0.073 A 
HETATM   11  C14 UNL     1       8.668  62.168   2.005  1.00  0.00     0.035 A 
HETATM   12  C15 UNL     1       8.183  60.858   2.010  1.00  0.00     0.032 A 
HETATM   13  C16 UNL     1       7.191  60.505   2.888  1.00  0.00     0.045 A 
HETATM   14  C22 UNL     1       6.694  61.436   3.740  1.00  0.00     0.074 A 
HETATM   15  C23 UNL     1       7.189  62.729   3.720  1.00  0.00     0.145 A 
HETATM   16  F1  UNL     1       6.647  63.608   4.597  1.00  0.00    -0.204 F 
BRANCH  13  17
HETATM   17  N4  UNL     1       6.707  59.172   2.883  1.00  0.00    -0.290 N 
HETATM   18  C17 UNL     1       7.273  58.212   3.666  1.00  0.00     0.100 A 
HETATM   19  C18 UNL     1       6.768  56.923   3.628  1.00  0.00     0.018 A 
HETATM   20  C19 UNL     1       5.692  56.592   2.803  1.00  0.00     0.007 A 
HETATM   21  C20 UNL     1       5.136  57.575   2.022  1.00  0.00     0.075 A 
HETATM   22  C21 UNL     1       5.663  58.832   2.089  1.00  0.00     0.252 A 
HETATM   23  O6  UNL     1       5.149  59.737   1.367  1.00  0.00    -0.268 OA
ENDBRANCH  13  17
ENDBRANCH   8  10
ENDBRANCH   5   6
BRANCH   1  24
HETATM   24  C6  UNL     1      10.702  66.498   3.743  1.00  0.00     0.228 C 
HETATM   25  N1  UNL     1      11.290  66.031   4.917  1.00  0.00    -0.327 N 
ATOM     26  H1  UNL     1      10.742  66.102   5.774  1.00  0.00     0.169 HD
HETATM   27  O2  UNL     1      11.302  66.443   2.652  1.00  0.00    -0.273 OA
BRANCH  25  28
HETATM   28  C5  UNL     1      12.571  65.472   5.020  1.00  0.00     0.037 A 
HETATM   29  C4  UNL     1      13.355  65.054   3.984  1.00  0.00     0.032 A 
HETATM   30  C3  UNL     1      14.605  64.501   4.152  1.00  0.00     0.042 A 
HETATM   31  C2  UNL     1      15.107  64.355   5.419  1.00  0.00     0.106 A 
HETATM   32  C25 UNL     1      14.348  64.766   6.524  1.00  0.00     0.151 A 
HETATM   33  C24 UNL     1      13.123  65.304   6.300  1.00  0.00     0.074 A 
HETATM   34  F2  UNL     1      14.850  64.619   7.779  1.00  0.00    -0.203 F 
BRANCH  31  35
HETATM   35  O1  UNL     1      16.347  63.808   5.615  1.00  0.00    -0.353 OA
HETATM   36  C1  UNL     1      16.502  62.638   6.381  1.00  0.00     0.210 C 
ENDBRANCH  31  35
ENDBRANCH  25  28
ENDBRANCH   1  24
BRANCH   3  37
HETATM   37  S1  UNL     1       8.640  70.343   1.947  1.00  0.00     0.207 S 
HETATM   38  C9  UNL     1       7.737  71.830   2.254  1.00  0.00     0.180 C 
HETATM   39  O3  UNL     1      10.103  70.622   1.900  1.00  0.00    -0.212 OA
HETATM   40  O4  UNL     1       8.246  69.868   0.559  1.00  0.00    -0.212 OA
ENDBRANCH   3  37
TORSDOF 7
ENDMDL
