MODEL 15
REMARK VINA RESULT: -8.850441945      4.145      5.537
REMARK  7 active torsions:
REMARK  status: ('A' for Active; 'I' for Inactive)
REMARK    1  A    between atoms: O1_2  and  C2_3 
REMARK    2  A    between atoms: C5_6  and  N1_7 
REMARK       I    between atoms: N1_7  and  C6_9 
REMARK    3  A    between atoms: C6_9  and  C7_11 
REMARK    4  A    between atoms: N2_13  and  S1_14 
REMARK    5  A    between atoms: C11_19  and  C12_20 
REMARK       I    between atoms: C12_20  and  N3_22 
REMARK    6  A    between atoms: N3_22  and  C13_24 
REMARK    7  A    between atoms: C16_27  and  N4_28 
ROOT
HETATM    1  C7  UNL     1       9.532  64.945   0.609  1.00  0.00     0.106 C 
HETATM    2  C8  UNL     1       9.954  65.282  -0.826  1.00  0.00     0.122 C 
HETATM    3  N2  UNL     1       8.847  64.898  -1.655  1.00  0.00    -0.209 NA
HETATM    4  C10 UNL     1       7.848  64.269  -0.850  1.00  0.00     0.122 C 
HETATM    5  C11 UNL     1       8.626  63.786   0.355  1.00  0.00     0.106 C 
ENDROOT
BRANCH   5   6
HETATM    6  C12 UNL     1       7.737  63.485   1.511  1.00  0.00     0.228 C 
HETATM    7  O5  UNL     1       7.654  62.325   1.934  1.00  0.00    -0.273 OA
HETATM    8  N3  UNL     1       6.995  64.517   2.119  1.00  0.00    -0.324 N 
ATOM      9  H3  UNL     1       7.106  65.452   1.727  1.00  0.00     0.169 HD
BRANCH   8  10
HETATM   10  C13 UNL     1       6.114  64.392   3.218  1.00  0.00     0.073 A 
HETATM   11  C14 UNL     1       6.307  63.632   4.323  1.00  0.00     0.035 A 
HETATM   12  C15 UNL     1       5.375  63.572   5.361  1.00  0.00     0.032 A 
HETATM   13  C16 UNL     1       4.218  64.303   5.277  1.00  0.00     0.045 A 
HETATM   14  C22 UNL     1       3.995  65.073   4.183  1.00  0.00     0.074 A 
HETATM   15  C23 UNL     1       4.933  65.119   3.164  1.00  0.00     0.145 A 
HETATM   16  F1  UNL     1       4.647  65.908   2.102  1.00  0.00    -0.204 F 
BRANCH  13  17
HETATM   17  N4  UNL     1       3.279  64.233   6.337  1.00  0.00    -0.290 N 
HETATM   18  C17 UNL     1       2.240  63.353   6.304  1.00  0.00     0.100 A 
HETATM   19  C18 UNL     1       1.347  63.320   7.362  1.00  0.00     0.018 A 
HETATM   20  C19 UNL     1       1.493  64.171   8.459  1.00  0.00     0.007 A 
HETATM   21  C20 UNL     1       2.547  65.049   8.472  1.00  0.00     0.075 A 
HETATM   22  C21 UNL     1       3.405  65.050   7.411  1.00  0.00     0.252 A 
HETATM   23  O6  UNL     1       4.377  65.862   7.425  1.00  0.00    -0.268 OA
ENDBRANCH  13  17
ENDBRANCH   8  10
ENDBRANCH   5   6
BRANCH   1  24
HETATM   24  C6  UNL     1      10.714  64.598   1.449  1.00  0.00     0.228 C 
HETATM   25  N1  UNL     1      11.358  65.518   2.274  1.00  0.00    -0.327 N 
ATOM     26  H1  UNL     1      10.987  66.468   2.292  1.00  0.00     0.169 HD
HETATM   27  O2  UNL     1      11.100  63.415   1.372  1.00  0.00    -0.273 OA
BRANCH  25  28
HETATM   28  C5  UNL     1      12.471  65.249   3.081  1.00  0.00     0.037 A 
HETATM   29  C4  UNL     1      13.616  64.614   2.692  1.00  0.00     0.032 A 
HETATM   30  C3  UNL     1      14.674  64.370   3.537  1.00  0.00     0.042 A 
HETATM   31  C2  UNL     1      14.595  64.778   4.843  1.00  0.00     0.106 A 
HETATM   32  C25 UNL     1      13.445  65.436   5.302  1.00  0.00     0.151 A 
HETATM   33  C24 UNL     1      12.433  65.650   4.426  1.00  0.00     0.074 A 
HETATM   34  F2  UNL     1      13.371  65.839   6.599  1.00  0.00    -0.203 F 
BRANCH  31  35
HETATM   35  O1  UNL     1      15.634  64.548   5.706  1.00  0.00    -0.353 OA
HETATM   36  C1  UNL     1      15.716  63.340   6.423  1.00  0.00     0.210 C 
ENDBRANCH  31  35
ENDBRANCH  25  28
ENDBRANCH   1  24
BRANCH   3  37
HETATM   37  S1  UNL     1       9.330  63.972  -3.018  1.00  0.00     0.207 S 
HETATM   38  C9  UNL     1       9.562  64.956  -4.467  1.00  0.00     0.180 C 
HETATM   39  O3  UNL     1      10.544  63.150  -2.748  1.00  0.00    -0.212 OA
HETATM   40  O4  UNL     1       8.206  62.997  -3.323  1.00  0.00    -0.212 OA
ENDBRANCH   3  37
TORSDOF 7
ENDMDL
