MODEL 1
REMARK VINA RESULT: -8.702810489      0.000      0.000
REMARK  7 active torsions:
REMARK  status: ('A' for Active; 'I' for Inactive)
REMARK       I    between atoms: C1_2  and  N1_3 
REMARK    1  A    between atoms: C1_2  and  C8_12 
REMARK    2  A    between atoms: N1_3  and  C2_5 
REMARK    3  A    between atoms: N2_14  and  C10_15 
REMARK    4  A    between atoms: C10_15  and  C11_16 
REMARK    5  A    between atoms: C13_21  and  C14_22 
REMARK       I    between atoms: C14_22  and  N3_24 
REMARK    6  A    between atoms: N3_24  and  C15_26 
REMARK    7  A    between atoms: C18_29  and  N4_30 
ROOT
HETATM    1  C8  UNL     1      -4.608  14.088  22.847  1.00  0.00     0.121 C 
HETATM    2  C9  UNL     1      -3.630  13.866  23.986  1.00  0.00     0.287 C 
HETATM    3  N2  UNL     1      -3.881  12.531  24.469  1.00  0.00     0.098 N 
HETATM    4  C12 UNL     1      -5.293  12.367  24.304  1.00  0.00     0.287 C 
HETATM    5  C13 UNL     1      -5.709  13.100  23.063  1.00  0.00     0.121 C 
ENDROOT
BRANCH   5   6
HETATM    6  C14 UNL     1      -5.849  12.150  21.914  1.00  0.00     0.229 C 
HETATM    7  O2  UNL     1      -5.934  12.609  20.773  1.00  0.00    -0.273 OA
HETATM    8  N3  UNL     1      -5.883  10.766  22.155  1.00  0.00    -0.324 N 
ATOM      9  H3  UNL     1      -5.807  10.472  23.129  1.00  0.00     0.169 HD
BRANCH   8  10
HETATM   10  C15 UNL     1      -6.009   9.738  21.193  1.00  0.00     0.073 A 
HETATM   11  C16 UNL     1      -4.974   9.336  20.398  1.00  0.00     0.035 A 
HETATM   12  C17 UNL     1      -5.154   8.307  19.456  1.00  0.00     0.032 A 
HETATM   13  C18 UNL     1      -6.361   7.670  19.295  1.00  0.00     0.045 A 
HETATM   14  C24 UNL     1      -7.401   8.083  20.100  1.00  0.00     0.074 A 
HETATM   15  C25 UNL     1      -7.245   9.085  21.027  1.00  0.00     0.145 A 
HETATM   16  F4  UNL     1      -8.288   9.483  21.818  1.00  0.00    -0.204 F 
BRANCH  13  17
HETATM   17  N4  UNL     1      -6.494   6.637  18.329  1.00  0.00    -0.290 N 
HETATM   18  C19 UNL     1      -6.335   5.332  18.611  1.00  0.00     0.100 A 
HETATM   19  C20 UNL     1      -6.471   4.350  17.647  1.00  0.00     0.018 A 
HETATM   20  C21 UNL     1      -6.779   4.705  16.354  1.00  0.00     0.007 A 
HETATM   21  C22 UNL     1      -6.942   6.024  16.062  1.00  0.00     0.075 A 
HETATM   22  C23 UNL     1      -6.796   6.963  17.060  1.00  0.00     0.252 A 
HETATM   23  O3  UNL     1      -6.953   8.174  16.756  1.00  0.00    -0.268 OA
ENDBRANCH  13  17
ENDBRANCH   8  10
ENDBRANCH   5   6
BRANCH   1  24
HETATM   24  C1  UNL     1      -5.147  15.480  23.038  1.00  0.00     0.229 C 
HETATM   25  O1  UNL     1      -6.112  15.834  22.352  1.00  0.00    -0.273 OA
HETATM   26  N1  UNL     1      -4.559  16.350  23.979  1.00  0.00    -0.327 N 
ATOM     27  H1  UNL     1      -3.764  15.996  24.510  1.00  0.00     0.169 HD
BRANCH  26  28
HETATM   28  C2  UNL     1      -4.980  17.670  24.247  1.00  0.00     0.034 A 
HETATM   29  C3  UNL     1      -5.927  17.883  25.258  1.00  0.00     0.031 A 
HETATM   30  C4  UNL     1      -6.410  19.125  25.587  1.00  0.00     0.026 A 
HETATM   31  C5  UNL     1      -5.983  20.253  24.931  1.00  0.00     0.034 A 
HETATM   32 CL1  UNL     1      -6.611  21.836  25.363  1.00  0.00    -0.084 Cl
HETATM   33  C6  UNL     1      -5.058  20.077  23.936  1.00  0.00     0.026 A 
HETATM   34  C7  UNL     1      -4.564  18.806  23.600  1.00  0.00     0.031 A 
ENDBRANCH  26  28
ENDBRANCH   1  24
BRANCH   3  35
HETATM   35  C10 UNL     1      -3.085  11.536  23.813  1.00  0.00     0.389 C 
BRANCH  35  36
HETATM   36  C11 UNL     1      -1.923  11.147  24.733  1.00  0.00     0.413 C 
HETATM   37  F1  UNL     1      -2.331  11.437  26.029  1.00  0.00    -0.169 F 
HETATM   38  F2  UNL     1      -1.751   9.777  24.654  1.00  0.00    -0.169 F 
HETATM   39  F3  UNL     1      -0.759  11.764  24.387  1.00  0.00    -0.169 F 
ENDBRANCH  35  36
ENDBRANCH   3  35
TORSDOF 7
ENDMDL
