MODEL 2
REMARK VINA RESULT: -8.669171472      0.781      1.339
REMARK  7 active torsions:
REMARK  status: ('A' for Active; 'I' for Inactive)
REMARK       I    between atoms: C1_2  and  N1_3 
REMARK    1  A    between atoms: C1_2  and  C8_12 
REMARK    2  A    between atoms: N1_3  and  C2_5 
REMARK    3  A    between atoms: N2_14  and  C10_15 
REMARK    4  A    between atoms: C10_15  and  C11_16 
REMARK    5  A    between atoms: C13_21  and  C14_22 
REMARK       I    between atoms: C14_22  and  N3_24 
REMARK    6  A    between atoms: N3_24  and  C15_26 
REMARK    7  A    between atoms: C18_29  and  N4_30 
ROOT
HETATM    1  C8  UNL     1      -4.694  14.194  22.837  1.00  0.00     0.121 C 
HETATM    2  C9  UNL     1      -3.674  13.993  23.942  1.00  0.00     0.287 C 
HETATM    3  N2  UNL     1      -3.877  12.653  24.430  1.00  0.00     0.098 N 
HETATM    4  C12 UNL     1      -5.289  12.454  24.311  1.00  0.00     0.287 C 
HETATM    5  C13 UNL     1      -5.763  13.178  23.086  1.00  0.00     0.121 C 
ENDROOT
BRANCH   5   6
HETATM    6  C14 UNL     1      -5.918  12.228  21.940  1.00  0.00     0.229 C 
HETATM    7  O2  UNL     1      -5.982  12.683  20.797  1.00  0.00    -0.273 OA
HETATM    8  N3  UNL     1      -5.988  10.846  22.187  1.00  0.00    -0.324 N 
ATOM      9  H3  UNL     1      -5.928  10.554  23.163  1.00  0.00     0.169 HD
BRANCH   8  10
HETATM   10  C15 UNL     1      -6.133   9.817  21.229  1.00  0.00     0.073 A 
HETATM   11  C16 UNL     1      -7.337   9.243  20.934  1.00  0.00     0.035 A 
HETATM   12  C17 UNL     1      -7.425   8.221  19.972  1.00  0.00     0.032 A 
HETATM   13  C18 UNL     1      -6.321   7.761  19.294  1.00  0.00     0.045 A 
HETATM   14  C24 UNL     1      -5.110   8.344  19.598  1.00  0.00     0.074 A 
HETATM   15  C25 UNL     1      -5.003   9.345  20.535  1.00  0.00     0.145 A 
HETATM   16  F4  UNL     1      -3.792   9.913  20.824  1.00  0.00    -0.204 F 
BRANCH  13  17
HETATM   17  N4  UNL     1      -6.460   6.726  18.331  1.00  0.00    -0.290 N 
HETATM   18  C19 UNL     1      -6.383   5.418  18.630  1.00  0.00     0.100 A 
HETATM   19  C20 UNL     1      -6.523   4.435  17.668  1.00  0.00     0.018 A 
HETATM   20  C21 UNL     1      -6.748   4.791  16.358  1.00  0.00     0.007 A 
HETATM   21  C22 UNL     1      -6.827   6.114  16.049  1.00  0.00     0.075 A 
HETATM   22  C23 UNL     1      -6.681   7.055  17.045  1.00  0.00     0.252 A 
HETATM   23  O3  UNL     1      -6.759   8.269  16.724  1.00  0.00    -0.268 OA
ENDBRANCH  13  17
ENDBRANCH   8  10
ENDBRANCH   5   6
BRANCH   1  24
HETATM   24  C1  UNL     1      -5.260  15.571  23.049  1.00  0.00     0.229 C 
HETATM   25  O1  UNL     1      -6.213  15.928  22.347  1.00  0.00    -0.273 OA
HETATM   26  N1  UNL     1      -4.711  16.427  24.027  1.00  0.00    -0.327 N 
ATOM     27  H1  UNL     1      -3.924  16.071  24.569  1.00  0.00     0.169 HD
BRANCH  26  28
HETATM   28  C2  UNL     1      -5.161  17.732  24.316  1.00  0.00     0.034 A 
HETATM   29  C3  UNL     1      -4.589  18.810  23.626  1.00  0.00     0.031 A 
HETATM   30  C4  UNL     1      -4.948  20.117  23.843  1.00  0.00     0.026 A 
HETATM   31  C5  UNL     1      -5.907  20.450  24.768  1.00  0.00     0.034 A 
HETATM   32 CL1  UNL     1      -6.354  22.127  25.034  1.00  0.00    -0.084 Cl
HETATM   33  C6  UNL     1      -6.484  19.417  25.459  1.00  0.00     0.026 A 
HETATM   34  C7  UNL     1      -6.116  18.080  25.237  1.00  0.00     0.031 A 
ENDBRANCH  26  28
ENDBRANCH   1  24
BRANCH   3  35
HETATM   35  C10 UNL     1      -3.078  11.678  23.745  1.00  0.00     0.389 C 
BRANCH  35  36
HETATM   36  C11 UNL     1      -1.903  11.282  24.645  1.00  0.00     0.413 C 
HETATM   37  F1  UNL     1      -2.289  11.569  25.949  1.00  0.00    -0.169 F 
HETATM   38  F2  UNL     1      -1.739   9.911  24.560  1.00  0.00    -0.169 F 
HETATM   39  F3  UNL     1      -0.743  11.895  24.283  1.00  0.00    -0.169 F 
ENDBRANCH  35  36
ENDBRANCH   3  35
TORSDOF 7
ENDMDL
