MODEL 3
REMARK VINA RESULT: -8.652955627      0.844      1.130
REMARK  7 active torsions:
REMARK  status: ('A' for Active; 'I' for Inactive)
REMARK       I    between atoms: C1_2  and  N1_3 
REMARK    1  A    between atoms: C1_2  and  C8_12 
REMARK    2  A    between atoms: N1_3  and  C2_5 
REMARK    3  A    between atoms: N2_14  and  C10_15 
REMARK    4  A    between atoms: C10_15  and  C11_16 
REMARK    5  A    between atoms: C13_21  and  C14_22 
REMARK       I    between atoms: C14_22  and  N3_24 
REMARK    6  A    between atoms: N3_24  and  C15_26 
REMARK    7  A    between atoms: C18_29  and  N4_30 
ROOT
HETATM    1  C8  UNL     1      -4.277  13.918  23.045  1.00  0.00     0.121 C 
HETATM    2  C9  UNL     1      -3.409  13.597  24.247  1.00  0.00     0.287 C 
HETATM    3  N2  UNL     1      -3.819  12.290  24.695  1.00  0.00     0.098 N 
HETATM    4  C12 UNL     1      -5.225  12.261  24.428  1.00  0.00     0.287 C 
HETATM    5  C13 UNL     1      -5.479  13.037  23.170  1.00  0.00     0.121 C 
ENDROOT
BRANCH   5   6
HETATM    6  C14 UNL     1      -5.626  12.112  22.003  1.00  0.00     0.229 C 
HETATM    7  O2  UNL     1      -5.602  12.585  20.865  1.00  0.00    -0.273 OA
HETATM    8  N3  UNL     1      -5.787  10.733  22.223  1.00  0.00    -0.324 N 
ATOM      9  H3  UNL     1      -5.797  10.426  23.196  1.00  0.00     0.169 HD
BRANCH   8  10
HETATM   10  C15 UNL     1      -5.938   9.727  21.242  1.00  0.00     0.073 A 
HETATM   11  C16 UNL     1      -4.913   9.317  20.437  1.00  0.00     0.035 A 
HETATM   12  C17 UNL     1      -5.117   8.311  19.476  1.00  0.00     0.032 A 
HETATM   13  C18 UNL     1      -6.339   7.704  19.305  1.00  0.00     0.045 A 
HETATM   14  C24 UNL     1      -7.368   8.124  20.120  1.00  0.00     0.074 A 
HETATM   15  C25 UNL     1      -7.188   9.105  21.065  1.00  0.00     0.145 A 
HETATM   16  F4  UNL     1      -8.221   9.510  21.866  1.00  0.00    -0.204 F 
BRANCH  13  17
HETATM   17  N4  UNL     1      -6.496   6.693  18.320  1.00  0.00    -0.290 N 
HETATM   18  C19 UNL     1      -6.378   5.378  18.579  1.00  0.00     0.100 A 
HETATM   19  C20 UNL     1      -6.537   4.419  17.597  1.00  0.00     0.018 A 
HETATM   20  C21 UNL     1      -6.826   4.805  16.308  1.00  0.00     0.007 A 
HETATM   21  C22 UNL     1      -6.947   6.134  16.040  1.00  0.00     0.075 A 
HETATM   22  C23 UNL     1      -6.779   7.050  17.055  1.00  0.00     0.252 A 
HETATM   23  O3  UNL     1      -6.897   8.271  16.772  1.00  0.00    -0.268 OA
ENDBRANCH  13  17
ENDBRANCH   8  10
ENDBRANCH   5   6
BRANCH   1  24
HETATM   24  C1  UNL     1      -4.695  15.353  23.214  1.00  0.00     0.229 C 
HETATM   25  O1  UNL     1      -3.998  16.232  22.695  1.00  0.00    -0.273 OA
HETATM   26  N1  UNL     1      -5.855  15.678  23.948  1.00  0.00    -0.327 N 
ATOM     27  H1  UNL     1      -6.383  14.905  24.353  1.00  0.00     0.169 HD
BRANCH  26  28
HETATM   28  C2  UNL     1      -6.344  16.982  24.169  1.00  0.00     0.034 A 
HETATM   29  C3  UNL     1      -5.930  17.672  25.316  1.00  0.00     0.031 A 
HETATM   30  C4  UNL     1      -6.357  18.939  25.627  1.00  0.00     0.026 A 
HETATM   31  C5  UNL     1      -7.233  19.617  24.815  1.00  0.00     0.034 A 
HETATM   32 CL1  UNL     1      -7.771  21.237  25.227  1.00  0.00    -0.084 Cl
HETATM   33  C6  UNL     1      -7.657  18.967  23.685  1.00  0.00     0.026 A 
HETATM   34  C7  UNL     1      -7.219  17.671  23.368  1.00  0.00     0.031 A 
ENDBRANCH  26  28
ENDBRANCH   1  24
BRANCH   3  35
HETATM   35  C10 UNL     1      -3.075  11.227  24.084  1.00  0.00     0.389 C 
BRANCH  35  36
HETATM   36  C11 UNL     1      -1.894  10.866  24.992  1.00  0.00     0.413 C 
HETATM   37  F1  UNL     1      -1.571   9.543  24.713  1.00  0.00    -0.169 F 
HETATM   38  F2  UNL     1      -0.810  11.639  24.616  1.00  0.00    -0.169 F 
HETATM   39  F3  UNL     1      -2.165  11.085  26.307  1.00  0.00    -0.169 F 
ENDBRANCH  35  36
ENDBRANCH   3  35
TORSDOF 7
ENDMDL
