MODEL 6
REMARK VINA RESULT: -5.587423488      5.045      9.270
REMARK  1 active torsions:
REMARK  status: ('A' for Active; 'I' for Inactive)
REMARK    1  A    between atoms: C5_6  and  C6_7 
ROOT
HETATM    1  C1  UNL     1      59.629 163.248  37.732  1.00  0.00     0.001 A 
HETATM    2  C2  UNL     1      59.717 164.513  37.172  1.00  0.00     0.003 A 
HETATM    3  C3  UNL     1      58.998 164.868  36.050  1.00  0.00     0.038 A 
HETATM    4  C4  UNL     1      58.166 163.937  35.465  1.00  0.00     0.086 A 
HETATM    5  O1  UNL     1      57.376 163.958  34.427  1.00  0.00    -0.306 OA
HETATM    6  C5  UNL     1      56.782 162.806  34.269  1.00  0.00     0.121 A 
HETATM    7  C9  UNL     1      57.188 161.937  35.259  1.00  0.00     0.055 A 
HETATM    8  C10 UNL     1      58.075 162.666  36.024  1.00  0.00     0.001 A 
HETATM    9  C11 UNL     1      58.798 162.325  37.144  1.00  0.00     0.014 A 
ENDROOT
BRANCH   6  10
HETATM   10  C6  UNL     1      55.832 162.494  33.203  1.00  0.00     0.139 A 
HETATM   11  N1  UNL     1      54.493 162.327  33.317  1.00  0.00    -0.349 N 
HETATM   12  C7  UNL     1      53.953 162.049  32.119  1.00  0.00     0.107 A 
ATOM     13  H1  UNL     1      53.968 162.403  34.189  1.00  0.00     0.167 HD
HETATM   14  C8  UNL     1      54.981 162.038  31.202  1.00  0.00     0.107 A 
HETATM   15  N2  UNL     1      56.099 162.309  31.894  1.00  0.00    -0.349 N 
ATOM     16  H2  UNL     1      57.031 162.369  31.482  1.00  0.00     0.167 HD
ENDBRANCH   6  10
TORSDOF 1
ENDMDL
