MODEL 4
REMARK VINA RESULT: -6.479374253      1.185      1.841
REMARK  1 active torsions:
REMARK  status: ('A' for Active; 'I' for Inactive)
REMARK    1  A    between atoms: C5_6  and  C6_7 
ROOT
HETATM    1  C1  UNL     1      47.905 160.402  29.457  1.00  0.00     0.001 A 
HETATM    2  C2  UNL     1      47.469 160.256  30.764  1.00  0.00     0.003 A 
HETATM    3  C3  UNL     1      48.304 160.464  31.842  1.00  0.00     0.038 A 
HETATM    4  C4  UNL     1      49.614 160.827  31.614  1.00  0.00     0.086 A 
HETATM    5  O1  UNL     1      50.627 161.088  32.393  1.00  0.00    -0.306 OA
HETATM    6  C5  UNL     1      51.687 161.393  31.695  1.00  0.00     0.121 A 
HETATM    7  C9  UNL     1      51.387 161.337  30.351  1.00  0.00     0.055 A 
HETATM    8  C10 UNL     1      50.056 160.974  30.304  1.00  0.00     0.001 A 
HETATM    9  C11 UNL     1      49.212 160.764  29.237  1.00  0.00     0.014 A 
ENDROOT
BRANCH   6  10
HETATM   10  C6  UNL     1      52.990 161.738  32.259  1.00  0.00     0.139 A 
HETATM   11  N1  UNL     1      53.524 162.975  32.399  1.00  0.00    -0.349 N 
HETATM   12  C7  UNL     1      54.742 162.898  32.960  1.00  0.00     0.107 A 
ATOM     13  H1  UNL     1      53.066 163.843  32.118  1.00  0.00     0.167 HD
HETATM   14  C8  UNL     1      54.999 161.564  33.191  1.00  0.00     0.107 A 
HETATM   15  N2  UNL     1      53.920 160.896  32.754  1.00  0.00    -0.349 N 
ATOM     16  H2  UNL     1      53.816 159.882  32.793  1.00  0.00     0.167 HD
ENDBRANCH   6  10
TORSDOF 1
ENDMDL
