MODEL 1
REMARK VINA RESULT: -8.631014306      0.000      0.000
REMARK  1 active torsions:
REMARK  status: ('A' for Active; 'I' for Inactive)
REMARK    1  A    between atoms: C5_6  and  C6_7 
ROOT
HETATM    1  C1  UNL     1      46.735 160.355  31.246  1.00  0.00     0.001 A 
HETATM    2  C2  UNL     1      47.052 160.234  29.903  1.00  0.00     0.003 A 
HETATM    3  C3  UNL     1      48.336 160.416  29.433  1.00  0.00     0.038 A 
HETATM    4  C4  UNL     1      49.337 160.730  30.328  1.00  0.00     0.086 A 
HETATM    5  O1  UNL     1      50.616 160.960  30.207  1.00  0.00    -0.306 OA
HETATM    6  C5  UNL     1      51.155 161.221  31.367  1.00  0.00     0.121 A 
HETATM    7  C9  UNL     1      50.188 161.168  32.348  1.00  0.00     0.055 A 
HETATM    8  C10 UNL     1      49.024 160.853  31.677  1.00  0.00     0.001 A 
HETATM    9  C11 UNL     1      47.738 160.668  32.133  1.00  0.00     0.014 A 
ENDROOT
BRANCH   6  10
HETATM   10  C6  UNL     1      52.568 161.521  31.584  1.00  0.00     0.139 A 
HETATM   11  N1  UNL     1      53.489 161.865  30.651  1.00  0.00    -0.349 N 
HETATM   12  C7  UNL     1      54.685 162.066  31.228  1.00  0.00     0.107 A 
ATOM     13  H1  UNL     1      53.301 161.958  29.653  1.00  0.00     0.167 HD
HETATM   14  C8  UNL     1      54.528 161.845  32.579  1.00  0.00     0.107 A 
HETATM   15  N2  UNL     1      53.238 161.518  32.755  1.00  0.00    -0.349 N 
ATOM     16  H2  UNL     1      52.818 161.296  33.658  1.00  0.00     0.167 HD
ENDBRANCH   6  10
TORSDOF 1
ENDMDL
