MODEL 3
REMARK VINA RESULT: -7.553421737      0.813      1.885
REMARK  1 active torsions:
REMARK  status: ('A' for Active; 'I' for Inactive)
REMARK    1  A    between atoms: C5_6  and  C6_7 
ROOT
HETATM    1  C1  UNL     1      47.302 160.399  29.137  1.00  0.00     0.001 A 
HETATM    2  C2  UNL     1      46.916 160.614  30.451  1.00  0.00     0.003 A 
HETATM    3  C3  UNL     1      47.830 160.883  31.448  1.00  0.00     0.038 A 
HETATM    4  C4  UNL     1      49.170 160.939  31.130  1.00  0.00     0.086 A 
HETATM    5  O1  UNL     1      50.253 161.164  31.822  1.00  0.00    -0.306 OA
HETATM    6  C5  UNL     1      51.313 161.112  31.062  1.00  0.00     0.121 A 
HETATM    7  C9  UNL     1      50.938 160.833  29.765  1.00  0.00     0.055 A 
HETATM    8  C10 UNL     1      49.562 160.724  29.813  1.00  0.00     0.001 A 
HETATM    9  C11 UNL     1      48.640 160.456  28.827  1.00  0.00     0.014 A 
ENDROOT
BRANCH   6  10
HETATM   10  C6  UNL     1      52.684 161.318  31.522  1.00  0.00     0.139 A 
HETATM   11  N1  UNL     1      53.118 161.410  32.802  1.00  0.00    -0.349 N 
HETATM   12  C7  UNL     1      54.447 161.601  32.832  1.00  0.00     0.107 A 
ATOM     13  H1  UNL     1      52.520 161.344  33.626  1.00  0.00     0.167 HD
HETATM   14  C8  UNL     1      54.884 161.631  31.526  1.00  0.00     0.107 A 
HETATM   15  N2  UNL     1      53.792 161.458  30.765  1.00  0.00    -0.349 N 
ATOM     16  H2  UNL     1      53.799 161.434  29.745  1.00  0.00     0.167 HD
ENDBRANCH   6  10
TORSDOF 1
ENDMDL
