MODEL 2
REMARK VINA RESULT: -8.526257620      0.696      1.536
REMARK  1 active torsions:
REMARK  status: ('A' for Active; 'I' for Inactive)
REMARK    1  A    between atoms: C5_6  and  C6_7 
ROOT
HETATM    1  C1  UNL     1      47.036 160.155  30.174  1.00  0.00     0.001 A 
HETATM    2  C2  UNL     1      46.854 160.396  31.526  1.00  0.00     0.003 A 
HETATM    3  C3  UNL     1      47.895 160.766  32.351  1.00  0.00     0.038 A 
HETATM    4  C4  UNL     1      49.159 160.897  31.815  1.00  0.00     0.086 A 
HETATM    5  O1  UNL     1      50.321 161.221  32.313  1.00  0.00    -0.306 OA
HETATM    6  C5  UNL     1      51.244 161.209  31.390  1.00  0.00     0.121 A 
HETATM    7  C9  UNL     1      50.684 160.854  30.181  1.00  0.00     0.055 A 
HETATM    8  C10 UNL     1      49.346 160.656  30.459  1.00  0.00     0.001 A 
HETATM    9  C11 UNL     1      48.298 160.288  29.646  1.00  0.00     0.014 A 
ENDROOT
BRANCH   6  10
HETATM   10  C6  UNL     1      52.653 161.525  31.612  1.00  0.00     0.139 A 
HETATM   11  N1  UNL     1      53.571 161.886  30.683  1.00  0.00    -0.349 N 
HETATM   12  C7  UNL     1      54.764 162.096  31.264  1.00  0.00     0.107 A 
ATOM     13  H1  UNL     1      53.383 161.984  29.686  1.00  0.00     0.167 HD
HETATM   14  C8  UNL     1      54.607 161.864  32.612  1.00  0.00     0.107 A 
HETATM   15  N2  UNL     1      53.321 161.521  32.784  1.00  0.00    -0.349 N 
ATOM     16  H2  UNL     1      52.902 161.287  33.684  1.00  0.00     0.167 HD
ENDBRANCH   6  10
TORSDOF 1
ENDMDL
