MODEL 7
REMARK VINA RESULT: -5.296527575      3.781      6.008
REMARK  1 active torsions:
REMARK  status: ('A' for Active; 'I' for Inactive)
REMARK    1  A    between atoms: C5_6  and  C6_7 
ROOT
HETATM    1  C1  UNL     1      49.153 160.861  32.986  1.00  0.00     0.001 A 
HETATM    2  C2  UNL     1      50.330 161.080  32.287  1.00  0.00     0.003 A 
HETATM    3  C3  UNL     1      50.373 161.082  30.908  1.00  0.00     0.038 A 
HETATM    4  C4  UNL     1      49.211 160.856  30.202  1.00  0.00     0.086 A 
HETATM    5  O1  UNL     1      48.925 160.795  28.930  1.00  0.00    -0.306 OA
HETATM    6  C5  UNL     1      47.655 160.552  28.748  1.00  0.00     0.121 A 
HETATM    7  C9  UNL     1      47.027 160.439  29.970  1.00  0.00     0.055 A 
HETATM    8  C10 UNL     1      48.028 160.636  30.900  1.00  0.00     0.001 A 
HETATM    9  C11 UNL     1      47.998 160.637  32.276  1.00  0.00     0.014 A 
ENDROOT
BRANCH   6  10
HETATM   10  C6  UNL     1      47.006 160.422  27.446  1.00  0.00     0.139 A 
HETATM   11  N1  UNL     1      46.508 161.416  26.672  1.00  0.00    -0.349 N 
HETATM   12  C7  UNL     1      45.987 160.911  25.541  1.00  0.00     0.107 A 
ATOM     13  H1  UNL     1      46.527 162.407  26.912  1.00  0.00     0.167 HD
HETATM   14  C8  UNL     1      46.156 159.545  25.590  1.00  0.00     0.107 A 
HETATM   15  N2  UNL     1      46.774 159.288  26.754  1.00  0.00    -0.349 N 
ATOM     16  H2  UNL     1      47.035 158.354  27.074  1.00  0.00     0.167 HD
ENDBRANCH   6  10
TORSDOF 1
ENDMDL
