MODEL 14
REMARK VINA RESULT: -5.004661121      1.169      1.700
REMARK  1 active torsions:
REMARK  status: ('A' for Active; 'I' for Inactive)
REMARK    1  A    between atoms: C5_6  and  C6_7 
ROOT
HETATM    1  C1  UNL     1      47.337 161.440  32.968  1.00  0.00     0.001 A 
HETATM    2  C2  UNL     1      47.384 160.393  32.062  1.00  0.00     0.003 A 
HETATM    3  C3  UNL     1      48.540 160.061  31.387  1.00  0.00     0.038 A 
HETATM    4  C4  UNL     1      49.685 160.793  31.619  1.00  0.00     0.086 A 
HETATM    5  O1  UNL     1      50.903 160.736  31.154  1.00  0.00    -0.306 OA
HETATM    6  C5  UNL     1      51.650 161.663  31.688  1.00  0.00     0.121 A 
HETATM    7  C9  UNL     1      50.901 162.407  32.574  1.00  0.00     0.055 A 
HETATM    8  C10 UNL     1      49.641 161.845  32.527  1.00  0.00     0.001 A 
HETATM    9  C11 UNL     1      48.481 162.167  33.195  1.00  0.00     0.014 A 
ENDROOT
BRANCH   6  10
HETATM   10  C6  UNL     1      53.064 161.875  31.386  1.00  0.00     0.139 A 
HETATM   11  N1  UNL     1      54.131 161.327  32.016  1.00  0.00    -0.349 N 
HETATM   12  C7  UNL     1      55.275 161.757  31.458  1.00  0.00     0.107 A 
ATOM     13  H1  UNL     1      54.074 160.679  32.802  1.00  0.00     0.167 HD
HETATM   14  C8  UNL     1      54.931 162.610  30.433  1.00  0.00     0.107 A 
HETATM   15  N2  UNL     1      53.590 162.657  30.421  1.00  0.00    -0.349 N 
ATOM     16  H2  UNL     1      53.039 163.212  29.766  1.00  0.00     0.167 HD
ENDBRANCH   6  10
TORSDOF 1
ENDMDL
