MODEL 5
REMARK VINA RESULT: -6.161631368      4.916      9.030
REMARK  1 active torsions:
REMARK  status: ('A' for Active; 'I' for Inactive)
REMARK    1  A    between atoms: C5_6  and  C6_7 
ROOT
HETATM    1  C1  UNL     1      59.579 163.178  37.643  1.00  0.00     0.001 A 
HETATM    2  C2  UNL     1      58.967 162.031  38.123  1.00  0.00     0.003 A 
HETATM    3  C3  UNL     1      57.952 161.400  37.434  1.00  0.00     0.038 A 
HETATM    4  C4  UNL     1      57.531 161.927  36.232  1.00  0.00     0.086 A 
HETATM    5  O1  UNL     1      56.621 161.580  35.363  1.00  0.00    -0.306 OA
HETATM    6  C5  UNL     1      56.594 162.411  34.357  1.00  0.00     0.121 A 
HETATM    7  C9  UNL     1      57.543 163.393  34.544  1.00  0.00     0.055 A 
HETATM    8  C10 UNL     1      58.142 163.078  35.747  1.00  0.00     0.001 A 
HETATM    9  C11 UNL     1      59.154 163.698  36.444  1.00  0.00     0.014 A 
ENDROOT
BRANCH   6  10
HETATM   10  C6  UNL     1      55.693 162.310  33.212  1.00  0.00     0.139 A 
HETATM   11  N1  UNL     1      56.032 162.169  31.908  1.00  0.00    -0.349 N 
HETATM   12  C7  UNL     1      54.929 162.110  31.142  1.00  0.00     0.107 A 
ATOM     13  H1  UNL     1      56.988 162.115  31.557  1.00  0.00     0.167 HD
HETATM   14  C8  UNL     1      53.844 162.216  31.984  1.00  0.00     0.107 A 
HETATM   15  N2  UNL     1      54.344 162.335  33.224  1.00  0.00    -0.349 N 
ATOM     16  H2  UNL     1      53.777 162.432  34.067  1.00  0.00     0.167 HD
ENDBRANCH   6  10
TORSDOF 1
ENDMDL
