MODEL 1
REMARK VINA RESULT: -10.522320976      0.000      0.000
REMARK  5 active torsions:
REMARK  status: ('A' for Active; 'I' for Inactive)
REMARK    1  A    between atoms: C3_3  and  C4_4 
REMARK    2  A    between atoms: C8_9  and  O1_10 
REMARK    3  A    between atoms: C9_12  and  O2_13 
REMARK    4  A    between atoms: C11_16  and  O3_17 
REMARK    5  A    between atoms: C11_16  and  C12_19 
ROOT
HETATM    1  C4  UNL     1     -25.053  47.980  15.483  1.00  0.00     0.005 A 
HETATM    2  C5  UNL     1     -25.314  48.036  14.140  1.00  0.00     0.030 A 
HETATM    3  C6  UNL     1     -24.244  48.037  13.307  1.00  0.00     0.004 A 
HETATM    4  C7  UNL     1     -23.009  47.982  13.872  1.00  0.00     0.024 A 
HETATM    5  S1  UNL     1     -23.350  47.930  15.540  1.00  0.00    -0.091 SA
HETATM    6  C8  UNL     1     -21.730  47.976  13.127  1.00  0.00     0.187 C 
HETATM    7  C9  UNL     1     -21.827  47.680  11.692  1.00  0.00     0.155 C 
HETATM    8  C10 UNL     1     -23.179  47.200  11.312  1.00  0.00     0.089 C 
HETATM    9  C11 UNL     1     -24.248  48.094  11.811  1.00  0.00     0.176 C 
ENDROOT
BRANCH   9  10
HETATM   10  O3  UNL     1     -25.505  47.602  11.361  1.00  0.00    -0.374 OA
ATOM     11  H3  UNL     1     -25.336  46.909  10.733  1.00  0.00     0.211 HD
ENDBRANCH   9  10
BRANCH   9  12
HETATM   12  C12 UNL     1     -24.122  49.525  11.464  1.00  0.00     0.214 C 
HETATM   13  O4  UNL     1     -23.300  50.339  11.933  1.00  0.00    -0.645 OA
HETATM   14  O5  UNL     1     -25.001  50.041  10.517  1.00  0.00    -0.645 OA
ENDBRANCH   9  12
BRANCH   7  15
HETATM   15  O2  UNL     1     -21.385  48.727  10.844  1.00  0.00    -0.393 OA
ATOM     16  H2  UNL     1     -20.575  48.544  10.381  1.00  0.00     0.210 HD
ENDBRANCH   7  15
BRANCH   1  17
HETATM   17  C3  UNL     1     -25.975  47.965  16.611  1.00  0.00     0.014 C 
HETATM   18  C2  UNL     1     -25.811  48.803  17.616  1.00  0.00    -0.030 C 
HETATM   19  C1  UNL     1     -26.730  48.817  18.782  1.00  0.00     0.036 C 
ENDBRANCH   1  17
BRANCH   6  20
HETATM   20  O1  UNL     1     -20.801  47.117  13.737  1.00  0.00    -0.388 OA
ATOM     21  H1  UNL     1     -20.298  47.578  14.398  1.00  0.00     0.210 HD
ENDBRANCH   6  20
TORSDOF 5
ENDMDL
