MODEL 6
REMARK VINA RESULT: -8.136424786      0.864      1.358
REMARK  7 active torsions:
REMARK  status: ('A' for Active; 'I' for Inactive)
REMARK    1  A    between atoms: C1_2  and  C2_4 
REMARK    2  A    between atoms: C2_4  and  O3_5 
REMARK    3  A    between atoms: C4_8  and  O4_9 
REMARK    4  A    between atoms: C5_11  and  O5_12 
REMARK    5  A    between atoms: C7_16  and  C8_17 
REMARK    6  A    between atoms: C8_17  and  C9_18 
REMARK    7  A    between atoms: C9_18  and  C10_19 
ROOT
HETATM    1  C2  UNL     1       2.460  12.259  24.188  1.00  0.00     0.176 C 
HETATM    2  C3  UNL     1       2.150  11.329  23.099  1.00  0.00     0.089 C 
HETATM    3  C4  UNL     1       1.051  11.695  22.163  1.00  0.00     0.155 C 
HETATM    4  C5  UNL     1       1.614  12.896  21.386  1.00  0.00     0.187 C 
HETATM    5  C6  UNL     1       1.898  13.913  22.432  1.00  0.00     0.024 A 
HETATM    6  S1  UNL     1       1.826  15.613  22.337  1.00  0.00    -0.096 SA
HETATM    7  C7  UNL     1       2.286  15.992  23.929  1.00  0.00    -0.016 A 
HETATM    8  C13 UNL     1       2.487  14.771  24.503  1.00  0.00     0.026 A 
HETATM    9  C14 UNL     1       2.282  13.687  23.712  1.00  0.00     0.003 A 
ENDROOT
BRANCH   1  10
HETATM   10  C1  UNL     1       1.670  11.964  25.370  1.00  0.00     0.214 C 
HETATM   11  O1  UNL     1       0.734  11.143  25.291  1.00  0.00    -0.645 OA
HETATM   12  O2  UNL     1       1.925  12.567  26.579  1.00  0.00    -0.645 OA
ENDBRANCH   1  10
BRANCH   1  13
HETATM   13  O3  UNL     1       3.827  12.085  24.520  1.00  0.00    -0.374 OA
ATOM     14  H3  UNL     1       4.174  12.928  24.786  1.00  0.00     0.211 HD
ENDBRANCH   1  13
BRANCH   3  15
HETATM   15  O4  UNL     1      -0.146  12.023  22.751  1.00  0.00    -0.393 OA
ATOM     16  H4  UNL     1      -0.923  11.710  22.303  1.00  0.00     0.210 HD
ENDBRANCH   3  15
BRANCH   4  17
HETATM   17  O5  UNL     1       2.824  12.531  20.814  1.00  0.00    -0.388 OA
ATOM     18  H5  UNL     1       3.424  13.265  20.873  1.00  0.00     0.210 HD
ENDBRANCH   4  17
BRANCH   7  19
HETATM   19  C8  UNL     1       2.433  17.352  24.541  1.00  0.00     0.046 C 
BRANCH  19  20
HETATM   20  C9  UNL     1       1.100  17.916  24.943  1.00  0.00     0.009 C 
BRANCH  20  21
HETATM   21  C10 UNL     1       0.880  17.915  26.426  1.00  0.00    -0.014 A 
HETATM   22  C11 UNL     1       1.030  16.677  27.226  1.00  0.00     0.005 A 
HETATM   23  C12 UNL     1       2.006  17.840  27.357  1.00  0.00     0.005 A 
ENDBRANCH  20  21
ENDBRANCH  19  20
ENDBRANCH   7  19
TORSDOF 7
ENDMDL
