MODEL 4
REMARK VINA RESULT: -8.758448533      0.817      1.227
REMARK  7 active torsions:
REMARK  status: ('A' for Active; 'I' for Inactive)
REMARK    1  A    between atoms: C1_2  and  C2_4 
REMARK    2  A    between atoms: C2_4  and  O3_5 
REMARK    3  A    between atoms: C4_8  and  O4_9 
REMARK    4  A    between atoms: C5_11  and  O5_12 
REMARK    5  A    between atoms: C7_16  and  C8_17 
REMARK    6  A    between atoms: C8_17  and  C9_18 
REMARK    7  A    between atoms: C9_18  and  C10_19 
ROOT
HETATM    1  C2  UNL     1       2.265  12.143  24.301  1.00  0.00     0.176 C 
HETATM    2  C3  UNL     1       2.097  11.346  23.082  1.00  0.00     0.089 C 
HETATM    3  C4  UNL     1       1.126  11.832  22.063  1.00  0.00     0.155 C 
HETATM    4  C5  UNL     1       1.782  13.104  21.505  1.00  0.00     0.187 C 
HETATM    5  C6  UNL     1       1.930  13.993  22.688  1.00  0.00     0.024 A 
HETATM    6  S1  UNL     1       1.870  15.693  22.779  1.00  0.00    -0.096 SA
HETATM    7  C7  UNL     1       2.124  15.884  24.449  1.00  0.00    -0.016 A 
HETATM    8  C13 UNL     1       2.250  14.602  24.901  1.00  0.00     0.026 A 
HETATM    9  C14 UNL     1       2.148  13.618  23.972  1.00  0.00     0.003 A 
ENDROOT
BRANCH   1  10
HETATM   10  C1  UNL     1       1.330  11.727  25.332  1.00  0.00     0.214 C 
HETATM   11  O1  UNL     1       0.274  11.149  25.004  1.00  0.00    -0.645 OA
HETATM   12  O2  UNL     1       1.577  11.954  26.665  1.00  0.00    -0.645 OA
ENDBRANCH   1  10
BRANCH   1  13
HETATM   13  O3  UNL     1       3.577  11.913  24.782  1.00  0.00    -0.374 OA
ATOM     14  H3  UNL     1       4.184  12.360  24.203  1.00  0.00     0.211 HD
ENDBRANCH   1  13
BRANCH   3  15
HETATM   15  O4  UNL     1      -0.137  12.108  22.527  1.00  0.00    -0.393 OA
ATOM     16  H4  UNL     1      -0.433  11.574  23.254  1.00  0.00     0.210 HD
ENDBRANCH   3  15
BRANCH   4  17
HETATM   17  O5  UNL     1       3.055  12.789  21.054  1.00  0.00    -0.388 OA
ATOM     18  H5  UNL     1       3.693  13.150  21.658  1.00  0.00     0.210 HD
ENDBRANCH   4  17
BRANCH   7  19
HETATM   19  C8  UNL     1       2.190  17.163  25.225  1.00  0.00     0.046 C 
BRANCH  19  20
HETATM   20  C9  UNL     1       1.094  17.237  26.250  1.00  0.00     0.009 C 
BRANCH  20  21
HETATM   21  C10 UNL     1       0.999  18.576  26.919  1.00  0.00    -0.014 A 
HETATM   22  C11 UNL     1       1.065  19.833  26.137  1.00  0.00     0.005 A 
HETATM   23  C12 UNL     1      -0.217  19.382  26.827  1.00  0.00     0.005 A 
ENDBRANCH  20  21
ENDBRANCH  19  20
ENDBRANCH   7  19
TORSDOF 7
ENDMDL
