MODEL 5
REMARK VINA RESULT: -8.337164651      1.009      1.213
REMARK  7 active torsions:
REMARK  status: ('A' for Active; 'I' for Inactive)
REMARK    1  A    between atoms: C1_2  and  C2_4 
REMARK    2  A    between atoms: C2_4  and  O3_5 
REMARK    3  A    between atoms: C4_8  and  O4_9 
REMARK    4  A    between atoms: C5_11  and  O5_12 
REMARK    5  A    between atoms: C7_16  and  C8_17 
REMARK    6  A    between atoms: C8_17  and  C9_18 
REMARK    7  A    between atoms: C9_18  and  C10_19 
ROOT
HETATM    1  C2  UNL     1       2.018  11.868  24.242  1.00  0.00     0.176 C 
HETATM    2  C3  UNL     1       1.913  10.714  23.345  1.00  0.00     0.089 C 
HETATM    3  C4  UNL     1       1.091  10.865  22.112  1.00  0.00     0.155 C 
HETATM    4  C5  UNL     1       1.898  11.847  21.249  1.00  0.00     0.187 C 
HETATM    5  C6  UNL     1       1.995  13.076  22.080  1.00  0.00     0.024 A 
HETATM    6  S1  UNL     1       2.059  14.709  21.595  1.00  0.00    -0.096 SA
HETATM    7  C7  UNL     1       2.157  15.442  23.126  1.00  0.00    -0.016 A 
HETATM    8  C13 UNL     1       2.135  14.384  23.988  1.00  0.00     0.026 A 
HETATM    9  C14 UNL     1       2.051  13.149  23.432  1.00  0.00     0.003 A 
ENDROOT
BRANCH   1  10
HETATM   10  C1  UNL     1       0.954  11.863  25.230  1.00  0.00     0.214 C 
HETATM   11  O1  UNL     1       0.975  12.697  26.157  1.00  0.00    -0.645 OA
HETATM   12  O2  UNL     1      -0.079  10.958  25.173  1.00  0.00    -0.645 OA
ENDBRANCH   1  10
BRANCH   1  13
HETATM   13  O3  UNL     1       3.254  11.762  24.928  1.00  0.00    -0.374 OA
ATOM     14  H3  UNL     1       3.945  12.021  24.329  1.00  0.00     0.211 HD
ENDBRANCH   1  13
BRANCH   3  15
HETATM   15  O4  UNL     1      -0.187  11.332  22.302  1.00  0.00    -0.393 OA
ATOM     16  H4  UNL     1      -0.767  11.257  21.554  1.00  0.00     0.210 HD
ENDBRANCH   3  15
BRANCH   4  17
HETATM   17  O5  UNL     1       3.182  11.348  21.086  1.00  0.00    -0.388 OA
ATOM     18  H5  UNL     1       3.787  12.076  21.010  1.00  0.00     0.210 HD
ENDBRANCH   4  17
BRANCH   7  19
HETATM   19  C8  UNL     1       2.244  16.905  23.437  1.00  0.00     0.046 C 
BRANCH  19  20
HETATM   20  C9  UNL     1       1.344  17.273  24.581  1.00  0.00     0.009 C 
BRANCH  20  21
HETATM   21  C10 UNL     1       2.036  17.244  25.911  1.00  0.00    -0.014 A 
HETATM   22  C11 UNL     1       1.525  18.025  27.062  1.00  0.00     0.005 A 
HETATM   23  C12 UNL     1       1.474  16.502  27.040  1.00  0.00     0.005 A 
ENDBRANCH  20  21
ENDBRANCH  19  20
ENDBRANCH   7  19
TORSDOF 7
ENDMDL
