MODEL 3
REMARK VINA RESULT: -9.392760454      1.400      1.857
REMARK  7 active torsions:
REMARK  status: ('A' for Active; 'I' for Inactive)
REMARK    1  A    between atoms: C1_2  and  C2_4 
REMARK    2  A    between atoms: C2_4  and  O3_5 
REMARK    3  A    between atoms: C4_8  and  O4_9 
REMARK    4  A    between atoms: C5_11  and  O5_12 
REMARK    5  A    between atoms: C7_16  and  C8_17 
REMARK    6  A    between atoms: C8_17  and  C9_18 
REMARK    7  A    between atoms: C9_18  and  C10_19 
ROOT
HETATM    1  C2  UNL     1       2.160  12.520  24.061  1.00  0.00     0.176 C 
HETATM    2  C3  UNL     1       2.493  12.376  22.641  1.00  0.00     0.089 C 
HETATM    3  C4  UNL     1       1.889  13.346  21.685  1.00  0.00     0.155 C 
HETATM    4  C5  UNL     1       2.578  14.677  22.025  1.00  0.00     0.187 C 
HETATM    5  C6  UNL     1       2.231  14.919  23.450  1.00  0.00     0.024 A 
HETATM    6  S1  UNL     1       1.988  16.393  24.271  1.00  0.00    -0.096 SA
HETATM    7  C7  UNL     1       1.637  15.786  25.819  1.00  0.00    -0.016 A 
HETATM    8  C13 UNL     1       1.717  14.433  25.658  1.00  0.00     0.026 A 
HETATM    9  C14 UNL     1       2.029  13.987  24.414  1.00  0.00     0.003 A 
ENDROOT
BRANCH   1  10
HETATM   10  C1  UNL     1       0.972  11.757  24.400  1.00  0.00     0.214 C 
HETATM   11  O1  UNL     1       0.959  11.075  25.444  1.00  0.00    -0.645 OA
HETATM   12  O2  UNL     1      -0.145  11.766  23.598  1.00  0.00    -0.645 OA
ENDBRANCH   1  10
BRANCH   1  13
HETATM   13  O3  UNL     1       3.245  11.994  24.806  1.00  0.00    -0.374 OA
ATOM     14  H3  UNL     1       3.778  12.723  25.102  1.00  0.00     0.211 HD
ENDBRANCH   1  13
BRANCH   3  15
HETATM   15  O4  UNL     1       0.524  13.480  21.756  1.00  0.00    -0.393 OA
ATOM     16  H4  UNL     1       0.120  13.960  21.042  1.00  0.00     0.210 HD
ENDBRANCH   3  15
BRANCH   4  17
HETATM   17  O5  UNL     1       3.952  14.501  21.951  1.00  0.00    -0.388 OA
ATOM     18  H5  UNL     1       4.138  13.805  21.332  1.00  0.00     0.210 HD
ENDBRANCH   4  17
BRANCH   7  19
HETATM   19  C8  UNL     1       1.316  16.566  27.057  1.00  0.00     0.046 C 
BRANCH  19  20
HETATM   20  C9  UNL     1       1.618  18.026  26.876  1.00  0.00     0.009 C 
BRANCH  20  21
HETATM   21  C10 UNL     1       0.485  18.792  26.262  1.00  0.00    -0.014 A 
HETATM   22  C11 UNL     1      -0.456  19.575  27.097  1.00  0.00     0.005 A 
HETATM   23  C12 UNL     1       0.530  20.250  26.152  1.00  0.00     0.005 A 
ENDBRANCH  20  21
ENDBRANCH  19  20
ENDBRANCH   7  19
TORSDOF 7
ENDMDL
