MODEL 16
REMARK VINA RESULT: -5.052801422      2.867      5.996
REMARK  7 active torsions:
REMARK  status: ('A' for Active; 'I' for Inactive)
REMARK    1  A    between atoms: C1_2  and  C2_4 
REMARK    2  A    between atoms: C2_4  and  O3_5 
REMARK    3  A    between atoms: C4_8  and  O4_9 
REMARK    4  A    between atoms: C5_11  and  O5_12 
REMARK    5  A    between atoms: C7_16  and  C8_17 
REMARK    6  A    between atoms: C8_17  and  C9_18 
REMARK    7  A    between atoms: C9_18  and  C10_19 
ROOT
HETATM    1  C2  UNL     1       3.217  15.996  23.941  1.00  0.00     0.176 C 
HETATM    2  C3  UNL     1       2.897  17.256  24.617  1.00  0.00     0.089 C 
HETATM    3  C4  UNL     1       1.530  17.412  25.187  1.00  0.00     0.155 C 
HETATM    4  C5  UNL     1       1.505  16.422  26.362  1.00  0.00     0.187 C 
HETATM    5  C6  UNL     1       1.766  15.099  25.737  1.00  0.00     0.024 A 
HETATM    6  S1  UNL     1       1.201  13.556  26.190  1.00  0.00    -0.096 SA
HETATM    7  C7  UNL     1       1.949  12.627  24.979  1.00  0.00    -0.016 A 
HETATM    8  C13 UNL     1       2.628  13.552  24.241  1.00  0.00     0.026 A 
HETATM    9  C14 UNL     1       2.528  14.844  24.644  1.00  0.00     0.003 A 
ENDROOT
BRANCH   1  10
HETATM   10  C1  UNL     1       2.889  16.061  22.528  1.00  0.00     0.214 C 
HETATM   11  O1  UNL     1       3.805  16.197  21.692  1.00  0.00    -0.645 OA
HETATM   12  O2  UNL     1       1.591  15.978  22.083  1.00  0.00    -0.645 OA
ENDBRANCH   1  10
BRANCH   1  13
HETATM   13  O3  UNL     1       4.615  15.794  24.057  1.00  0.00    -0.374 OA
ATOM     14  H3  UNL     1       4.840  15.819  24.980  1.00  0.00     0.211 HD
ENDBRANCH   1  13
BRANCH   3  15
HETATM   15  O4  UNL     1       0.493  17.156  24.323  1.00  0.00    -0.393 OA
ATOM     16  H4  UNL     1       0.736  16.759  23.495  1.00  0.00     0.210 HD
ENDBRANCH   3  15
BRANCH   4  17
HETATM   17  O5  UNL     1       2.568  16.705  27.207  1.00  0.00    -0.388 OA
ATOM     18  H5  UNL     1       3.206  17.224  26.732  1.00  0.00     0.210 HD
ENDBRANCH   4  17
BRANCH   7  19
HETATM   19  C8  UNL     1       1.870  11.144  24.783  1.00  0.00     0.046 C 
BRANCH  19  20
HETATM   20  C9  UNL     1       0.728  10.773  23.880  1.00  0.00     0.009 C 
BRANCH  20  21
HETATM   21  C10 UNL     1       1.169  10.364  22.506  1.00  0.00    -0.014 A 
HETATM   22  C11 UNL     1       1.189  11.333  21.386  1.00  0.00     0.005 A 
HETATM   23  C12 UNL     1       2.473  10.766  21.980  1.00  0.00     0.005 A 
ENDBRANCH  20  21
ENDBRANCH  19  20
ENDBRANCH   7  19
TORSDOF 7
ENDMDL
