MODEL 1
REMARK VINA RESULT: -9.713552315      0.000      0.000
REMARK  7 active torsions:
REMARK  status: ('A' for Active; 'I' for Inactive)
REMARK    1  A    between atoms: C1_2  and  C2_4 
REMARK    2  A    between atoms: C2_4  and  O3_5 
REMARK    3  A    between atoms: C4_8  and  O4_9 
REMARK    4  A    between atoms: C5_11  and  O5_12 
REMARK    5  A    between atoms: C7_16  and  C8_17 
REMARK    6  A    between atoms: C8_17  and  C9_18 
REMARK    7  A    between atoms: C9_18  and  C10_19 
ROOT
HETATM    1  C2  UNL     1       2.237  11.476  23.936  1.00  0.00     0.176 C 
HETATM    2  C3  UNL     1       1.817  10.788  22.712  1.00  0.00     0.089 C 
HETATM    3  C4  UNL     1       0.835  11.477  21.830  1.00  0.00     0.155 C 
HETATM    4  C5  UNL     1       1.624  12.664  21.256  1.00  0.00     0.187 C 
HETATM    5  C6  UNL     1       2.036  13.447  22.450  1.00  0.00     0.024 A 
HETATM    6  S1  UNL     1       2.258  15.128  22.619  1.00  0.00    -0.096 SA
HETATM    7  C7  UNL     1       2.712  15.178  24.256  1.00  0.00    -0.016 A 
HETATM    8  C13 UNL     1       2.679  13.868  24.637  1.00  0.00     0.026 A 
HETATM    9  C14 UNL     1       2.324  12.968  23.685  1.00  0.00     0.003 A 
ENDROOT
BRANCH   1  10
HETATM   10  C1  UNL     1       1.361  11.149  25.048  1.00  0.00     0.214 C 
HETATM   11  O1  UNL     1       1.750  11.355  26.215  1.00  0.00    -0.645 OA
HETATM   12  O2  UNL     1       0.110  10.617  24.848  1.00  0.00    -0.645 OA
ENDBRANCH   1  10
BRANCH   1  13
HETATM   13  O3  UNL     1       3.539  11.018  24.256  1.00  0.00    -0.374 OA
ATOM     14  H3  UNL     1       3.813  10.413  23.576  1.00  0.00     0.211 HD
ENDBRANCH   1  13
BRANCH   3  15
HETATM   15  O4  UNL     1      -0.311  11.917  22.445  1.00  0.00    -0.393 OA
ATOM     16  H4  UNL     1      -0.975  11.255  22.600  1.00  0.00     0.210 HD
ENDBRANCH   3  15
BRANCH   4  17
HETATM   17  O5  UNL     1       2.776  12.183  20.650  1.00  0.00    -0.388 OA
ATOM     18  H5  UNL     1       2.533  11.707  19.865  1.00  0.00     0.210 HD
ENDBRANCH   4  17
BRANCH   7  19
HETATM   19  C8  UNL     1       3.063  16.384  25.073  1.00  0.00     0.046 C 
BRANCH  19  20
HETATM   20  C9  UNL     1       2.258  16.438  26.340  1.00  0.00     0.009 C 
BRANCH  20  21
HETATM   21  C10 UNL     1       1.012  17.264  26.214  1.00  0.00    -0.014 A 
HETATM   22  C11 UNL     1       0.963  18.660  26.705  1.00  0.00     0.005 A 
HETATM   23  C12 UNL     1       0.910  18.330  25.218  1.00  0.00     0.005 A 
ENDBRANCH  20  21
ENDBRANCH  19  20
ENDBRANCH   7  19
TORSDOF 7
ENDMDL
