MODEL 1
REMARK VINA RESULT: -7.972494718      0.000      0.000
REMARK  7 active torsions:
REMARK  status: ('A' for Active; 'I' for Inactive)
REMARK    1  A    between atoms: C9_11  and  C10_12 
REMARK    2  A    between atoms: C10_12  and  C11_13 
REMARK       I    between atoms: C11_13  and  N2_15 
REMARK    3  A    between atoms: N2_15  and  C12_17 
REMARK    4  A    between atoms: C12_17  and  C13_18 
REMARK    5  A    between atoms: C12_17  and  C20_25 
REMARK    6  A    between atoms: C13_18  and  C14_19 
REMARK       I    between atoms: C20_25  and  N3_27 
REMARK    7  A    between atoms: N3_27  and  C22_29 
ROOT
HETATM    1  C12 UNL     1       0.919   2.070  17.925  1.00  0.00     0.181 C 
ENDROOT
BRANCH   1   2
HETATM    2  N2  UNL     1      -0.096   3.143  17.965  1.00  0.00    -0.347 N 
HETATM    3  C11 UNL     1      -0.153   4.112  18.999  1.00  0.00     0.222 C 
HETATM    4  O1  UNL     1       0.734   4.035  19.901  1.00  0.00    -0.273 OA
ATOM      5  H2  UNL     1      -0.786   3.189  17.215  1.00  0.00     0.163 HD
BRANCH   3   6
HETATM    6  C10 UNL     1      -1.204   5.173  19.015  1.00  0.00     0.144 C 
BRANCH   6   7
HETATM    7  C9  UNL     1      -1.828   5.269  20.358  1.00  0.00    -0.015 A 
HETATM    8  C2  UNL     1      -1.623   6.145  21.376  1.00  0.00     0.013 A 
HETATM    9  C1  UNL     1      -0.654   7.261  21.419  1.00  0.00     0.068 C 
HETATM   10  N1  UNL     1      -2.451   5.838  22.399  1.00  0.00    -0.359 N 
HETATM   11  C3  UNL     1      -3.205   4.772  22.086  1.00  0.00     0.043 A 
ATOM     12  H1  UNL     1      -2.497   6.344  23.283  1.00  0.00     0.166 HD
HETATM   13  C4  UNL     1      -4.178   4.084  22.776  1.00  0.00     0.030 A 
HETATM   14  C8  UNL     1      -2.835   4.397  20.816  1.00  0.00    -0.001 A 
HETATM   15  C5  UNL     1      -4.764   3.006  22.137  1.00  0.00     0.002 A 
HETATM   16  C6  UNL     1      -4.398   2.619  20.859  1.00  0.00     0.001 A 
HETATM   17  C7  UNL     1      -3.422   3.313  20.172  1.00  0.00     0.014 A 
ENDBRANCH   6   7
ENDBRANCH   3   6
ENDBRANCH   1   2
BRANCH   1  18
HETATM   18  C13 UNL     1       0.303   0.754  18.281  1.00  0.00     0.073 C 
BRANCH  18  19
HETATM   19  C14 UNL     1       0.335   0.460  19.712  1.00  0.00    -0.056 A 
HETATM   20  C15 UNL     1       1.476  -0.009  20.309  1.00  0.00     0.007 A 
HETATM   21  C16 UNL     1       1.515  -0.270  21.686  1.00  0.00     0.001 A 
HETATM   22  C17 UNL     1       0.408  -0.062  22.463  1.00  0.00     0.000 A 
HETATM   23  C18 UNL     1      -0.749   0.410  21.869  1.00  0.00     0.001 A 
HETATM   24  C19 UNL     1      -0.765   0.663  20.500  1.00  0.00     0.007 A 
ENDBRANCH  18  19
ENDBRANCH   1  18
BRANCH   1  25
HETATM   25  C20 UNL     1       1.565   2.100  16.592  1.00  0.00     0.247 C 
HETATM   26  O2  UNL     1       0.847   2.183  15.570  1.00  0.00    -0.271 OA
HETATM   27  N3  UNL     1       2.962   2.041  16.455  1.00  0.00    -0.321 N 
HETATM   28  C21 UNL     1       3.514   2.083  15.088  1.00  0.00     0.159 C 
BRANCH  27  29
HETATM   29  C22 UNL     1       3.914   1.944  17.493  1.00  0.00     0.036 A 
HETATM   30  C23 UNL     1       4.321   0.653  17.833  1.00  0.00     0.029 A 
HETATM   31  C24 UNL     1       5.236   0.463  18.846  1.00  0.00     0.002 A 
HETATM   32  C25 UNL     1       5.771   1.523  19.545  1.00  0.00     0.000 A 
HETATM   33  C26 UNL     1       5.375   2.793  19.212  1.00  0.00     0.002 A 
HETATM   34  C27 UNL     1       4.452   2.995  18.190  1.00  0.00     0.029 A 
ENDBRANCH  27  29
ENDBRANCH   1  25
TORSDOF 7
ENDMDL
