MODEL 8
REMARK VINA RESULT: -7.515652060      2.119      7.918
REMARK  7 active torsions:
REMARK  status: ('A' for Active; 'I' for Inactive)
REMARK    1  A    between atoms: C9_11  and  C10_12 
REMARK    2  A    between atoms: C10_12  and  C11_13 
REMARK       I    between atoms: C11_13  and  N2_15 
REMARK    3  A    between atoms: N2_15  and  C12_17 
REMARK    4  A    between atoms: C12_17  and  C13_18 
REMARK    5  A    between atoms: C12_17  and  C20_25 
REMARK    6  A    between atoms: C13_18  and  C14_19 
REMARK       I    between atoms: C20_25  and  N3_27 
REMARK    7  A    between atoms: N3_27  and  C22_29 
ROOT
HETATM    1  C12 UNL     1      -1.694   3.845  20.870  1.00  0.00     0.181 C 
ENDROOT
BRANCH   1   2
HETATM    2  N2  UNL     1      -1.059   2.720  20.152  1.00  0.00    -0.347 N 
HETATM    3  C11 UNL     1      -1.413   1.365  20.375  1.00  0.00     0.222 C 
HETATM    4  O1  UNL     1      -2.334   1.149  21.220  1.00  0.00    -0.273 OA
ATOM      5  H2  UNL     1      -0.333   2.928  19.466  1.00  0.00     0.163 HD
BRANCH   3   6
HETATM    6  C10 UNL     1      -0.738   0.253  19.642  1.00  0.00     0.144 C 
BRANCH   6   7
HETATM    7  C9  UNL     1       0.737   0.371  19.759  1.00  0.00    -0.015 A 
HETATM    8  C2  UNL     1       1.576   0.083  20.789  1.00  0.00     0.013 A 
HETATM    9  C1  UNL     1       1.210  -0.413  22.133  1.00  0.00     0.068 C 
HETATM   10  N1  UNL     1       2.847   0.337  20.410  1.00  0.00    -0.359 N 
HETATM   11  C3  UNL     1       2.876   0.792  19.146  1.00  0.00     0.043 A 
ATOM     12  H1  UNL     1       3.669   0.203  20.999  1.00  0.00     0.166 HD
HETATM   13  C4  UNL     1       3.906   1.185  18.320  1.00  0.00     0.030 A 
HETATM   14  C8  UNL     1       1.570   0.822  18.717  1.00  0.00    -0.001 A 
HETATM   15  C5  UNL     1       3.569   1.608  17.048  1.00  0.00     0.002 A 
HETATM   16  C6  UNL     1       2.257   1.644  16.606  1.00  0.00     0.001 A 
HETATM   17  C7  UNL     1       1.229   1.248  17.438  1.00  0.00     0.014 A 
ENDBRANCH   6   7
ENDBRANCH   3   6
ENDBRANCH   1   2
BRANCH   1  18
HETATM   18  C13 UNL     1      -0.669   4.622  21.634  1.00  0.00     0.073 C 
BRANCH  18  19
HETATM   19  C14 UNL     1      -1.222   5.376  22.757  1.00  0.00    -0.056 A 
HETATM   20  C15 UNL     1      -1.277   6.745  22.728  1.00  0.00     0.007 A 
HETATM   21  C16 UNL     1      -1.828   7.468  23.795  1.00  0.00     0.001 A 
HETATM   22  C17 UNL     1      -2.324   6.816  24.892  1.00  0.00     0.000 A 
HETATM   23  C18 UNL     1      -2.273   5.434  24.931  1.00  0.00     0.001 A 
HETATM   24  C19 UNL     1      -1.721   4.737  23.860  1.00  0.00     0.007 A 
ENDBRANCH  18  19
ENDBRANCH   1  18
BRANCH   1  25
HETATM   25  C20 UNL     1      -2.456   4.645  19.884  1.00  0.00     0.247 C 
HETATM   26  O2  UNL     1      -1.933   4.905  18.777  1.00  0.00    -0.271 OA
HETATM   27  N3  UNL     1      -3.751   5.113  20.165  1.00  0.00    -0.321 N 
HETATM   28  C21 UNL     1      -4.434   5.897  19.119  1.00  0.00     0.159 C 
BRANCH  27  29
HETATM   29  C22 UNL     1      -4.485   4.916  21.355  1.00  0.00     0.036 A 
HETATM   30  C23 UNL     1      -4.870   6.070  22.038  1.00  0.00     0.029 A 
HETATM   31  C24 UNL     1      -5.576   5.971  23.217  1.00  0.00     0.002 A 
HETATM   32  C25 UNL     1      -5.921   4.749  23.752  1.00  0.00     0.000 A 
HETATM   33  C26 UNL     1      -5.546   3.613  23.083  1.00  0.00     0.002 A 
HETATM   34  C27 UNL     1      -4.833   3.702  21.891  1.00  0.00     0.029 A 
ENDBRANCH  27  29
ENDBRANCH   1  25
TORSDOF 7
ENDMDL
