MODEL 3
REMARK VINA RESULT: -7.879997913      1.999      7.928
REMARK  7 active torsions:
REMARK  status: ('A' for Active; 'I' for Inactive)
REMARK    1  A    between atoms: C9_11  and  C10_12 
REMARK    2  A    between atoms: C10_12  and  C11_13 
REMARK       I    between atoms: C11_13  and  N2_15 
REMARK    3  A    between atoms: N2_15  and  C12_17 
REMARK    4  A    between atoms: C12_17  and  C13_18 
REMARK    5  A    between atoms: C12_17  and  C20_25 
REMARK    6  A    between atoms: C13_18  and  C14_19 
REMARK       I    between atoms: C20_25  and  N3_27 
REMARK    7  A    between atoms: N3_27  and  C22_29 
ROOT
HETATM    1  C12 UNL     1      -0.635   3.489  21.822  1.00  0.00     0.181 C 
ENDROOT
BRANCH   1   2
HETATM    2  N2  UNL     1       0.368   2.444  21.531  1.00  0.00    -0.347 N 
HETATM    3  C11 UNL     1       0.164   1.074  21.831  1.00  0.00     0.222 C 
HETATM    4  O1  UNL     1      -0.949   0.765  22.354  1.00  0.00    -0.273 OA
ATOM      5  H2  UNL     1       1.248   2.721  21.095  1.00  0.00     0.163 HD
BRANCH   3   6
HETATM    6  C10 UNL     1       1.208   0.048  21.538  1.00  0.00     0.144 C 
BRANCH   6   7
HETATM    7  C9  UNL     1       1.734   0.218  20.160  1.00  0.00    -0.015 A 
HETATM    8  C2  UNL     1       1.117   0.135  18.952  1.00  0.00     0.013 A 
HETATM    9  C1  UNL     1      -0.300  -0.195  18.690  1.00  0.00     0.068 C 
HETATM   10  N1  UNL     1       2.015   0.392  17.977  1.00  0.00    -0.359 N 
HETATM   11  C3  UNL     1       3.223   0.643  18.508  1.00  0.00     0.043 A 
ATOM     12  H1  UNL     1       1.806   0.395  16.978  1.00  0.00     0.166 HD
HETATM   13  C4  UNL     1       4.442   0.950  17.946  1.00  0.00     0.030 A 
HETATM   14  C8  UNL     1       3.075   0.540  19.870  1.00  0.00    -0.001 A 
HETATM   15  C5  UNL     1       5.504   1.150  18.809  1.00  0.00     0.002 A 
HETATM   16  C6  UNL     1       5.366   1.049  20.183  1.00  0.00     0.001 A 
HETATM   17  C7  UNL     1       4.141   0.740  20.741  1.00  0.00     0.014 A 
ENDBRANCH   6   7
ENDBRANCH   3   6
ENDBRANCH   1   2
BRANCH   1  18
HETATM   18  C13 UNL     1      -0.190   4.336  22.972  1.00  0.00     0.073 C 
BRANCH  18  19
HETATM   19  C14 UNL     1      -1.231   5.224  23.484  1.00  0.00    -0.056 A 
HETATM   20  C15 UNL     1      -1.253   6.552  23.144  1.00  0.00     0.007 A 
HETATM   21  C16 UNL     1      -2.265   7.400  23.615  1.00  0.00     0.001 A 
HETATM   22  C17 UNL     1      -3.253   6.916  24.428  1.00  0.00     0.000 A 
HETATM   23  C18 UNL     1      -3.239   5.578  24.778  1.00  0.00     0.001 A 
HETATM   24  C19 UNL     1      -2.225   4.754  24.298  1.00  0.00     0.007 A 
ENDBRANCH  18  19
ENDBRANCH   1  18
BRANCH   1  25
HETATM   25  C20 UNL     1      -0.887   4.243  20.572  1.00  0.00     0.247 C 
HETATM   26  O2  UNL     1       0.082   4.552  19.842  1.00  0.00    -0.271 OA
HETATM   27  N3  UNL     1      -2.188   4.612  20.189  1.00  0.00    -0.321 N 
HETATM   28  C21 UNL     1      -2.341   5.355  18.925  1.00  0.00     0.159 C 
BRANCH  27  29
HETATM   29  C22 UNL     1      -3.385   4.348  20.890  1.00  0.00     0.036 A 
HETATM   30  C23 UNL     1      -4.223   5.442  21.107  1.00  0.00     0.029 A 
HETATM   31  C24 UNL     1      -5.406   5.281  21.795  1.00  0.00     0.002 A 
HETATM   32  C25 UNL     1      -5.795   4.052  22.284  1.00  0.00     0.000 A 
HETATM   33  C26 UNL     1      -4.975   2.974  22.070  1.00  0.00     0.002 A 
HETATM   34  C27 UNL     1      -3.779   3.127  21.376  1.00  0.00     0.029 A 
ENDBRANCH  27  29
ENDBRANCH   1  25
TORSDOF 7
ENDMDL
