MODEL 11
REMARK VINA RESULT: -7.246715327      1.111      1.760
REMARK  7 active torsions:
REMARK  status: ('A' for Active; 'I' for Inactive)
REMARK    1  A    between atoms: C9_11  and  C10_12 
REMARK    2  A    between atoms: C10_12  and  C11_13 
REMARK       I    between atoms: C11_13  and  N2_15 
REMARK    3  A    between atoms: N2_15  and  C12_17 
REMARK    4  A    between atoms: C12_17  and  C13_18 
REMARK    5  A    between atoms: C12_17  and  C20_25 
REMARK    6  A    between atoms: C13_18  and  C14_19 
REMARK       I    between atoms: C20_25  and  N3_27 
REMARK    7  A    between atoms: N3_27  and  C22_29 
ROOT
HETATM    1  C12 UNL     1       0.857   2.456  18.109  1.00  0.00     0.181 C 
ENDROOT
BRANCH   1   2
HETATM    2  N2  UNL     1      -0.307   3.354  18.249  1.00  0.00    -0.347 N 
HETATM    3  C11 UNL     1      -0.522   4.164  19.393  1.00  0.00     0.222 C 
HETATM    4  O1  UNL     1       0.355   4.104  20.307  1.00  0.00    -0.273 OA
ATOM      5  H2  UNL     1      -0.987   3.393  17.490  1.00  0.00     0.163 HD
BRANCH   3   6
HETATM    6  C10 UNL     1      -1.720   5.048  19.507  1.00  0.00     0.144 C 
BRANCH   6   7
HETATM    7  C9  UNL     1      -1.575   5.979  20.654  1.00  0.00    -0.015 A 
HETATM    8  C2  UNL     1      -0.992   7.203  20.742  1.00  0.00     0.013 A 
HETATM    9  C1  UNL     1      -0.290   7.942  19.671  1.00  0.00     0.068 C 
HETATM   10  N1  UNL     1      -1.132   7.672  22.001  1.00  0.00    -0.359 N 
HETATM   11  C3  UNL     1      -1.796   6.784  22.759  1.00  0.00     0.043 A 
ATOM     12  H1  UNL     1      -0.783   8.573  22.330  1.00  0.00     0.166 HD
HETATM   13  C4  UNL     1      -2.181   6.792  24.081  1.00  0.00     0.030 A 
HETATM   14  C8  UNL     1      -2.084   5.718  21.941  1.00  0.00    -0.001 A 
HETATM   15  C5  UNL     1      -2.867   5.685  24.546  1.00  0.00     0.002 A 
HETATM   16  C6  UNL     1      -3.161   4.604  23.732  1.00  0.00     0.001 A 
HETATM   17  C7  UNL     1      -2.773   4.602  22.407  1.00  0.00     0.014 A 
ENDBRANCH   6   7
ENDBRANCH   3   6
ENDBRANCH   1   2
BRANCH   1  18
HETATM   18  C13 UNL     1       0.450   1.033  18.332  1.00  0.00     0.073 C 
BRANCH  18  19
HETATM   19  C14 UNL     1       0.554   0.605  19.725  1.00  0.00    -0.056 A 
HETATM   20  C15 UNL     1      -0.563   0.485  20.511  1.00  0.00     0.007 A 
HETATM   21  C16 UNL     1      -0.466   0.051  21.840  1.00  0.00     0.001 A 
HETATM   22  C17 UNL     1       0.752  -0.260  22.382  1.00  0.00     0.000 A 
HETATM   23  C18 UNL     1       1.885  -0.141  21.598  1.00  0.00     0.001 A 
HETATM   24  C19 UNL     1       1.765   0.291  20.280  1.00  0.00     0.007 A 
ENDBRANCH  18  19
ENDBRANCH   1  18
BRANCH   1  25
HETATM   25  C20 UNL     1       1.477   2.712  16.788  1.00  0.00     0.247 C 
HETATM   26  O2  UNL     1       0.750   3.071  15.835  1.00  0.00    -0.271 OA
HETATM   27  N3  UNL     1       2.860   2.565  16.588  1.00  0.00    -0.321 N 
HETATM   28  C21 UNL     1       3.386   2.848  15.240  1.00  0.00     0.159 C 
BRANCH  27  29
HETATM   29  C22 UNL     1       3.819   2.168  17.545  1.00  0.00     0.036 A 
HETATM   30  C23 UNL     1       4.167   0.817  17.544  1.00  0.00     0.029 A 
HETATM   31  C24 UNL     1       5.083   0.339  18.455  1.00  0.00     0.002 A 
HETATM   32  C25 UNL     1       5.679   1.166  19.382  1.00  0.00     0.000 A 
HETATM   33  C26 UNL     1       5.342   2.495  19.385  1.00  0.00     0.002 A 
HETATM   34  C27 UNL     1       4.417   2.988  18.470  1.00  0.00     0.029 A 
ENDBRANCH  27  29
ENDBRANCH   1  25
TORSDOF 7
ENDMDL
