MODEL 2
REMARK VINA RESULT: -7.929292377      1.129      1.759
REMARK  7 active torsions:
REMARK  status: ('A' for Active; 'I' for Inactive)
REMARK    1  A    between atoms: C9_11  and  C10_12 
REMARK    2  A    between atoms: C10_12  and  C11_13 
REMARK       I    between atoms: C11_13  and  N2_15 
REMARK    3  A    between atoms: N2_15  and  C12_17 
REMARK    4  A    between atoms: C12_17  and  C13_18 
REMARK    5  A    between atoms: C12_17  and  C20_25 
REMARK    6  A    between atoms: C13_18  and  C14_19 
REMARK       I    between atoms: C20_25  and  N3_27 
REMARK    7  A    between atoms: N3_27  and  C22_29 
ROOT
HETATM    1  C12 UNL     1       0.961   1.863  17.949  1.00  0.00     0.181 C 
ENDROOT
BRANCH   1   2
HETATM    2  N2  UNL     1      -0.014   2.972  17.980  1.00  0.00    -0.347 N 
HETATM    3  C11 UNL     1       0.338   4.299  18.334  1.00  0.00     0.222 C 
HETATM    4  O1  UNL     1       1.558   4.510  18.611  1.00  0.00    -0.273 OA
ATOM      5  H2  UNL     1      -0.984   2.775  17.735  1.00  0.00     0.163 HD
BRANCH   3   6
HETATM    6  C10 UNL     1      -0.678   5.392  18.369  1.00  0.00     0.144 C 
BRANCH   6   7
HETATM    7  C9  UNL     1      -1.807   5.026  19.261  1.00  0.00    -0.015 A 
HETATM    8  C2  UNL     1      -3.139   4.917  19.015  1.00  0.00     0.013 A 
HETATM    9  C1  UNL     1      -3.841   5.179  17.741  1.00  0.00     0.068 C 
HETATM   10  N1  UNL     1      -3.769   4.532  20.147  1.00  0.00    -0.359 N 
HETATM   11  C3  UNL     1      -2.884   4.384  21.147  1.00  0.00     0.043 A 
ATOM     12  H1  UNL     1      -4.774   4.376  20.231  1.00  0.00     0.166 HD
HETATM   13  C4  UNL     1      -3.023   4.017  22.467  1.00  0.00     0.030 A 
HETATM   14  C8  UNL     1      -1.652   4.687  20.619  1.00  0.00    -0.001 A 
HETATM   15  C5  UNL     1      -1.873   3.966  23.233  1.00  0.00     0.002 A 
HETATM   16  C6  UNL     1      -0.626   4.270  22.712  1.00  0.00     0.001 A 
HETATM   17  C7  UNL     1      -0.493   4.638  21.388  1.00  0.00     0.014 A 
ENDBRANCH   6   7
ENDBRANCH   3   6
ENDBRANCH   1   2
BRANCH   1  18
HETATM   18  C13 UNL     1       0.306   0.579  18.350  1.00  0.00     0.073 C 
BRANCH  18  19
HETATM   19  C14 UNL     1       0.241   0.380  19.796  1.00  0.00    -0.056 A 
HETATM   20  C15 UNL     1       1.298  -0.164  20.480  1.00  0.00     0.007 A 
HETATM   21  C16 UNL     1       1.247  -0.334  21.870  1.00  0.00     0.001 A 
HETATM   22  C17 UNL     1       0.134   0.041  22.575  1.00  0.00     0.000 A 
HETATM   23  C18 UNL     1      -0.937   0.590  21.894  1.00  0.00     0.001 A 
HETATM   24  C19 UNL     1      -0.864   0.750  20.513  1.00  0.00     0.007 A 
ENDBRANCH  18  19
ENDBRANCH   1  18
BRANCH   1  25
HETATM   25  C20 UNL     1       1.582   1.836  16.605  1.00  0.00     0.247 C 
HETATM   26  O2  UNL     1       0.844   1.802  15.594  1.00  0.00    -0.271 OA
HETATM   27  N3  UNL     1       2.979   1.852  16.443  1.00  0.00    -0.321 N 
HETATM   28  C21 UNL     1       3.504   1.829  15.066  1.00  0.00     0.159 C 
BRANCH  27  29
HETATM   29  C22 UNL     1       3.951   1.887  17.466  1.00  0.00     0.036 A 
HETATM   30  C23 UNL     1       4.368   0.650  17.959  1.00  0.00     0.029 A 
HETATM   31  C24 UNL     1       5.303   0.589  18.969  1.00  0.00     0.002 A 
HETATM   32  C25 UNL     1       5.850   1.730  19.517  1.00  0.00     0.000 A 
HETATM   33  C26 UNL     1       5.444   2.947  19.033  1.00  0.00     0.002 A 
HETATM   34  C27 UNL     1       4.500   3.019  18.013  1.00  0.00     0.029 A 
ENDBRANCH  27  29
ENDBRANCH   1  25
TORSDOF 7
ENDMDL
