MODEL 4
REMARK VINA RESULT: -7.791926521      1.452      1.633
REMARK  7 active torsions:
REMARK  status: ('A' for Active; 'I' for Inactive)
REMARK    1  A    between atoms: C9_11  and  C10_12 
REMARK    2  A    between atoms: C10_12  and  C11_13 
REMARK       I    between atoms: C11_13  and  N2_15 
REMARK    3  A    between atoms: N2_15  and  C12_17 
REMARK    4  A    between atoms: C12_17  and  C13_18 
REMARK    5  A    between atoms: C12_17  and  C20_25 
REMARK    6  A    between atoms: C13_18  and  C14_19 
REMARK       I    between atoms: C20_25  and  N3_27 
REMARK    7  A    between atoms: N3_27  and  C22_29 
ROOT
HETATM    1  C12 UNL     1       0.984   1.855  17.862  1.00  0.00     0.181 C 
ENDROOT
BRANCH   1   2
HETATM    2  N2  UNL     1      -0.042   2.916  17.925  1.00  0.00    -0.347 N 
HETATM    3  C11 UNL     1       0.237   4.232  18.373  1.00  0.00     0.222 C 
HETATM    4  O1  UNL     1       1.435   4.478  18.707  1.00  0.00    -0.273 OA
ATOM      5  H2  UNL     1      -0.993   2.692  17.634  1.00  0.00     0.163 HD
BRANCH   3   6
HETATM    6  C10 UNL     1      -0.829   5.275  18.438  1.00  0.00     0.144 C 
BRANCH   6   7
HETATM    7  C9  UNL     1      -0.827   5.942  19.764  1.00  0.00    -0.015 A 
HETATM    8  C2  UNL     1      -0.753   7.256  20.102  1.00  0.00     0.013 A 
HETATM    9  C1  UNL     1      -0.616   8.411  19.189  1.00  0.00     0.068 C 
HETATM   10  N1  UNL     1      -0.809   7.373  21.447  1.00  0.00    -0.359 N 
HETATM   11  C3  UNL     1      -0.916   6.161  22.017  1.00  0.00     0.043 A 
ATOM     12  H1  UNL     1      -0.774   8.255  21.958  1.00  0.00     0.166 HD
HETATM   13  C4  UNL     1      -1.003   5.753  23.329  1.00  0.00     0.030 A 
HETATM   14  C8  UNL     1      -0.929   5.250  20.987  1.00  0.00    -0.001 A 
HETATM   15  C5  UNL     1      -1.105   4.394  23.563  1.00  0.00     0.002 A 
HETATM   16  C6  UNL     1      -1.118   3.468  22.534  1.00  0.00     0.001 A 
HETATM   17  C7  UNL     1      -1.031   3.883  21.220  1.00  0.00     0.014 A 
ENDBRANCH   6   7
ENDBRANCH   3   6
ENDBRANCH   1   2
BRANCH   1  18
HETATM   18  C13 UNL     1       0.386   0.528  18.208  1.00  0.00     0.073 C 
BRANCH  18  19
HETATM   19  C14 UNL     1       0.387   0.240  19.641  1.00  0.00    -0.056 A 
HETATM   20  C15 UNL     1       1.558  -0.009  20.308  1.00  0.00     0.007 A 
HETATM   21  C16 UNL     1       1.563  -0.262  21.687  1.00  0.00     0.001 A 
HETATM   22  C17 UNL     1       0.392  -0.268  22.395  1.00  0.00     0.000 A 
HETATM   23  C18 UNL     1      -0.796  -0.019  21.731  1.00  0.00     0.001 A 
HETATM   24  C19 UNL     1      -0.776   0.230  20.361  1.00  0.00     0.007 A 
ENDBRANCH  18  19
ENDBRANCH   1  18
BRANCH   1  25
HETATM   25  C20 UNL     1       1.616   1.908  16.524  1.00  0.00     0.247 C 
HETATM   26  O2  UNL     1       0.887   1.938  15.507  1.00  0.00    -0.271 OA
HETATM   27  N3  UNL     1       3.014   1.928  16.375  1.00  0.00    -0.321 N 
HETATM   28  C21 UNL     1       3.551   1.988  15.003  1.00  0.00     0.159 C 
BRANCH  27  29
HETATM   29  C22 UNL     1       3.978   1.897  17.405  1.00  0.00     0.036 A 
HETATM   30  C23 UNL     1       4.415   0.632  17.800  1.00  0.00     0.029 A 
HETATM   31  C24 UNL     1       5.343   0.506  18.810  1.00  0.00     0.002 A 
HETATM   32  C25 UNL     1       5.864   1.608  19.454  1.00  0.00     0.000 A 
HETATM   33  C26 UNL     1       5.439   2.853  19.068  1.00  0.00     0.002 A 
HETATM   34  C27 UNL     1       4.502   2.990  18.048  1.00  0.00     0.029 A 
ENDBRANCH  27  29
ENDBRANCH   1  25
TORSDOF 7
ENDMDL
