MODEL 9
REMARK VINA RESULT: -7.497781298      0.700      2.265
REMARK  7 active torsions:
REMARK  status: ('A' for Active; 'I' for Inactive)
REMARK    1  A    between atoms: C9_11  and  C10_12 
REMARK    2  A    between atoms: C10_12  and  C11_13 
REMARK       I    between atoms: C11_13  and  N2_15 
REMARK    3  A    between atoms: N2_15  and  C12_17 
REMARK    4  A    between atoms: C12_17  and  C13_18 
REMARK    5  A    between atoms: C12_17  and  C20_25 
REMARK    6  A    between atoms: C13_18  and  C14_19 
REMARK       I    between atoms: C20_25  and  N3_27 
REMARK    7  A    between atoms: N3_27  and  C22_29 
ROOT
HETATM    1  C12 UNL     1       0.941   2.042  17.936  1.00  0.00     0.181 C 
ENDROOT
BRANCH   1   2
HETATM    2  N2  UNL     1      -0.101   3.087  18.001  1.00  0.00    -0.347 N 
HETATM    3  C11 UNL     1      -0.197   4.014  19.070  1.00  0.00     0.222 C 
HETATM    4  O1  UNL     1       0.679   3.925  19.982  1.00  0.00    -0.273 OA
ATOM      5  H2  UNL     1      -0.782   3.144  17.244  1.00  0.00     0.163 HD
BRANCH   3   6
HETATM    6  C10 UNL     1      -1.275   5.047  19.110  1.00  0.00     0.144 C 
BRANCH   6   7
HETATM    7  C9  UNL     1      -1.823   5.176  20.484  1.00  0.00    -0.015 A 
HETATM    8  C2  UNL     1      -2.654   4.368  21.193  1.00  0.00     0.013 A 
HETATM    9  C1  UNL     1      -3.282   3.109  20.741  1.00  0.00     0.068 C 
HETATM   10  N1  UNL     1      -2.852   4.901  22.418  1.00  0.00    -0.359 N 
HETATM   11  C3  UNL     1      -2.171   6.052  22.543  1.00  0.00     0.043 A 
ATOM     12  H1  UNL     1      -3.437   4.489  23.146  1.00  0.00     0.166 HD
HETATM   13  C4  UNL     1      -2.049   6.956  23.575  1.00  0.00     0.030 A 
HETATM   14  C8  UNL     1      -1.520   6.246  21.348  1.00  0.00    -0.001 A 
HETATM   15  C5  UNL     1      -1.246   8.061  23.357  1.00  0.00     0.002 A 
HETATM   16  C6  UNL     1      -0.586   8.266  22.157  1.00  0.00     0.001 A 
HETATM   17  C7  UNL     1      -0.712   7.357  21.126  1.00  0.00     0.014 A 
ENDBRANCH   6   7
ENDBRANCH   3   6
ENDBRANCH   1   2
BRANCH   1  18
HETATM   18  C13 UNL     1       0.362   0.704  18.273  1.00  0.00     0.073 C 
BRANCH  18  19
HETATM   19  C14 UNL     1       0.429   0.378  19.695  1.00  0.00    -0.056 A 
HETATM   20  C15 UNL     1       1.599  -0.054  20.264  1.00  0.00     0.007 A 
HETATM   21  C16 UNL     1       1.671  -0.345  21.634  1.00  0.00     0.001 A 
HETATM   22  C17 UNL     1       0.567  -0.204  22.432  1.00  0.00     0.000 A 
HETATM   23  C18 UNL     1      -0.618   0.230  21.867  1.00  0.00     0.001 A 
HETATM   24  C19 UNL     1      -0.666   0.514  20.504  1.00  0.00     0.007 A 
ENDBRANCH  18  19
ENDBRANCH   1  18
BRANCH   1  25
HETATM   25  C20 UNL     1       1.576   2.112  16.599  1.00  0.00     0.247 C 
HETATM   26  O2  UNL     1       0.850   2.215  15.585  1.00  0.00    -0.271 OA
HETATM   27  N3  UNL     1       2.973   2.069  16.450  1.00  0.00    -0.321 N 
HETATM   28  C21 UNL     1       3.514   2.151  15.081  1.00  0.00     0.159 C 
BRANCH  27  29
HETATM   29  C22 UNL     1       3.933   1.953  17.478  1.00  0.00     0.036 A 
HETATM   30  C23 UNL     1       4.340   0.656  17.796  1.00  0.00     0.029 A 
HETATM   31  C24 UNL     1       5.263   0.448  18.797  1.00  0.00     0.002 A 
HETATM   32  C25 UNL     1       5.807   1.496  19.507  1.00  0.00     0.000 A 
HETATM   33  C26 UNL     1       5.412   2.771  19.197  1.00  0.00     0.002 A 
HETATM   34  C27 UNL     1       4.481   2.992  18.187  1.00  0.00     0.029 A 
ENDBRANCH  27  29
ENDBRANCH   1  25
TORSDOF 7
ENDMDL
