MODEL 10
REMARK VINA RESULT: -7.430433666      2.258      8.234
REMARK  7 active torsions:
REMARK  status: ('A' for Active; 'I' for Inactive)
REMARK    1  A    between atoms: C9_11  and  C10_12 
REMARK    2  A    between atoms: C10_12  and  C11_13 
REMARK       I    between atoms: C11_13  and  N2_15 
REMARK    3  A    between atoms: N2_15  and  C12_17 
REMARK    4  A    between atoms: C12_17  and  C13_18 
REMARK    5  A    between atoms: C12_17  and  C20_25 
REMARK    6  A    between atoms: C13_18  and  C14_19 
REMARK       I    between atoms: C20_25  and  N3_27 
REMARK    7  A    between atoms: N3_27  and  C22_29 
ROOT
HETATM    1  C12 UNL     1      -3.078   3.757  21.095  1.00  0.00     0.181 C 
ENDROOT
BRANCH   1   2
HETATM    2  N2  UNL     1      -2.638   2.501  20.455  1.00  0.00    -0.347 N 
HETATM    3  C11 UNL     1      -1.474   1.798  20.857  1.00  0.00     0.222 C 
HETATM    4  O1  UNL     1      -0.818   2.289  21.825  1.00  0.00    -0.273 OA
ATOM      5  H2  UNL     1      -3.195   2.122  19.689  1.00  0.00     0.163 HD
BRANCH   3   6
HETATM    6  C10 UNL     1      -1.050   0.538  20.176  1.00  0.00     0.144 C 
BRANCH   6   7
HETATM    7  C9  UNL     1       0.430   0.465  20.089  1.00  0.00    -0.015 A 
HETATM    8  C2  UNL     1       1.356   0.024  20.982  1.00  0.00     0.013 A 
HETATM    9  C1  UNL     1       1.113  -0.490  22.347  1.00  0.00     0.068 C 
HETATM   10  N1  UNL     1       2.586   0.135  20.436  1.00  0.00    -0.359 N 
HETATM   11  C3  UNL     1       2.504   0.645  19.196  1.00  0.00     0.043 A 
ATOM     12  H1  UNL     1       3.456  -0.129  20.900  1.00  0.00     0.166 HD
HETATM   13  C4  UNL     1       3.455   0.947  18.248  1.00  0.00     0.030 A 
HETATM   14  C8  UNL     1       1.167   0.860  18.956  1.00  0.00    -0.001 A 
HETATM   15  C5  UNL     1       3.008   1.472  17.049  1.00  0.00     0.002 A 
HETATM   16  C6  UNL     1       1.664   1.693  16.796  1.00  0.00     0.001 A 
HETATM   17  C7  UNL     1       0.715   1.388  17.751  1.00  0.00     0.014 A 
ENDBRANCH   6   7
ENDBRANCH   3   6
ENDBRANCH   1   2
BRANCH   1  18
HETATM   18  C13 UNL     1      -2.787   4.926  20.207  1.00  0.00     0.073 C 
BRANCH  18  19
HETATM   19  C14 UNL     1      -2.033   5.990  20.867  1.00  0.00    -0.056 A 
HETATM   20  C15 UNL     1      -2.309   7.309  20.615  1.00  0.00     0.007 A 
HETATM   21  C16 UNL     1      -1.603   8.330  21.266  1.00  0.00     0.001 A 
HETATM   22  C17 UNL     1      -0.620   8.028  22.168  1.00  0.00     0.000 A 
HETATM   23  C18 UNL     1      -0.333   6.700  22.429  1.00  0.00     0.001 A 
HETATM   24  C19 UNL     1      -1.047   5.702  21.771  1.00  0.00     0.007 A 
ENDBRANCH  18  19
ENDBRANCH   1  18
BRANCH   1  25
HETATM   25  C20 UNL     1      -4.507   3.609  21.457  1.00  0.00     0.247 C 
HETATM   26  O2  UNL     1      -5.222   2.816  20.804  1.00  0.00    -0.271 OA
HETATM   27  N3  UNL     1      -5.071   4.337  22.519  1.00  0.00    -0.321 N 
HETATM   28  C21 UNL     1      -6.500   4.119  22.810  1.00  0.00     0.159 C 
BRANCH  27  29
HETATM   29  C22 UNL     1      -4.415   5.269  23.352  1.00  0.00     0.036 A 
HETATM   30  C23 UNL     1      -4.750   6.610  23.157  1.00  0.00     0.029 A 
HETATM   31  C24 UNL     1      -4.147   7.590  23.915  1.00  0.00     0.002 A 
HETATM   32  C25 UNL     1      -3.209   7.284  24.877  1.00  0.00     0.000 A 
HETATM   33  C26 UNL     1      -2.879   5.968  25.073  1.00  0.00     0.002 A 
HETATM   34  C27 UNL     1      -3.483   4.971  24.313  1.00  0.00     0.029 A 
ENDBRANCH  27  29
ENDBRANCH   1  25
TORSDOF 7
ENDMDL
