MODEL 10
REMARK VINA RESULT: -5.917982086      2.305      3.177
REMARK  1 active torsions:
REMARK  status: ('A' for Active; 'I' for Inactive)
REMARK    1  A    between atoms: C4_7  and  C5_8 
ROOT
HETATM    1  N1  UNL     1       7.638   0.642   6.978  1.00  0.00    -0.063 NA
HETATM    2  C1  UNL     1       7.272   1.452   8.102  1.00  0.00     0.192 A 
HETATM    3  N2  UNL     1       7.267   2.798   8.011  1.00  0.00    -0.340 N 
ATOM      4  H2  UNL     1       7.524   3.248   7.132  1.00  0.00     0.167 HD
HETATM    5  C2  UNL     1       6.923   3.547   9.074  1.00  0.00     0.093 A 
HETATM    6  C3  UNL     1       6.567   2.945  10.279  1.00  0.00     0.047 A 
HETATM    7  C4  UNL     1       6.571   1.572  10.377  1.00  0.00     0.047 A 
HETATM    8  N4  UNL     1       6.930   0.889   9.263  1.00  0.00    -0.330 N 
ATOM      9  H4  UNL     1       6.939  -0.130   9.315  1.00  0.00     0.168 HD
ENDROOT
BRANCH   7  10
HETATM   10  C5  UNL     1       6.212   0.867  11.601  1.00  0.00     0.006 A 
HETATM   11  C6  UNL     1       5.511   1.440  12.630  1.00  0.00     0.016 A 
HETATM   12  C7  UNL     1       5.200   0.701  13.783  1.00  0.00     0.018 A 
HETATM   13  C8  UNL     1       5.593  -0.613  13.900  1.00  0.00     0.087 A 
HETATM   14  N3  UNL     1       6.279  -1.153  12.879  1.00  0.00    -0.374 N 
HETATM   15  C9  UNL     1       6.590  -0.449  11.752  1.00  0.00     0.101 A 
ATOM     16  H3  UNL     1       6.579  -2.126  12.949  1.00  0.00     0.164 HD
ENDBRANCH   7  10
TORSDOF 1
ENDMDL
