MODEL 16
REMARK VINA RESULT: -5.595140481      2.903      4.516
REMARK  1 active torsions:
REMARK  status: ('A' for Active; 'I' for Inactive)
REMARK    1  A    between atoms: C4_7  and  C5_8 
ROOT
HETATM    1  N1  UNL     1       6.042  -1.234  12.616  1.00  0.00    -0.063 NA
HETATM    2  C1  UNL     1       6.705  -0.853  11.404  1.00  0.00     0.192 A 
HETATM    3  N2  UNL     1       7.742  -1.572  10.928  1.00  0.00    -0.340 N 
ATOM      4  H2  UNL     1       8.062  -2.398  11.434  1.00  0.00     0.167 HD
HETATM    5  C2  UNL     1       8.356  -1.203   9.789  1.00  0.00     0.093 A 
HETATM    6  C3  UNL     1       7.928  -0.077   9.087  1.00  0.00     0.047 A 
HETATM    7  C4  UNL     1       6.869   0.659   9.568  1.00  0.00     0.047 A 
HETATM    8  N4  UNL     1       6.306   0.223  10.721  1.00  0.00    -0.330 N 
ATOM      9  H4  UNL     1       5.520   0.755  11.094  1.00  0.00     0.168 HD
ENDROOT
BRANCH   7  10
HETATM   10  C5  UNL     1       6.362   1.847   8.893  1.00  0.00     0.006 A 
HETATM   11  C6  UNL     1       6.610   3.126   9.318  1.00  0.00     0.016 A 
HETATM   12  C7  UNL     1       6.089   4.227   8.619  1.00  0.00     0.018 A 
HETATM   13  C8  UNL     1       5.319   4.040   7.492  1.00  0.00     0.087 A 
HETATM   14  N3  UNL     1       5.089   2.777   7.095  1.00  0.00    -0.374 N 
HETATM   15  C9  UNL     1       5.588   1.697   7.763  1.00  0.00     0.101 A 
ATOM     16  H3  UNL     1       4.521   2.620   6.263  1.00  0.00     0.164 HD
ENDBRANCH   7  10
TORSDOF 1
ENDMDL
