MODEL 6
REMARK VINA RESULT: -6.089842571      2.737      4.765
REMARK  1 active torsions:
REMARK  status: ('A' for Active; 'I' for Inactive)
REMARK    1  A    between atoms: C4_7  and  C5_8 
ROOT
HETATM    1  N1  UNL     1       5.532  -0.608  13.894  1.00  0.00    -0.063 NA
HETATM    2  C1  UNL     1       6.161  -0.610  12.607  1.00  0.00     0.192 A 
HETATM    3  N2  UNL     1       6.809  -1.704  12.157  1.00  0.00    -0.340 N 
ATOM      4  H2  UNL     1       6.852  -2.543  12.736  1.00  0.00     0.167 HD
HETATM    5  C2  UNL     1       7.397  -1.693  10.947  1.00  0.00     0.093 A 
HETATM    6  C3  UNL     1       7.344  -0.554  10.145  1.00  0.00     0.047 A 
HETATM    7  C4  UNL     1       6.684   0.564  10.599  1.00  0.00     0.047 A 
HETATM    8  N4  UNL     1       6.119   0.473  11.828  1.00  0.00    -0.330 N 
ATOM      9  H4  UNL     1       5.625   1.292  12.183  1.00  0.00     0.168 HD
ENDROOT
BRANCH   7  10
HETATM   10  C5  UNL     1       6.584   1.792   9.821  1.00  0.00     0.006 A 
HETATM   11  C6  UNL     1       6.342   3.023  10.373  1.00  0.00     0.016 A 
HETATM   12  C7  UNL     1       6.257   4.168   9.562  1.00  0.00     0.018 A 
HETATM   13  C8  UNL     1       6.415   4.071   8.197  1.00  0.00     0.087 A 
HETATM   14  N3  UNL     1       6.651   2.854   7.680  1.00  0.00    -0.374 N 
HETATM   15  C9  UNL     1       6.736   1.734   8.453  1.00  0.00     0.101 A 
ATOM     16  H3  UNL     1       6.770   2.765   6.671  1.00  0.00     0.164 HD
ENDBRANCH   7  10
TORSDOF 1
ENDMDL
