MODEL 13
REMARK VINA RESULT: -5.753616911      2.777      4.608
REMARK  1 active torsions:
REMARK  status: ('A' for Active; 'I' for Inactive)
REMARK    1  A    between atoms: C4_7  and  C5_8 
ROOT
HETATM    1  N1  UNL     1       5.469  -1.046  13.418  1.00  0.00    -0.063 NA
HETATM    2  C1  UNL     1       6.222  -0.894  12.208  1.00  0.00     0.192 A 
HETATM    3  N2  UNL     1       7.057  -1.866  11.787  1.00  0.00    -0.340 N 
ATOM      4  H2  UNL     1       7.157  -2.721  12.333  1.00  0.00     0.167 HD
HETATM    5  C2  UNL     1       7.758  -1.710  10.649  1.00  0.00     0.093 A 
HETATM    6  C3  UNL     1       7.630  -0.546   9.893  1.00  0.00     0.047 A 
HETATM    7  C4  UNL     1       6.778   0.448  10.318  1.00  0.00     0.047 A 
HETATM    8  N4  UNL     1       6.109   0.215  11.473  1.00  0.00    -0.330 N 
ATOM      9  H4  UNL     1       5.473   0.939  11.806  1.00  0.00     0.168 HD
ENDROOT
BRANCH   7  10
HETATM   10  C5  UNL     1       6.589   1.692   9.584  1.00  0.00     0.006 A 
HETATM   11  C6  UNL     1       6.581   1.774   8.216  1.00  0.00     0.016 A 
HETATM   12  C7  UNL     1       6.394   3.009   7.573  1.00  0.00     0.018 A 
HETATM   13  C8  UNL     1       6.214   4.160   8.307  1.00  0.00     0.087 A 
HETATM   14  N3  UNL     1       6.226   4.055   9.646  1.00  0.00    -0.374 N 
HETATM   15  C9  UNL     1       6.407   2.864  10.286  1.00  0.00     0.101 A 
ATOM     16  H3  UNL     1       6.095   4.898  10.206  1.00  0.00     0.164 HD
ENDBRANCH   7  10
TORSDOF 1
ENDMDL
