MODEL 14
REMARK VINA RESULT: -5.718839242      3.259      4.713
REMARK  1 active torsions:
REMARK  status: ('A' for Active; 'I' for Inactive)
REMARK    1  A    between atoms: C4_7  and  C5_8 
ROOT
HETATM    1  N1  UNL     1       9.048  -1.717   8.577  1.00  0.00    -0.063 NA
HETATM    2  C1  UNL     1       8.256  -0.778   9.316  1.00  0.00     0.192 A 
HETATM    3  N2  UNL     1       8.035  -0.948  10.635  1.00  0.00    -0.340 N 
ATOM      4  H2  UNL     1       8.435  -1.753  11.117  1.00  0.00     0.167 HD
HETATM    5  C2  UNL     1       7.289  -0.059  11.317  1.00  0.00     0.093 A 
HETATM    6  C3  UNL     1       6.737   1.045  10.670  1.00  0.00     0.047 A 
HETATM    7  C4  UNL     1       6.960   1.223   9.324  1.00  0.00     0.047 A 
HETATM    8  N4  UNL     1       7.721   0.284   8.709  1.00  0.00    -0.330 N 
ATOM      9  H4  UNL     1       7.898   0.398   7.711  1.00  0.00     0.168 HD
ENDROOT
BRANCH   7  10
HETATM   10  C5  UNL     1       6.419   2.351   8.576  1.00  0.00     0.006 A 
HETATM   11  C6  UNL     1       6.125   3.565   9.140  1.00  0.00     0.016 A 
HETATM   12  C7  UNL     1       5.604   4.610   8.360  1.00  0.00     0.018 A 
HETATM   13  C8  UNL     1       5.380   4.432   7.012  1.00  0.00     0.087 A 
HETATM   14  N3  UNL     1       5.676   3.234   6.482  1.00  0.00    -0.374 N 
HETATM   15  C9  UNL     1       6.182   2.209   7.227  1.00  0.00     0.101 A 
ATOM     16  H3  UNL     1       5.516   3.086   5.486  1.00  0.00     0.164 HD
ENDBRANCH   7  10
TORSDOF 1
ENDMDL
