MODEL 19
REMARK VINA RESULT: -5.456120732      3.513      4.398
REMARK  1 active torsions:
REMARK  status: ('A' for Active; 'I' for Inactive)
REMARK    1  A    between atoms: C4_7  and  C5_8 
ROOT
HETATM    1  N1  UNL     1       5.273   3.153   5.079  1.00  0.00    -0.063 NA
HETATM    2  C1  UNL     1       5.559   3.353   6.469  1.00  0.00     0.192 A 
HETATM    3  N2  UNL     1       5.574   4.592   7.000  1.00  0.00    -0.340 N 
ATOM      4  H2  UNL     1       5.379   5.400   6.409  1.00  0.00     0.167 HD
HETATM    5  C2  UNL     1       5.845   4.766   8.306  1.00  0.00     0.093 A 
HETATM    6  C3  UNL     1       6.113   3.670   9.125  1.00  0.00     0.047 A 
HETATM    7  C4  UNL     1       6.098   2.403   8.588  1.00  0.00     0.047 A 
HETATM    8  N4  UNL     1       5.817   2.313   7.265  1.00  0.00    -0.330 N 
ATOM      9  H4  UNL     1       5.802   1.382   6.847  1.00  0.00     0.168 HD
ENDROOT
BRANCH   7  10
HETATM   10  C5  UNL     1       6.367   1.208   9.377  1.00  0.00     0.006 A 
HETATM   11  C6  UNL     1       6.679   1.233  10.711  1.00  0.00     0.016 A 
HETATM   12  C7  UNL     1       6.927   0.041  11.412  1.00  0.00     0.018 A 
HETATM   13  C8  UNL     1       6.861  -1.175  10.768  1.00  0.00     0.087 A 
HETATM   14  N3  UNL     1       6.554  -1.175   9.460  1.00  0.00    -0.374 N 
HETATM   15  C9  UNL     1       6.310  -0.026   8.766  1.00  0.00     0.101 A 
ATOM     16  H3  UNL     1       6.501  -2.066   8.968  1.00  0.00     0.164 HD
ENDBRANCH   7  10
TORSDOF 1
ENDMDL
