MODEL 17
REMARK VINA RESULT: -5.537313780      2.377      3.016
REMARK  1 active torsions:
REMARK  status: ('A' for Active; 'I' for Inactive)
REMARK    1  A    between atoms: C4_7  and  C5_8 
ROOT
HETATM    1  N1  UNL     1       6.837   4.025   8.395  1.00  0.00    -0.063 NA
HETATM    2  C1  UNL     1       6.961   2.630   8.697  1.00  0.00     0.192 A 
HETATM    3  N2  UNL     1       7.452   1.767   7.784  1.00  0.00    -0.340 N 
ATOM      4  H2  UNL     1       7.742   2.108   6.867  1.00  0.00     0.167 HD
HETATM    5  C2  UNL     1       7.562   0.459   8.080  1.00  0.00     0.093 A 
HETATM    6  C3  UNL     1       7.172  -0.019   9.329  1.00  0.00     0.047 A 
HETATM    7  C4  UNL     1       6.670   0.857  10.264  1.00  0.00     0.047 A 
HETATM    8  N4  UNL     1       6.591   2.158   9.889  1.00  0.00    -0.330 N 
ATOM      9  H4  UNL     1       6.221   2.823  10.567  1.00  0.00     0.168 HD
ENDROOT
BRANCH   7  10
HETATM   10  C5  UNL     1       6.241   0.436  11.591  1.00  0.00     0.006 A 
HETATM   11  C6  UNL     1       5.627   1.267  12.490  1.00  0.00     0.016 A 
HETATM   12  C7  UNL     1       5.239   0.794  13.755  1.00  0.00     0.018 A 
HETATM   13  C8  UNL     1       5.471  -0.516  14.113  1.00  0.00     0.087 A 
HETATM   14  N3  UNL     1       6.074  -1.312  13.215  1.00  0.00    -0.374 N 
HETATM   15  C9  UNL     1       6.456  -0.868  11.983  1.00  0.00     0.101 A 
ATOM     16  H3  UNL     1       6.253  -2.285  13.463  1.00  0.00     0.164 HD
ENDBRANCH   7  10
TORSDOF 1
ENDMDL
