MODEL 1
REMARK VINA RESULT: -6.129561874      0.000      0.000
REMARK  7 active torsions:
REMARK  status: ('A' for Active; 'I' for Inactive)
REMARK    1  A    between atoms: C2_2  and  N1_3 
REMARK    2  A    between atoms: N1_3  and  C3_4 
REMARK    3  A    between atoms: N1_3  and  C5_6 
REMARK    4  A    between atoms: C5_6  and  O1_7 
REMARK    5  A    between atoms: C5_6  and  C6_9 
REMARK    6  A    between atoms: C9_12  and  O2_13 
REMARK    7  A    between atoms: C10_15  and  O3_16 
ROOT
HETATM    1  C6  UNL     1      64.739  35.410  25.588  1.00  0.00     0.017 A 
HETATM    2  C7  UNL     1      64.759  35.423  24.222  1.00  0.00     0.018 A 
HETATM    3  C8  UNL     1      65.238  36.556  23.537  1.00  0.00     0.040 A 
HETATM    4  C9  UNL     1      65.689  37.656  24.214  1.00  0.00     0.099 A 
HETATM    5  C10 UNL     1      65.687  37.685  25.583  1.00  0.00     0.102 A 
HETATM    6  C12 UNL     1      65.221  36.583  26.239  1.00  0.00     0.055 A 
ENDROOT
BRANCH   1   7
HETATM    7  C5  UNL     1      64.235  34.329  26.371  1.00  0.00     0.148 C 
BRANCH   7   8
HETATM    8  N1  UNL     1      64.890  33.337  27.064  1.00  0.00    -0.362 N 
BRANCH   8   9
HETATM    9  C2  UNL     1      66.272  33.066  27.180  1.00  0.00     0.120 C 
HETATM   10  C1  UNL     1      66.769  31.852  26.430  1.00  0.00     0.026 C 
ENDBRANCH   8   9
BRANCH   8  11
HETATM   11  C3  UNL     1      63.981  32.397  27.827  1.00  0.00     0.120 C 
HETATM   12  C4  UNL     1      64.481  32.346  29.227  1.00  0.00     0.026 C 
ENDBRANCH   8  11
ENDBRANCH   7   8
BRANCH   7  13
HETATM   13  O1  UNL     1      62.908  34.305  26.413  1.00  0.00    -0.346 OA
ATOM     14  H1  UNL     1      62.456  35.018  25.976  1.00  0.00     0.219 HD
ENDBRANCH   7  13
ENDBRANCH   1   7
BRANCH   5  15
HETATM   15  O3  UNL     1      66.135  38.779  26.318  1.00  0.00    -0.353 OA
HETATM   16  C11 UNL     1      66.448  38.697  27.689  1.00  0.00     0.210 C 
ENDBRANCH   5  15
BRANCH   4  17
HETATM   17  O2  UNL     1      66.161  38.775  23.518  1.00  0.00    -0.358 OA
ATOM     18  H2  UNL     1      66.124  39.638  23.912  1.00  0.00     0.217 HD
ENDBRANCH   4  17
TORSDOF 7
ENDMDL
