MODEL 4
REMARK VINA RESULT: -6.059944937      1.187      1.187
REMARK  7 active torsions:
REMARK  status: ('A' for Active; 'I' for Inactive)
REMARK    1  A    between atoms: C2_2  and  N1_3 
REMARK    2  A    between atoms: N1_3  and  C3_4 
REMARK    3  A    between atoms: N1_3  and  C5_6 
REMARK    4  A    between atoms: C5_6  and  O1_7 
REMARK    5  A    between atoms: C5_6  and  C6_9 
REMARK    6  A    between atoms: C9_12  and  O2_13 
REMARK    7  A    between atoms: C10_15  and  O3_16 
ROOT
HETATM    1  C6  UNL     1      64.898  35.016  25.736  1.00  0.00     0.017 A 
HETATM    2  C7  UNL     1      64.567  35.204  24.423  1.00  0.00     0.018 A 
HETATM    3  C8  UNL     1      65.338  36.066  23.620  1.00  0.00     0.040 A 
HETATM    4  C9  UNL     1      66.423  36.727  24.129  1.00  0.00     0.099 A 
HETATM    5  C10 UNL     1      66.789  36.568  25.438  1.00  0.00     0.102 A 
HETATM    6  C12 UNL     1      66.037  35.731  26.209  1.00  0.00     0.055 A 
ENDROOT
BRANCH   1   7
HETATM    7  C5  UNL     1      64.155  34.199  26.639  1.00  0.00     0.148 C 
BRANCH   7   8
HETATM    8  N1  UNL     1      64.536  33.109  27.388  1.00  0.00    -0.362 N 
BRANCH   8   9
HETATM    9  C2  UNL     1      65.823  32.589  27.652  1.00  0.00     0.120 C 
HETATM   10  C1  UNL     1      66.403  31.694  26.581  1.00  0.00     0.026 C 
ENDBRANCH   8   9
BRANCH   8  11
HETATM   11  C3  UNL     1      63.392  32.360  28.035  1.00  0.00     0.120 C 
HETATM   12  C4  UNL     1      63.819  32.020  29.419  1.00  0.00     0.026 C 
ENDBRANCH   8  11
ENDBRANCH   7   8
BRANCH   7  13
HETATM   13  O1  UNL     1      62.888  34.580  26.748  1.00  0.00    -0.346 OA
ATOM     14  H1  UNL     1      62.684  35.464  26.464  1.00  0.00     0.219 HD
ENDBRANCH   7  13
ENDBRANCH   1   7
BRANCH   5  15
HETATM   15  O3  UNL     1      67.884  37.216  26.003  1.00  0.00    -0.353 OA
HETATM   16  C11 UNL     1      68.266  37.035  27.346  1.00  0.00     0.210 C 
ENDBRANCH   5  15
BRANCH   4  17
HETATM   17  O2  UNL     1      67.179  37.580  23.317  1.00  0.00    -0.358 OA
ATOM     18  H2  UNL     1      67.304  38.490  23.559  1.00  0.00     0.217 HD
ENDBRANCH   4  17
TORSDOF 7
ENDMDL
