MODEL 13
REMARK VINA RESULT: -5.898245169      2.225      5.835
REMARK  7 active torsions:
REMARK  status: ('A' for Active; 'I' for Inactive)
REMARK    1  A    between atoms: C2_2  and  N1_3 
REMARK    2  A    between atoms: N1_3  and  C3_4 
REMARK    3  A    between atoms: N1_3  and  C5_6 
REMARK    4  A    between atoms: C5_6  and  O1_7 
REMARK    5  A    between atoms: C5_6  and  C6_9 
REMARK    6  A    between atoms: C9_12  and  O2_13 
REMARK    7  A    between atoms: C10_15  and  O3_16 
ROOT
HETATM    1  C6  UNL     1      65.379  35.299  25.508  1.00  0.00     0.017 A 
HETATM    2  C7  UNL     1      64.060  35.321  25.868  1.00  0.00     0.018 A 
HETATM    3  C8  UNL     1      63.532  34.287  26.665  1.00  0.00     0.040 A 
HETATM    4  C9  UNL     1      64.316  33.251  27.093  1.00  0.00     0.099 A 
HETATM    5  C10 UNL     1      65.642  33.190  26.756  1.00  0.00     0.102 A 
HETATM    6  C12 UNL     1      66.145  34.196  25.984  1.00  0.00     0.055 A 
ENDROOT
BRANCH   1   7
HETATM    7  C5  UNL     1      65.995  36.276  24.670  1.00  0.00     0.148 C 
BRANCH   7   8
HETATM    8  N1  UNL     1      65.462  37.349  23.996  1.00  0.00    -0.362 N 
BRANCH   8   9
HETATM    9  C2  UNL     1      65.248  38.679  24.423  1.00  0.00     0.120 C 
HETATM   10  C1  UNL     1      65.330  38.912  25.914  1.00  0.00     0.026 C 
ENDBRANCH   8   9
BRANCH   8  11
HETATM   11  C3  UNL     1      65.051  37.055  22.569  1.00  0.00     0.120 C 
HETATM   12  C4  UNL     1      65.913  37.884  21.686  1.00  0.00     0.026 C 
ENDBRANCH   8  11
ENDBRANCH   7   8
BRANCH   7  13
HETATM   13  O1  UNL     1      67.303  36.082  24.540  1.00  0.00    -0.346 OA
ATOM     14  H1  UNL     1      67.609  35.186  24.613  1.00  0.00     0.219 HD
ENDBRANCH   7  13
ENDBRANCH   1   7
BRANCH   5  15
HETATM   15  O3  UNL     1      66.481  32.158  27.166  1.00  0.00    -0.353 OA
HETATM   16  C11 UNL     1      66.922  31.144  26.295  1.00  0.00     0.210 C 
ENDBRANCH   5  15
BRANCH   4  17
HETATM   17  O2  UNL     1      63.776  32.231  27.884  1.00  0.00    -0.358 OA
ATOM     18  H2  UNL     1      62.836  32.159  28.001  1.00  0.00     0.217 HD
ENDBRANCH   4  17
TORSDOF 7
ENDMDL
