MODEL 3
REMARK VINA RESULT: -6.069131872      2.586      5.305
REMARK  7 active torsions:
REMARK  status: ('A' for Active; 'I' for Inactive)
REMARK    1  A    between atoms: C2_2  and  N1_3 
REMARK    2  A    between atoms: N1_3  and  C3_4 
REMARK    3  A    between atoms: N1_3  and  C5_6 
REMARK    4  A    between atoms: C5_6  and  O1_7 
REMARK    5  A    between atoms: C5_6  and  C6_9 
REMARK    6  A    between atoms: C9_12  and  O2_13 
REMARK    7  A    between atoms: C10_15  and  O3_16 
ROOT
HETATM    1  C6  UNL     1      64.785  34.857  25.246  1.00  0.00     0.017 A 
HETATM    2  C7  UNL     1      63.587  34.499  25.797  1.00  0.00     0.018 A 
HETATM    3  C8  UNL     1      63.557  33.679  26.941  1.00  0.00     0.040 A 
HETATM    4  C9  UNL     1      64.712  33.227  27.520  1.00  0.00     0.099 A 
HETATM    5  C10 UNL     1      65.933  33.563  27.001  1.00  0.00     0.102 A 
HETATM    6  C12 UNL     1      65.953  34.358  25.892  1.00  0.00     0.055 A 
ENDROOT
BRANCH   1   7
HETATM    7  C5  UNL     1      64.917  35.648  24.065  1.00  0.00     0.148 C 
BRANCH   7   8
HETATM    8  N1  UNL     1      65.680  36.764  23.811  1.00  0.00    -0.362 N 
BRANCH   8   9
HETATM    9  C2  UNL     1      67.074  36.891  23.618  1.00  0.00     0.120 C 
HETATM   10  C1  UNL     1      67.500  37.595  22.349  1.00  0.00     0.026 C 
ENDBRANCH   8   9
BRANCH   8  11
HETATM   11  C3  UNL     1      64.894  38.054  23.713  1.00  0.00     0.120 C 
HETATM   12  C4  UNL     1      65.137  38.810  24.971  1.00  0.00     0.026 C 
ENDBRANCH   8  11
ENDBRANCH   7   8
BRANCH   7  13
HETATM   13  O1  UNL     1      64.161  35.205  23.067  1.00  0.00    -0.346 OA
ATOM     14  H1  UNL     1      64.057  35.786  22.323  1.00  0.00     0.219 HD
ENDBRANCH   7  13
ENDBRANCH   1   7
BRANCH   5  15
HETATM   15  O3  UNL     1      67.136  33.131  27.552  1.00  0.00    -0.353 OA
HETATM   16  C11 UNL     1      68.389  33.559  27.074  1.00  0.00     0.210 C 
ENDBRANCH   5  15
BRANCH   4  17
HETATM   17  O2  UNL     1      64.665  32.413  28.657  1.00  0.00    -0.358 OA
ATOM     18  H2  UNL     1      64.107  31.644  28.677  1.00  0.00     0.217 HD
ENDBRANCH   4  17
TORSDOF 7
ENDMDL
