MODEL 5
REMARK VINA RESULT: -6.022471686      1.692      2.773
REMARK  7 active torsions:
REMARK  status: ('A' for Active; 'I' for Inactive)
REMARK    1  A    between atoms: C2_2  and  N1_3 
REMARK    2  A    between atoms: N1_3  and  C3_4 
REMARK    3  A    between atoms: N1_3  and  C5_6 
REMARK    4  A    between atoms: C5_6  and  O1_7 
REMARK    5  A    between atoms: C5_6  and  C6_9 
REMARK    6  A    between atoms: C9_12  and  O2_13 
REMARK    7  A    between atoms: C10_15  and  O3_16 
ROOT
HETATM    1  C6  UNL     1      66.013  36.075  24.901  1.00  0.00     0.017 A 
HETATM    2  C7  UNL     1      67.091  36.430  25.662  1.00  0.00     0.018 A 
HETATM    3  C8  UNL     1      67.826  37.588  25.343  1.00  0.00     0.040 A 
HETATM    4  C9  UNL     1      67.482  38.375  24.278  1.00  0.00     0.099 A 
HETATM    5  C10 UNL     1      66.409  38.057  23.490  1.00  0.00     0.102 A 
HETATM    6  C12 UNL     1      65.702  36.934  23.806  1.00  0.00     0.055 A 
ENDROOT
BRANCH   1   7
HETATM    7  C5  UNL     1      65.232  34.901  25.117  1.00  0.00     0.148 C 
BRANCH   7   8
HETATM    8  N1  UNL     1      65.040  34.144  26.250  1.00  0.00    -0.362 N 
BRANCH   8   9
HETATM    9  C2  UNL     1      65.968  33.420  27.031  1.00  0.00     0.120 C 
HETATM   10  C1  UNL     1      67.021  32.655  26.261  1.00  0.00     0.026 C 
ENDBRANCH   8   9
BRANCH   8  11
HETATM   11  C3  UNL     1      63.607  34.091  26.735  1.00  0.00     0.120 C 
HETATM   12  C4  UNL     1      63.537  33.031  27.775  1.00  0.00     0.026 C 
ENDBRANCH   8  11
ENDBRANCH   7   8
BRANCH   7  13
HETATM   13  O1  UNL     1      64.603  34.497  24.019  1.00  0.00    -0.346 OA
ATOM     14  H1  UNL     1      63.787  34.937  23.811  1.00  0.00     0.219 HD
ENDBRANCH   7  13
ENDBRANCH   1   7
BRANCH   5  15
HETATM   15  O3  UNL     1      66.017  38.825  22.397  1.00  0.00    -0.353 OA
HETATM   16  C11 UNL     1      66.243  38.425  21.066  1.00  0.00     0.210 C 
ENDBRANCH   5  15
BRANCH   4  17
HETATM   17  O2  UNL     1      68.223  39.523  23.975  1.00  0.00    -0.358 OA
ATOM     18  H2  UNL     1      67.787  40.355  23.835  1.00  0.00     0.217 HD
ENDBRANCH   4  17
TORSDOF 7
ENDMDL
