MODEL 2
REMARK VINA RESULT: -6.097247531      2.532      5.474
REMARK  7 active torsions:
REMARK  status: ('A' for Active; 'I' for Inactive)
REMARK    1  A    between atoms: C2_2  and  N1_3 
REMARK    2  A    between atoms: N1_3  and  C3_4 
REMARK    3  A    between atoms: N1_3  and  C5_6 
REMARK    4  A    between atoms: C5_6  and  O1_7 
REMARK    5  A    between atoms: C5_6  and  C6_9 
REMARK    6  A    between atoms: C9_12  and  O2_13 
REMARK    7  A    between atoms: C10_15  and  O3_16 
ROOT
HETATM    1  C6  UNL     1      64.666  34.660  25.435  1.00  0.00     0.017 A 
HETATM    2  C7  UNL     1      63.514  34.296  26.076  1.00  0.00     0.018 A 
HETATM    3  C8  UNL     1      63.577  33.498  27.234  1.00  0.00     0.040 A 
HETATM    4  C9  UNL     1      64.776  33.074  27.739  1.00  0.00     0.099 A 
HETATM    5  C10 UNL     1      65.953  33.415  27.129  1.00  0.00     0.102 A 
HETATM    6  C12 UNL     1      65.883  34.189  26.008  1.00  0.00     0.055 A 
ENDROOT
BRANCH   1   7
HETATM    7  C5  UNL     1      64.704  35.430  24.235  1.00  0.00     0.148 C 
BRANCH   7   8
HETATM    8  N1  UNL     1      65.244  36.669  23.976  1.00  0.00    -0.362 N 
BRANCH   8   9
HETATM    9  C2  UNL     1      65.980  37.535  24.814  1.00  0.00     0.120 C 
HETATM   10  C1  UNL     1      65.163  38.410  25.737  1.00  0.00     0.026 C 
ENDBRANCH   8   9
BRANCH   8  11
HETATM   11  C3  UNL     1      65.017  37.172  22.567  1.00  0.00     0.120 C 
HETATM   12  C4  UNL     1      66.266  37.857  22.141  1.00  0.00     0.026 C 
ENDBRANCH   8  11
ENDBRANCH   7   8
BRANCH   7  13
HETATM   13  O1  UNL     1      64.107  34.818  23.218  1.00  0.00    -0.346 OA
ATOM     14  H1  UNL     1      64.646  34.633  22.458  1.00  0.00     0.219 HD
ENDBRANCH   7  13
ENDBRANCH   1   7
BRANCH   5  15
HETATM   15  O3  UNL     1      67.197  33.011  27.604  1.00  0.00    -0.353 OA
HETATM   16  C11 UNL     1      68.407  33.522  27.097  1.00  0.00     0.210 C 
ENDBRANCH   5  15
BRANCH   4  17
HETATM   17  O2  UNL     1      64.820  32.281  28.891  1.00  0.00    -0.358 OA
ATOM     18  H2  UNL     1      64.944  31.341  28.825  1.00  0.00     0.217 HD
ENDBRANCH   4  17
TORSDOF 7
ENDMDL
