MODEL 8
REMARK VINA RESULT: -5.941925905      2.284      5.743
REMARK  7 active torsions:
REMARK  status: ('A' for Active; 'I' for Inactive)
REMARK    1  A    between atoms: C2_2  and  N1_3 
REMARK    2  A    between atoms: N1_3  and  C3_4 
REMARK    3  A    between atoms: N1_3  and  C5_6 
REMARK    4  A    between atoms: C5_6  and  O1_7 
REMARK    5  A    between atoms: C5_6  and  C6_9 
REMARK    6  A    between atoms: C9_12  and  O2_13 
REMARK    7  A    between atoms: C10_15  and  O3_16 
ROOT
HETATM    1  C6  UNL     1      65.424  35.240  25.518  1.00  0.00     0.017 A 
HETATM    2  C7  UNL     1      64.093  35.443  25.753  1.00  0.00     0.018 A 
HETATM    3  C8  UNL     1      63.352  34.487  26.474  1.00  0.00     0.040 A 
HETATM    4  C9  UNL     1      63.940  33.346  26.950  1.00  0.00     0.099 A 
HETATM    5  C10 UNL     1      65.270  33.103  26.737  1.00  0.00     0.102 A 
HETATM    6  C12 UNL     1      65.981  34.035  26.038  1.00  0.00     0.055 A 
ENDROOT
BRANCH   1   7
HETATM    7  C5  UNL     1      66.248  36.127  24.764  1.00  0.00     0.148 C 
BRANCH   7   8
HETATM    8  N1  UNL     1      65.919  37.174  23.935  1.00  0.00    -0.362 N 
BRANCH   8   9
HETATM    9  C2  UNL     1      65.272  37.175  22.679  1.00  0.00     0.120 C 
HETATM   10  C1  UNL     1      65.945  37.983  21.593  1.00  0.00     0.026 C 
ENDBRANCH   8   9
BRANCH   8  11
HETATM   11  C3  UNL     1      66.307  38.539  24.462  1.00  0.00     0.120 C 
HETATM   12  C4  UNL     1      65.156  39.044  25.257  1.00  0.00     0.026 C 
ENDBRANCH   8  11
ENDBRANCH   7   8
BRANCH   7  13
HETATM   13  O1  UNL     1      67.543  35.867  24.908  1.00  0.00    -0.346 OA
ATOM     14  H1  UNL     1      67.890  35.143  24.399  1.00  0.00     0.219 HD
ENDBRANCH   7  13
ENDBRANCH   1   7
BRANCH   5  15
HETATM   15  O3  UNL     1      65.915  31.959  27.201  1.00  0.00    -0.353 OA
HETATM   16  C11 UNL     1      66.752  31.175  26.384  1.00  0.00     0.210 C 
ENDBRANCH   5  15
BRANCH   4  17
HETATM   17  O2  UNL     1      63.190  32.406  27.664  1.00  0.00    -0.358 OA
ATOM     18  H2  UNL     1      63.501  31.514  27.761  1.00  0.00     0.217 HD
ENDBRANCH   4  17
TORSDOF 7
ENDMDL
