MODEL 9
REMARK VINA RESULT: -6.415529441      2.970      4.962
REMARK  2 active torsions:
REMARK  status: ('A' for Active; 'I' for Inactive)
REMARK    1  A    between atoms: O1_2  and  C2_3 
REMARK    2  A    between atoms: C7_8  and  C8_9 
ROOT
HETATM    1  C8  UNL     1       6.996  -2.102   9.666  1.00  0.00     0.050 A 
HETATM    2  C9  UNL     1       7.907  -2.894   9.013  1.00  0.00     0.072 A 
HETATM    3  C10 UNL     1       8.322  -4.103   9.553  1.00  0.00     0.107 A 
HETATM    4 CL1  UNL     1       9.482  -5.077   8.689  1.00  0.00    -0.064 Cl
HETATM    5  N1  UNL     1       7.795  -4.457  10.735  1.00  0.00    -0.321 N 
ATOM      6  H1  UNL     1       8.087  -5.343  11.148  1.00  0.00     0.169 HD
HETATM    7  C11 UNL     1       6.909  -3.715  11.399  1.00  0.00     0.194 A 
HETATM    8  N2  UNL     1       6.395  -4.164  12.654  1.00  0.00    -0.063 NA
HETATM    9  N3  UNL     1       6.532  -2.555  10.845  1.00  0.00    -0.330 N 
ATOM     10  H3  UNL     1       5.853  -1.981  11.346  1.00  0.00     0.168 HD
ENDROOT
BRANCH   1  11
HETATM   11  C7  UNL     1       6.552  -0.836   9.115  1.00  0.00     0.024 A 
HETATM   12  C2  UNL     1       6.658   0.297   9.905  1.00  0.00     0.080 A 
HETATM   13  C3  UNL     1       6.248   1.540   9.431  1.00  0.00     0.037 A 
HETATM   14  C4  UNL     1       5.724   1.687   8.165  1.00  0.00     0.003 A 
HETATM   15  C5  UNL     1       5.614   0.567   7.375  1.00  0.00     0.001 A 
HETATM   16  C6  UNL     1       6.030  -0.685   7.857  1.00  0.00     0.016 A 
BRANCH  12  17
HETATM   17  O1  UNL     1       7.186   0.146  11.178  1.00  0.00    -0.355 OA
HETATM   18  C1  UNL     1       8.145   1.092  11.608  1.00  0.00     0.210 C 
ENDBRANCH  12  17
ENDBRANCH   1  11
TORSDOF 2
ENDMDL
