MODEL 3
REMARK VINA RESULT: -6.559134007      2.328      3.397
REMARK  2 active torsions:
REMARK  status: ('A' for Active; 'I' for Inactive)
REMARK    1  A    between atoms: O1_2  and  C2_3 
REMARK    2  A    between atoms: C7_8  and  C8_9 
ROOT
HETATM    1  C8  UNL     1       6.527  -1.877   8.941  1.00  0.00     0.050 A 
HETATM    2  C9  UNL     1       6.407  -0.577   8.515  1.00  0.00     0.072 A 
HETATM    3  C10 UNL     1       6.523   0.481   9.404  1.00  0.00     0.107 A 
HETATM    4 CL1  UNL     1       6.364   2.116   8.819  1.00  0.00    -0.064 Cl
HETATM    5  N1  UNL     1       6.754   0.177  10.690  1.00  0.00    -0.321 N 
ATOM      6  H1  UNL     1       6.843   0.941  11.359  1.00  0.00     0.169 HD
HETATM    7  C11 UNL     1       6.875  -1.072  11.142  1.00  0.00     0.194 A 
HETATM    8  N2  UNL     1       7.122  -1.311  12.528  1.00  0.00    -0.063 NA
HETATM    9  N3  UNL     1       6.759  -2.067  10.253  1.00  0.00    -0.330 N 
ATOM     10  H3  UNL     1       6.852  -3.026  10.589  1.00  0.00     0.168 HD
ENDROOT
BRANCH   1  11
HETATM   11  C7  UNL     1       6.409  -2.994   8.024  1.00  0.00     0.024 A 
HETATM   12  C2  UNL     1       7.508  -3.821   7.852  1.00  0.00     0.080 A 
HETATM   13  C3  UNL     1       7.455  -4.909   6.986  1.00  0.00     0.037 A 
HETATM   14  C4  UNL     1       6.314  -5.202   6.271  1.00  0.00     0.003 A 
HETATM   15  C5  UNL     1       5.219  -4.385   6.436  1.00  0.00     0.001 A 
HETATM   16  C6  UNL     1       5.277  -3.290   7.312  1.00  0.00     0.016 A 
BRANCH  12  17
HETATM   17  O1  UNL     1       8.654  -3.524   8.572  1.00  0.00    -0.355 OA
HETATM   18  C1  UNL     1       9.410  -4.606   9.081  1.00  0.00     0.210 C 
ENDBRANCH  12  17
ENDBRANCH   1  11
TORSDOF 2
ENDMDL
