MODEL 18
REMARK VINA RESULT: -5.969393646      2.840      4.342
REMARK  2 active torsions:
REMARK  status: ('A' for Active; 'I' for Inactive)
REMARK    1  A    between atoms: O1_2  and  C2_3 
REMARK    2  A    between atoms: C7_8  and  C8_9 
ROOT
HETATM    1  C8  UNL     1       6.625  -2.271   8.627  1.00  0.00     0.050 A 
HETATM    2  C9  UNL     1       7.567  -3.194   8.244  1.00  0.00     0.072 A 
HETATM    3  C10 UNL     1       8.341  -3.858   9.185  1.00  0.00     0.107 A 
HETATM    4 CL1  UNL     1       9.525  -5.023   8.655  1.00  0.00    -0.064 Cl
HETATM    5  N1  UNL     1       8.128  -3.556  10.475  1.00  0.00    -0.321 N 
ATOM      6  H1  UNL     1       8.687  -4.034  11.181  1.00  0.00     0.169 HD
HETATM    7  C11 UNL     1       7.225  -2.665  10.884  1.00  0.00     0.194 A 
HETATM    8  N2  UNL     1       7.059  -2.401  12.278  1.00  0.00    -0.063 NA
HETATM    9  N3  UNL     1       6.495  -2.046   9.947  1.00  0.00    -0.330 N 
ATOM     10  H3  UNL     1       5.800  -1.364  10.251  1.00  0.00     0.168 HD
ENDROOT
BRANCH   1  11
HETATM   11  C7  UNL     1       5.807  -1.569   7.656  1.00  0.00     0.024 A 
HETATM   12  C2  UNL     1       5.887  -0.185   7.609  1.00  0.00     0.080 A 
HETATM   13  C3  UNL     1       5.126   0.543   6.699  1.00  0.00     0.037 A 
HETATM   14  C4  UNL     1       4.271  -0.081   5.817  1.00  0.00     0.003 A 
HETATM   15  C5  UNL     1       4.186  -1.453   5.859  1.00  0.00     0.001 A 
HETATM   16  C6  UNL     1       4.956  -2.184   6.778  1.00  0.00     0.016 A 
BRANCH  12  17
HETATM   17  O1  UNL     1       6.747   0.440   8.497  1.00  0.00    -0.355 OA
HETATM   18  C1  UNL     1       6.445   1.766   8.882  1.00  0.00     0.210 C 
ENDBRANCH  12  17
ENDBRANCH   1  11
TORSDOF 2
ENDMDL
