MODEL 8
REMARK VINA RESULT: -6.465931720      1.595      2.128
REMARK  2 active torsions:
REMARK  status: ('A' for Active; 'I' for Inactive)
REMARK    1  A    between atoms: O1_2  and  C2_3 
REMARK    2  A    between atoms: C7_8  and  C8_9 
ROOT
HETATM    1  C8  UNL     1       7.257  -3.115  10.048  1.00  0.00     0.050 A 
HETATM    2  C9  UNL     1       7.344  -1.747  10.125  1.00  0.00     0.072 A 
HETATM    3  C10 UNL     1       6.912  -1.065  11.253  1.00  0.00     0.107 A 
HETATM    4 CL1  UNL     1       7.041   0.674  11.308  1.00  0.00    -0.064 Cl
HETATM    5  N1  UNL     1       6.408  -1.800  12.256  1.00  0.00    -0.321 N 
ATOM      6  H1  UNL     1       6.086  -1.316  13.094  1.00  0.00     0.169 HD
HETATM    7  C11 UNL     1       6.307  -3.128  12.218  1.00  0.00     0.194 A 
HETATM    8  N2  UNL     1       5.759  -3.838  13.330  1.00  0.00    -0.063 NA
HETATM    9  N3  UNL     1       6.736  -3.752  11.113  1.00  0.00    -0.330 N 
ATOM     10  H3  UNL     1       6.664  -4.769  11.075  1.00  0.00     0.168 HD
ENDROOT
BRANCH   1  11
HETATM   11  C7  UNL     1       7.705  -3.843   8.876  1.00  0.00     0.024 A 
HETATM   12  C2  UNL     1       6.808  -4.026   7.835  1.00  0.00     0.080 A 
HETATM   13  C3  UNL     1       7.181  -4.717   6.686  1.00  0.00     0.037 A 
HETATM   14  C4  UNL     1       8.446  -5.241   6.542  1.00  0.00     0.003 A 
HETATM   15  C5  UNL     1       9.341  -5.064   7.571  1.00  0.00     0.001 A 
HETATM   16  C6  UNL     1       8.962  -4.366   8.729  1.00  0.00     0.016 A 
BRANCH  12  17
HETATM   17  O1  UNL     1       5.536  -3.498   7.983  1.00  0.00    -0.355 OA
HETATM   18  C1  UNL     1       4.701  -3.468   6.842  1.00  0.00     0.210 C 
ENDBRANCH  12  17
ENDBRANCH   1  11
TORSDOF 2
ENDMDL
