MODEL 1
REMARK VINA RESULT: -6.901365906      0.000      0.000
REMARK  2 active torsions:
REMARK  status: ('A' for Active; 'I' for Inactive)
REMARK    1  A    between atoms: O1_2  and  C2_3 
REMARK    2  A    between atoms: C7_8  and  C8_9 
ROOT
HETATM    1  C8  UNL     1       7.263  -2.920   9.799  1.00  0.00     0.050 A 
HETATM    2  C9  UNL     1       7.165  -3.456  11.059  1.00  0.00     0.072 A 
HETATM    3  C10 UNL     1       6.774  -2.678  12.140  1.00  0.00     0.107 A 
HETATM    4 CL1  UNL     1       6.662  -3.401  13.723  1.00  0.00    -0.064 Cl
HETATM    5  N1  UNL     1       6.499  -1.388  11.896  1.00  0.00    -0.321 N 
ATOM      6  H1  UNL     1       6.210  -0.800  12.677  1.00  0.00     0.169 HD
HETATM    7  C11 UNL     1       6.584  -0.832  10.687  1.00  0.00     0.194 A 
HETATM    8  N2  UNL     1       6.274   0.552  10.512  1.00  0.00    -0.063 NA
HETATM    9  N3  UNL     1       6.964  -1.615   9.669  1.00  0.00    -0.330 N 
ATOM     10  H3  UNL     1       7.030  -1.198   8.740  1.00  0.00     0.168 HD
ENDROOT
BRANCH   1  11
HETATM   11  C7  UNL     1       7.670  -3.720   8.660  1.00  0.00     0.024 A 
HETATM   12  C2  UNL     1       6.743  -3.952   7.656  1.00  0.00     0.080 A 
HETATM   13  C3  UNL     1       7.075  -4.712   6.538  1.00  0.00     0.037 A 
HETATM   14  C4  UNL     1       8.331  -5.258   6.390  1.00  0.00     0.003 A 
HETATM   15  C5  UNL     1       9.257  -5.033   7.383  1.00  0.00     0.001 A 
HETATM   16  C6  UNL     1       8.917  -4.265   8.508  1.00  0.00     0.016 A 
BRANCH  12  17
HETATM   17  O1  UNL     1       5.480  -3.401   7.807  1.00  0.00    -0.355 OA
HETATM   18  C1  UNL     1       4.569  -3.542   6.736  1.00  0.00     0.210 C 
ENDBRANCH  12  17
ENDBRANCH   1  11
TORSDOF 2
ENDMDL
