MODEL 4
REMARK VINA RESULT: -6.786400473      1.944      2.576
REMARK  11 active torsions:
REMARK  status: ('A' for Active; 'I' for Inactive)
REMARK    1  A    between atoms: O1_1  and  C1_3 
REMARK    2  A    between atoms: C1_3  and  C2_4 
REMARK    3  A    between atoms: C3_6  and  O3_7 
REMARK    4  A    between atoms: O3_7  and  C4_8 
REMARK    5  A    between atoms: C5_9  and  C6_10 
REMARK    6  A    between atoms: C6_10  and  O4_11 
REMARK    7  A    between atoms: C8_17  and  O5_18 
REMARK    8  A    between atoms: C9_20  and  O6_21 
REMARK    9  A    between atoms: C10_23  and  O7_24 
REMARK   10  A    between atoms: C11_26  and  O8_27 
REMARK   11  A    between atoms: C12_29  and  O9_30 
ROOT
HETATM    1  O3  UNL     1      10.397   6.254  24.130  1.00  0.00    -0.348 OA
ENDROOT
BRANCH   1   2
HETATM    2  C3  UNL     1      10.473   5.110  23.338  1.00  0.00     0.292 C 
HETATM    3  O2  UNL     1       9.233   4.606  23.007  1.00  0.00    -0.348 OA
HETATM    4  C2  UNL     1       8.785   4.965  21.751  1.00  0.00     0.179 C 
HETATM    5  C12 UNL     1       9.668   4.452  20.637  1.00  0.00     0.180 C 
HETATM    6  C11 UNL     1      11.068   4.160  21.187  1.00  0.00     0.183 C 
HETATM    7  C10 UNL     1      11.360   5.341  22.123  1.00  0.00     0.204 C 
BRANCH   4   8
HETATM    8  C1  UNL     1       7.430   4.300  21.559  1.00  0.00     0.198 C 
BRANCH   8   9
HETATM    9  O1  UNL     1       7.624   3.180  20.734  1.00  0.00    -0.398 OA
ATOM     10  H1  UNL     1       7.548   3.472  19.834  1.00  0.00     0.209 HD
ENDBRANCH   8   9
ENDBRANCH   4   8
BRANCH   5  11
HETATM   11  O9  UNL     1       9.805   5.425  19.650  1.00  0.00    -0.390 OA
ATOM     12  H9  UNL     1       8.956   5.791  19.433  1.00  0.00     0.210 HD
ENDBRANCH   5  11
BRANCH   6  13
HETATM   13  O8  UNL     1      10.960   3.028  21.974  1.00  0.00    -0.390 OA
ATOM     14  H8  UNL     1      10.593   3.298  22.808  1.00  0.00     0.210 HD
ENDBRANCH   6  13
BRANCH   7  15
HETATM   15  O7  UNL     1      10.983   6.501  21.488  1.00  0.00    -0.388 OA
ATOM     16  H7  UNL     1      11.373   6.532  20.622  1.00  0.00     0.210 HD
ENDBRANCH   7  15
ENDBRANCH   1   2
BRANCH   1  17
HETATM   17  C4  UNL     1      10.326   5.924  25.503  1.00  0.00     0.188 C 
HETATM   18  C5  UNL     1       8.963   6.297  25.985  1.00  0.00     0.240 C 
HETATM   19  N1  UNL     1       8.966   7.068  27.200  1.00  0.00    -0.064 N 
HETATM   20  C7  UNL     1       9.865   6.477  28.145  1.00  0.00     0.267 C 
ATOM     21  H12 UNL     1       9.179   8.051  27.031  1.00  0.00     0.277 HD
ATOM     22  H11 UNL     1       8.028   7.185  27.584  1.00  0.00     0.277 HD
HETATM   23  C8  UNL     1      11.282   6.734  27.686  1.00  0.00     0.175 C 
HETATM   24  C9  UNL     1      11.433   6.684  26.204  1.00  0.00     0.179 C 
BRANCH  18  25
HETATM   25  C6  UNL     1       8.100   5.063  26.232  1.00  0.00     0.199 C 
BRANCH  25  26
HETATM   26  O4  UNL     1       6.749   5.452  26.345  1.00  0.00    -0.399 OA
ATOM     27  H4  UNL     1       6.320   4.914  26.998  1.00  0.00     0.209 HD
ENDBRANCH  25  26
ENDBRANCH  18  25
BRANCH  23  28
HETATM   28  O5  UNL     1      11.639   8.009  28.128  1.00  0.00    -0.391 OA
ATOM     29  H5  UNL     1      12.457   8.239  27.702  1.00  0.00     0.210 HD
ENDBRANCH  23  28
BRANCH  24  30
HETATM   30  O6  UNL     1      12.659   6.097  25.914  1.00  0.00    -0.390 OA
ATOM     31  H6  UNL     1      13.079   6.570  25.204  1.00  0.00     0.210 HD
ENDBRANCH  24  30
ENDBRANCH   1  17
TORSDOF 11
ENDMDL
