MODEL 1
REMARK VINA RESULT: -7.126685350      0.000      0.000
REMARK  11 active torsions:
REMARK  status: ('A' for Active; 'I' for Inactive)
REMARK    1  A    between atoms: O1_1  and  C1_3 
REMARK    2  A    between atoms: C1_3  and  C2_4 
REMARK    3  A    between atoms: C3_6  and  O3_7 
REMARK    4  A    between atoms: O3_7  and  C4_8 
REMARK    5  A    between atoms: C5_9  and  C6_10 
REMARK    6  A    between atoms: C6_10  and  O4_11 
REMARK    7  A    between atoms: C8_17  and  O5_18 
REMARK    8  A    between atoms: C9_20  and  O6_21 
REMARK    9  A    between atoms: C10_23  and  O7_24 
REMARK   10  A    between atoms: C11_26  and  O8_27 
REMARK   11  A    between atoms: C12_29  and  O9_30 
ROOT
HETATM    1  O3  UNL     1       8.945   5.632  24.684  1.00  0.00    -0.348 OA
ENDROOT
BRANCH   1   2
HETATM    2  C3  UNL     1       9.384   4.847  23.620  1.00  0.00     0.292 C 
HETATM    3  O2  UNL     1       8.347   4.341  22.865  1.00  0.00    -0.348 OA
HETATM    4  C2  UNL     1       8.078   5.052  21.712  1.00  0.00     0.179 C 
HETATM    5  C12 UNL     1       9.233   5.062  20.738  1.00  0.00     0.180 C 
HETATM    6  C11 UNL     1      10.537   4.770  21.487  1.00  0.00     0.183 C 
HETATM    7  C10 UNL     1      10.419   5.585  22.783  1.00  0.00     0.204 C 
BRANCH   4   8
HETATM    8  C1  UNL     1       6.936   4.336  21.008  1.00  0.00     0.198 C 
BRANCH   8   9
HETATM    9  O1  UNL     1       7.351   3.016  20.766  1.00  0.00    -0.398 OA
ATOM     10  H1  UNL     1       7.201   2.833  19.847  1.00  0.00     0.209 HD
ENDBRANCH   8   9
ENDBRANCH   4   8
BRANCH   5  11
HETATM   11  O9  UNL     1       9.360   6.324  20.161  1.00  0.00    -0.390 OA
ATOM     12  H9  UNL     1      10.266   6.481  19.920  1.00  0.00     0.210 HD
ENDBRANCH   5  11
BRANCH   6  13
HETATM   13  O8  UNL     1      10.506   3.432  21.837  1.00  0.00    -0.390 OA
ATOM     14  H8  UNL     1      11.386   3.188  22.098  1.00  0.00     0.210 HD
ENDBRANCH   6  13
BRANCH   7  15
HETATM   15  O7  UNL     1       9.950   6.838  22.466  1.00  0.00    -0.388 OA
ATOM     16  H7  UNL     1      10.371   7.145  21.671  1.00  0.00     0.210 HD
ENDBRANCH   7  15
ENDBRANCH   1   2
BRANCH   1  17
HETATM   17  C4  UNL     1       9.416   5.133  25.919  1.00  0.00     0.188 C 
HETATM   18  C5  UNL     1      10.604   5.949  26.310  1.00  0.00     0.240 C 
HETATM   19  N1  UNL     1      11.746   5.166  26.702  1.00  0.00    -0.064 N 
HETATM   20  C7  UNL     1      11.333   4.125  27.595  1.00  0.00     0.267 C 
ATOM     21  H12 UNL     1      12.256   4.802  25.898  1.00  0.00     0.277 HD
ATOM     22  H11 UNL     1      12.488   5.741  27.099  1.00  0.00     0.277 HD
HETATM   23  C8  UNL     1      10.579   3.082  26.803  1.00  0.00     0.175 C 
HETATM   24  C9  UNL     1       9.743   3.668  25.716  1.00  0.00     0.179 C 
BRANCH  18  25
HETATM   25  C6  UNL     1      10.280   6.891  27.467  1.00  0.00     0.199 C 
BRANCH  25  26
HETATM   26  O4  UNL     1       8.906   7.211  27.437  1.00  0.00    -0.399 OA
ATOM     27  H4  UNL     1       8.775   8.071  27.819  1.00  0.00     0.209 HD
ENDBRANCH  25  26
ENDBRANCH  18  25
BRANCH  23  28
HETATM   28  O5  UNL     1      11.523   2.231  26.229  1.00  0.00    -0.391 OA
ATOM     29  H5  UNL     1      11.054   1.486  25.869  1.00  0.00     0.210 HD
ENDBRANCH  23  28
BRANCH  24  30
HETATM   30  O6  UNL     1       8.566   2.934  25.633  1.00  0.00    -0.390 OA
ATOM     31  H6  UNL     1       8.537   2.295  26.336  1.00  0.00     0.210 HD
ENDBRANCH  24  30
ENDBRANCH   1  17
TORSDOF 11
ENDMDL
