MODEL 2
REMARK VINA RESULT: -6.860354592      1.623      2.901
REMARK  11 active torsions:
REMARK  status: ('A' for Active; 'I' for Inactive)
REMARK    1  A    between atoms: O1_1  and  C1_3 
REMARK    2  A    between atoms: C1_3  and  C2_4 
REMARK    3  A    between atoms: C3_6  and  O3_7 
REMARK    4  A    between atoms: O3_7  and  C4_8 
REMARK    5  A    between atoms: C5_9  and  C6_10 
REMARK    6  A    between atoms: C6_10  and  O4_11 
REMARK    7  A    between atoms: C8_17  and  O5_18 
REMARK    8  A    between atoms: C9_20  and  O6_21 
REMARK    9  A    between atoms: C10_23  and  O7_24 
REMARK   10  A    between atoms: C11_26  and  O8_27 
REMARK   11  A    between atoms: C12_29  and  O9_30 
ROOT
HETATM    1  O3  UNL     1       8.215   4.712  23.798  1.00  0.00    -0.348 OA
ENDROOT
BRANCH   1   2
HETATM    2  C3  UNL     1       8.512   4.703  22.436  1.00  0.00     0.292 C 
HETATM    3  O2  UNL     1       7.461   4.257  21.663  1.00  0.00    -0.348 OA
HETATM    4  C2  UNL     1       6.707   5.260  21.088  1.00  0.00     0.179 C 
HETATM    5  C12 UNL     1       7.495   6.118  20.126  1.00  0.00     0.180 C 
HETATM    6  C11 UNL     1       8.989   6.009  20.448  1.00  0.00     0.183 C 
HETATM    7  C10 UNL     1       9.048   6.053  21.982  1.00  0.00     0.204 C 
BRANCH   4   8
HETATM    8  C1  UNL     1       5.625   4.580  20.262  1.00  0.00     0.198 C 
BRANCH   8   9
HETATM    9  O1  UNL     1       4.518   4.378  21.102  1.00  0.00    -0.398 OA
ATOM     10  H1  UNL     1       3.865   3.902  20.604  1.00  0.00     0.209 HD
ENDBRANCH   8   9
ENDBRANCH   4   8
BRANCH   5  11
HETATM   11  O9  UNL     1       7.136   7.456  20.275  1.00  0.00    -0.390 OA
ATOM     12  H9  UNL     1       7.257   7.726  21.178  1.00  0.00     0.210 HD
ENDBRANCH   5  11
BRANCH   6  13
HETATM   13  O8  UNL     1       9.391   4.745  20.057  1.00  0.00    -0.390 OA
ATOM     14  H8  UNL     1       8.974   4.562  19.223  1.00  0.00     0.210 HD
ENDBRANCH   6  13
BRANCH   7  15
HETATM   15  O7  UNL     1       8.213   7.054  22.420  1.00  0.00    -0.388 OA
ATOM     16  H7  UNL     1       8.409   7.261  23.326  1.00  0.00     0.210 HD
ENDBRANCH   7  15
ENDBRANCH   1   2
BRANCH   1  17
HETATM   17  C4  UNL     1       9.297   5.213  24.556  1.00  0.00     0.188 C 
HETATM   18  C5  UNL     1      10.108   4.044  25.011  1.00  0.00     0.240 C 
HETATM   19  N1  UNL     1      10.420   4.063  26.415  1.00  0.00    -0.064 N 
HETATM   20  C7  UNL     1      10.871   5.369  26.792  1.00  0.00     0.267 C 
ATOM     21  H12 UNL     1       9.638   3.748  26.987  1.00  0.00     0.277 HD
ATOM     22  H11 UNL     1      11.090   3.338  26.670  1.00  0.00     0.277 HD
HETATM   23  C8  UNL     1       9.685   6.306  26.790  1.00  0.00     0.175 C 
HETATM   24  C9  UNL     1       8.710   6.011  25.703  1.00  0.00     0.179 C 
BRANCH  18  25
HETATM   25  C6  UNL     1      11.429   3.950  24.252  1.00  0.00     0.199 C 
BRANCH  25  26
HETATM   26  O4  UNL     1      11.431   2.783  23.461  1.00  0.00    -0.399 OA
ATOM     27  H4  UNL     1      11.687   3.004  22.574  1.00  0.00     0.209 HD
ENDBRANCH  25  26
ENDBRANCH  18  25
BRANCH  23  28
HETATM   28  O5  UNL     1       9.039   6.163  28.019  1.00  0.00    -0.391 OA
ATOM     29  H5  UNL     1       8.180   6.561  27.936  1.00  0.00     0.210 HD
ENDBRANCH  23  28
BRANCH  24  30
HETATM   30  O6  UNL     1       8.215   7.218  25.225  1.00  0.00    -0.390 OA
ATOM     31  H6  UNL     1       7.428   7.452  25.703  1.00  0.00     0.210 HD
ENDBRANCH  24  30
ENDBRANCH   1  17
TORSDOF 11
ENDMDL
