MODEL 4
REMARK VINA RESULT: -8.817388456      1.681      6.537
REMARK  14 active torsions:
REMARK  status: ('A' for Active; 'I' for Inactive)
REMARK    1  A    between atoms: C2_2  and  C3_3 
REMARK    2  A    between atoms: C3_3  and  C5_5 
REMARK    3  A    between atoms: C5_5  and  N1_6 
REMARK    4  A    between atoms: C5_5  and  C8_11 
REMARK       I    between atoms: N1_6  and  C6_8 
REMARK       I    between atoms: C8_11  and  N2_13 
REMARK    5  A    between atoms: N2_13  and  C9_15 
REMARK    6  A    between atoms: C9_15  and  C10_16 
REMARK    7  A    between atoms: C9_15  and  C17_25 
REMARK    8  A    between atoms: C10_16  and  C11_17 
REMARK    9  A    between atoms: C14_20  and  O3_21 
REMARK       I    between atoms: C17_25  and  N3_27 
REMARK   10  A    between atoms: N3_27  and  C18_29 
REMARK   11  A    between atoms: C18_29  and  C19_30 
REMARK   12  A    between atoms: C18_29  and  P1_39 
REMARK   13  A    between atoms: C19_30  and  C20_31 
REMARK   14  A    between atoms: C23_34  and  O5_35 
ROOT
HETATM    1  C9  UNL     1      -8.934  24.472  -9.530  1.00  0.00     0.180 C 
ENDROOT
BRANCH   1   2
HETATM    2  N2  UNL     1      -7.638  24.637 -10.148  1.00  0.00    -0.346 N 
HETATM    3  C8  UNL     1      -6.717  23.573 -10.276  1.00  0.00     0.241 C 
HETATM    4  O2  UNL     1      -7.122  22.454  -9.802  1.00  0.00    -0.271 OA
ATOM      5  H2  UNL     1      -7.378  25.556 -10.506  1.00  0.00     0.163 HD
BRANCH   3   6
HETATM    6  C5  UNL     1      -5.393  23.712 -10.896  1.00  0.00     0.180 C 
BRANCH   6   7
HETATM    7  C3  UNL     1      -4.705  25.014 -10.663  1.00  0.00     0.013 C 
HETATM    8  C4  UNL     1      -4.463  25.361  -9.226  1.00  0.00     0.012 C 
BRANCH   7   9
HETATM    9  C2  UNL     1      -3.470  25.258 -11.482  1.00  0.00     0.002 C 
HETATM   10  C1  UNL     1      -2.290  24.758 -10.625  1.00  0.00     0.005 C 
ENDBRANCH   7   9
ENDBRANCH   6   7
BRANCH   6  11
HETATM   11  N1  UNL     1      -5.515  23.596 -12.371  1.00  0.00    -0.348 N 
HETATM   12  C6  UNL     1      -4.780  22.638 -13.107  1.00  0.00     0.214 C 
HETATM   13  C7  UNL     1      -4.925  22.549 -14.578  1.00  0.00     0.117 C 
HETATM   14  O1  UNL     1      -4.004  21.876 -12.442  1.00  0.00    -0.274 OA
ATOM     15  H1  UNL     1      -6.146  24.225 -12.868  1.00  0.00     0.163 HD
ENDBRANCH   6  11
ENDBRANCH   3   6
ENDBRANCH   1   2
BRANCH   1  16
HETATM   16  C10 UNL     1      -9.176  25.725  -8.702  1.00  0.00     0.073 C 
BRANCH  16  17
HETATM   17  C11 UNL     1      -8.100  25.991  -7.752  1.00  0.00    -0.056 A 
HETATM   18  C12 UNL     1      -7.722  25.021  -6.848  1.00  0.00     0.010 A 
HETATM   19  C13 UNL     1      -6.693  25.258  -5.930  1.00  0.00     0.037 A 
HETATM   20  C14 UNL     1      -6.031  26.469  -5.904  1.00  0.00     0.065 A 
HETATM   21  C15 UNL     1      -6.406  27.432  -6.801  1.00  0.00     0.037 A 
HETATM   22  C16 UNL     1      -7.416  27.186  -7.695  1.00  0.00     0.010 A 
BRANCH  20  23
HETATM   23  O3  UNL     1      -4.995  26.705  -4.977  1.00  0.00    -0.361 OA
ATOM     24  H3  UNL     1      -5.010  27.472  -4.416  1.00  0.00     0.217 HD
ENDBRANCH  20  23
ENDBRANCH  16  17
ENDBRANCH   1  16
BRANCH   1  25
HETATM   25  C17 UNL     1      -9.935  24.437 -10.618  1.00  0.00     0.241 C 
HETATM   26  O4  UNL     1     -10.304  25.489 -11.193  1.00  0.00    -0.271 OA
HETATM   27  N3  UNL     1     -10.536  23.236 -11.080  1.00  0.00    -0.342 N 
ATOM     28  H3  UNL     1     -10.266  22.356 -10.642  1.00  0.00     0.163 HD
BRANCH  27  29
HETATM   29  C18 UNL     1     -11.534  23.208 -12.163  1.00  0.00     0.219 C 
BRANCH  29  30
HETATM   30  C19 UNL     1     -11.027  22.268 -13.190  1.00  0.00     0.078 C 
BRANCH  30  31
HETATM   31  C20 UNL     1     -10.510  22.832 -14.427  1.00  0.00    -0.055 A 
HETATM   32  C21 UNL     1      -9.554  22.148 -15.148  1.00  0.00     0.010 A 
HETATM   33  C22 UNL     1      -9.024  22.644 -16.328  1.00  0.00     0.037 A 
HETATM   34  C23 UNL     1      -9.442  23.857 -16.826  1.00  0.00     0.065 A 
HETATM   35  C24 UNL     1     -10.394  24.556 -16.121  1.00  0.00     0.037 A 
HETATM   36  C25 UNL     1     -10.907  24.041 -14.950  1.00  0.00     0.010 A 
BRANCH  34  37
HETATM   37  O5  UNL     1      -8.904  24.365 -18.027  1.00  0.00    -0.361 OA
ATOM     38  H5  UNL     1      -8.782  25.300 -18.145  1.00  0.00     0.217 HD
ENDBRANCH  34  37
ENDBRANCH  30  31
ENDBRANCH  29  30
BRANCH  29  39
HETATM   39  P1  UNL     1     -13.083  23.055 -11.436  1.00  0.00     0.283 P 
HETATM   40  O6  UNL     1     -13.701  24.283 -10.497  1.00  0.00    -0.638 OA
HETATM   41  O7  UNL     1     -13.960  21.617 -11.554  1.00  0.00    -0.638 OA
HETATM   42  O8  UNL     1     -13.939  23.570 -12.619  1.00  0.00    -0.638 OA
ENDBRANCH  29  39
ENDBRANCH  27  29
ENDBRANCH   1  25
TORSDOF 14
ENDMDL
