MODEL 1
REMARK VINA RESULT: -8.990046886      0.000      0.000
REMARK  14 active torsions:
REMARK  status: ('A' for Active; 'I' for Inactive)
REMARK    1  A    between atoms: C2_2  and  C3_3 
REMARK    2  A    between atoms: C3_3  and  C5_5 
REMARK    3  A    between atoms: C5_5  and  N1_6 
REMARK    4  A    between atoms: C5_5  and  C8_11 
REMARK       I    between atoms: N1_6  and  C6_8 
REMARK       I    between atoms: C8_11  and  N2_13 
REMARK    5  A    between atoms: N2_13  and  C9_15 
REMARK    6  A    between atoms: C9_15  and  C10_16 
REMARK    7  A    between atoms: C9_15  and  C17_25 
REMARK    8  A    between atoms: C10_16  and  C11_17 
REMARK    9  A    between atoms: C14_20  and  O3_21 
REMARK       I    between atoms: C17_25  and  N3_27 
REMARK   10  A    between atoms: N3_27  and  C18_29 
REMARK   11  A    between atoms: C18_29  and  C19_30 
REMARK   12  A    between atoms: C18_29  and  P1_39 
REMARK   13  A    between atoms: C19_30  and  C20_31 
REMARK   14  A    between atoms: C23_34  and  O5_35 
ROOT
HETATM    1  C9  UNL     1      -9.568  23.566 -13.004  1.00  0.00     0.180 C 
ENDROOT
BRANCH   1   2
HETATM    2  N2  UNL     1      -8.229  23.105 -12.715  1.00  0.00    -0.346 N 
HETATM    3  C8  UNL     1      -7.153  23.992 -12.488  1.00  0.00     0.241 C 
HETATM    4  O2  UNL     1      -7.459  25.234 -12.558  1.00  0.00    -0.271 OA
ATOM      5  H2  UNL     1      -8.054  22.101 -12.674  1.00  0.00     0.163 HD
BRANCH   3   6
HETATM    6  C5  UNL     1      -5.782  23.552 -12.197  1.00  0.00     0.180 C 
BRANCH   6   7
HETATM    7  C3  UNL     1      -5.069  24.321 -11.137  1.00  0.00     0.013 C 
HETATM    8  C4  UNL     1      -5.632  24.177  -9.756  1.00  0.00     0.012 C 
BRANCH   7   9
HETATM    9  C2  UNL     1      -3.575  24.178 -11.118  1.00  0.00     0.002 C 
HETATM   10  C1  UNL     1      -3.069  25.192 -10.072  1.00  0.00     0.005 C 
ENDBRANCH   7   9
ENDBRANCH   6   7
BRANCH   6  11
HETATM   11  N1  UNL     1      -4.941  23.695 -13.412  1.00  0.00    -0.348 N 
HETATM   12  C6  UNL     1      -4.889  22.690 -14.406  1.00  0.00     0.214 C 
HETATM   13  C7  UNL     1      -4.039  22.864 -15.606  1.00  0.00     0.117 C 
HETATM   14  O1  UNL     1      -5.602  21.652 -14.208  1.00  0.00    -0.274 OA
ATOM     15  H1  UNL     1      -4.384  24.541 -13.533  1.00  0.00     0.163 HD
ENDBRANCH   6  11
ENDBRANCH   3   6
ENDBRANCH   1   2
BRANCH   1  16
HETATM   16  C10 UNL     1     -10.062  22.739 -14.181  1.00  0.00     0.073 C 
BRANCH  16  17
HETATM   17  C11 UNL     1      -9.621  23.268 -15.467  1.00  0.00    -0.056 A 
HETATM   18  C12 UNL     1     -10.387  24.205 -16.128  1.00  0.00     0.010 A 
HETATM   19  C13 UNL     1      -9.980  24.723 -17.362  1.00  0.00     0.037 A 
HETATM   20  C14 UNL     1      -8.803  24.310 -17.952  1.00  0.00     0.065 A 
HETATM   21  C15 UNL     1      -8.042  23.380 -17.297  1.00  0.00     0.037 A 
HETATM   22  C16 UNL     1      -8.452  22.881 -16.087  1.00  0.00     0.010 A 
BRANCH  20  23
HETATM   23  O3  UNL     1      -8.397  24.834 -19.196  1.00  0.00    -0.361 OA
ATOM     24  H3  UNL     1      -7.544  24.621 -19.559  1.00  0.00     0.217 HD
ENDBRANCH  20  23
ENDBRANCH  16  17
ENDBRANCH   1  16
BRANCH   1  25
HETATM   25  C17 UNL     1     -10.404  23.241 -11.827  1.00  0.00     0.241 C 
HETATM   26  O4  UNL     1     -10.327  22.120 -11.268  1.00  0.00    -0.271 OA
HETATM   27  N3  UNL     1     -11.333  24.153 -11.261  1.00  0.00    -0.342 N 
ATOM     28  H3  UNL     1     -11.429  25.076 -11.682  1.00  0.00     0.163 HD
BRANCH  27  29
HETATM   29  C18 UNL     1     -12.163  23.822 -10.090  1.00  0.00     0.219 C 
BRANCH  29  30
HETATM   30  C19 UNL     1     -12.041  24.954  -9.142  1.00  0.00     0.078 C 
BRANCH  30  31
HETATM   31  C20 UNL     1     -10.724  25.236  -8.591  1.00  0.00    -0.055 A 
HETATM   32  C21 UNL     1     -10.156  26.480  -8.768  1.00  0.00     0.010 A 
HETATM   33  C22 UNL     1      -8.903  26.798  -8.270  1.00  0.00     0.037 A 
HETATM   34  C23 UNL     1      -8.173  25.863  -7.570  1.00  0.00     0.065 A 
HETATM   35  C24 UNL     1      -8.721  24.616  -7.383  1.00  0.00     0.037 A 
HETATM   36  C25 UNL     1      -9.971  24.325  -7.888  1.00  0.00     0.010 A 
BRANCH  34  37
HETATM   37  O5  UNL     1      -6.896  26.183  -7.061  1.00  0.00    -0.361 OA
ATOM     38  H5  UNL     1      -6.645  25.920  -6.183  1.00  0.00     0.217 HD
ENDBRANCH  34  37
ENDBRANCH  30  31
ENDBRANCH  29  30
BRANCH  29  39
HETATM   39  P1  UNL     1     -13.674  23.247 -10.672  1.00  0.00     0.283 P 
HETATM   40  O6  UNL     1     -15.095  23.975 -10.200  1.00  0.00    -0.638 OA
HETATM   41  O7  UNL     1     -13.763  21.864 -11.636  1.00  0.00    -0.638 OA
HETATM   42  O8  UNL     1     -13.732  24.059 -11.989  1.00  0.00    -0.638 OA
ENDBRANCH  29  39
ENDBRANCH  27  29
ENDBRANCH   1  25
TORSDOF 14
ENDMDL
