MODEL 6
REMARK VINA RESULT: -8.774752034      1.087      1.588
REMARK  14 active torsions:
REMARK  status: ('A' for Active; 'I' for Inactive)
REMARK    1  A    between atoms: C2_2  and  C3_3 
REMARK    2  A    between atoms: C3_3  and  C5_5 
REMARK    3  A    between atoms: C5_5  and  N1_6 
REMARK    4  A    between atoms: C5_5  and  C8_11 
REMARK       I    between atoms: N1_6  and  C6_8 
REMARK       I    between atoms: C8_11  and  N2_13 
REMARK    5  A    between atoms: N2_13  and  C9_15 
REMARK    6  A    between atoms: C9_15  and  C10_16 
REMARK    7  A    between atoms: C9_15  and  C17_25 
REMARK    8  A    between atoms: C10_16  and  C11_17 
REMARK    9  A    between atoms: C14_20  and  O3_21 
REMARK       I    between atoms: C17_25  and  N3_27 
REMARK   10  A    between atoms: N3_27  and  C18_29 
REMARK   11  A    between atoms: C18_29  and  C19_30 
REMARK   12  A    between atoms: C18_29  and  P1_39 
REMARK   13  A    between atoms: C19_30  and  C20_31 
REMARK   14  A    between atoms: C23_34  and  O5_35 
ROOT
HETATM    1  C9  UNL     1      -9.374  23.819 -13.393  1.00  0.00     0.180 C 
ENDROOT
BRANCH   1   2
HETATM    2  N2  UNL     1      -8.046  23.260 -13.274  1.00  0.00    -0.346 N 
HETATM    3  C8  UNL     1      -6.882  23.997 -13.585  1.00  0.00     0.241 C 
HETATM    4  O2  UNL     1      -7.096  25.197 -13.978  1.00  0.00    -0.271 OA
ATOM      5  H2  UNL     1      -7.946  22.296 -12.954  1.00  0.00     0.163 HD
BRANCH   3   6
HETATM    6  C5  UNL     1      -5.521  23.454 -13.476  1.00  0.00     0.180 C 
BRANCH   6   7
HETATM    7  C3  UNL     1      -5.140  22.930 -12.134  1.00  0.00     0.013 C 
HETATM    8  C4  UNL     1      -3.825  22.212 -12.078  1.00  0.00     0.012 C 
BRANCH   7   9
HETATM    9  C2  UNL     1      -5.263  23.898 -10.993  1.00  0.00     0.002 C 
HETATM   10  C1  UNL     1      -6.415  23.368 -10.115  1.00  0.00     0.005 C 
ENDBRANCH   7   9
ENDBRANCH   6   7
BRANCH   6  11
HETATM   11  N1  UNL     1      -4.530  24.519 -13.773  1.00  0.00    -0.348 N 
HETATM   12  C6  UNL     1      -3.727  24.488 -14.936  1.00  0.00     0.214 C 
HETATM   13  C7  UNL     1      -2.748  25.568 -15.201  1.00  0.00     0.117 C 
HETATM   14  O1  UNL     1      -3.894  23.498 -15.721  1.00  0.00    -0.274 OA
ATOM     15  H1  UNL     1      -4.426  25.295 -13.119  1.00  0.00     0.163 HD
ENDBRANCH   6  11
ENDBRANCH   3   6
ENDBRANCH   1   2
BRANCH   1  16
HETATM   16  C10 UNL     1     -10.057  23.064 -14.523  1.00  0.00     0.073 C 
BRANCH  16  17
HETATM   17  C11 UNL     1      -9.861  23.695 -15.824  1.00  0.00    -0.056 A 
HETATM   18  C12 UNL     1     -10.786  24.601 -16.298  1.00  0.00     0.010 A 
HETATM   19  C13 UNL     1     -10.614  25.216 -17.543  1.00  0.00     0.037 A 
HETATM   20  C14 UNL     1      -9.516  24.931 -18.330  1.00  0.00     0.065 A 
HETATM   21  C15 UNL     1      -8.598  24.032 -17.860  1.00  0.00     0.037 A 
HETATM   22  C16 UNL     1      -8.779  23.437 -16.638  1.00  0.00     0.010 A 
BRANCH  20  23
HETATM   23  O3  UNL     1      -9.347  25.552 -19.585  1.00  0.00    -0.361 OA
ATOM     24  H3  UNL     1      -8.671  25.260 -20.185  1.00  0.00     0.217 HD
ENDBRANCH  20  23
ENDBRANCH  16  17
ENDBRANCH   1  16
BRANCH   1  25
HETATM   25  C17 UNL     1     -10.089  23.515 -12.135  1.00  0.00     0.241 C 
HETATM   26  O4  UNL     1      -9.843  22.469 -11.487  1.00  0.00    -0.271 OA
HETATM   27  N3  UNL     1     -11.083  24.366 -11.583  1.00  0.00    -0.342 N 
ATOM     28  H3  UNL     1     -11.316  25.228 -12.076  1.00  0.00     0.163 HD
BRANCH  27  29
HETATM   29  C18 UNL     1     -11.793  24.056 -10.330  1.00  0.00     0.219 C 
BRANCH  29  30
HETATM   30  C19 UNL     1     -11.615  25.223  -9.436  1.00  0.00     0.078 C 
BRANCH  30  31
HETATM   31  C20 UNL     1     -10.318  25.399  -8.802  1.00  0.00    -0.055 A 
HETATM   32  C21 UNL     1      -9.848  24.448  -7.921  1.00  0.00     0.010 A 
HETATM   33  C22 UNL     1      -8.622  24.571  -7.286  1.00  0.00     0.037 A 
HETATM   34  C23 UNL     1      -7.823  25.667  -7.518  1.00  0.00     0.065 A 
HETATM   35  C24 UNL     1      -8.274  26.628  -8.392  1.00  0.00     0.037 A 
HETATM   36  C25 UNL     1      -9.496  26.482  -9.013  1.00  0.00     0.010 A 
BRANCH  34  37
HETATM   37  O5  UNL     1      -6.575  25.796  -6.872  1.00  0.00    -0.361 OA
ATOM     38  H5  UNL     1      -6.364  26.580  -6.379  1.00  0.00     0.217 HD
ENDBRANCH  34  37
ENDBRANCH  30  31
ENDBRANCH  29  30
BRANCH  29  39
HETATM   39  P1  UNL     1     -13.334  23.424 -10.751  1.00  0.00     0.283 P 
HETATM   40  O6  UNL     1     -14.721  24.073 -10.098  1.00  0.00    -0.638 OA
HETATM   41  O7  UNL     1     -13.474  22.060 -11.736  1.00  0.00    -0.638 OA
HETATM   42  O8  UNL     1     -13.580  24.262 -12.029  1.00  0.00    -0.638 OA
ENDBRANCH  29  39
ENDBRANCH  27  29
ENDBRANCH   1  25
TORSDOF 14
ENDMDL
