MODEL 2
REMARK VINA RESULT: -8.950081519      2.214      6.746
REMARK  14 active torsions:
REMARK  status: ('A' for Active; 'I' for Inactive)
REMARK    1  A    between atoms: C2_2  and  C3_3 
REMARK    2  A    between atoms: C3_3  and  C5_5 
REMARK    3  A    between atoms: C5_5  and  N1_6 
REMARK    4  A    between atoms: C5_5  and  C8_11 
REMARK       I    between atoms: N1_6  and  C6_8 
REMARK       I    between atoms: C8_11  and  N2_13 
REMARK    5  A    between atoms: N2_13  and  C9_15 
REMARK    6  A    between atoms: C9_15  and  C10_16 
REMARK    7  A    between atoms: C9_15  and  C17_25 
REMARK    8  A    between atoms: C10_16  and  C11_17 
REMARK    9  A    between atoms: C14_20  and  O3_21 
REMARK       I    between atoms: C17_25  and  N3_27 
REMARK   10  A    between atoms: N3_27  and  C18_29 
REMARK   11  A    between atoms: C18_29  and  C19_30 
REMARK   12  A    between atoms: C18_29  and  P1_39 
REMARK   13  A    between atoms: C19_30  and  C20_31 
REMARK   14  A    between atoms: C23_34  and  O5_35 
ROOT
HETATM    1  C9  UNL     1      -8.381  24.676  -8.688  1.00  0.00     0.180 C 
ENDROOT
BRANCH   1   2
HETATM    2  N2  UNL     1      -7.142  24.811  -9.420  1.00  0.00    -0.346 N 
HETATM    3  C8  UNL     1      -6.471  23.704  -9.987  1.00  0.00     0.241 C 
HETATM    4  O2  UNL     1      -7.047  22.576  -9.801  1.00  0.00    -0.271 OA
ATOM      5  H2  UNL     1      -6.736  25.740  -9.532  1.00  0.00     0.163 HD
BRANCH   3   6
HETATM    6  C5  UNL     1      -5.209  23.811 -10.732  1.00  0.00     0.180 C 
BRANCH   6   7
HETATM    7  C3  UNL     1      -4.508  25.123 -10.629  1.00  0.00     0.013 C 
HETATM    8  C4  UNL     1      -3.940  25.439  -9.279  1.00  0.00     0.012 C 
BRANCH   7   9
HETATM    9  C2  UNL     1      -3.505  25.416 -11.707  1.00  0.00     0.002 C 
HETATM   10  C1  UNL     1      -2.152  24.903 -11.175  1.00  0.00     0.005 C 
ENDBRANCH   7   9
ENDBRANCH   6   7
BRANCH   6  11
HETATM   11  N1  UNL     1      -5.466  23.622 -12.182  1.00  0.00    -0.348 N 
HETATM   12  C6  UNL     1      -4.806  22.621 -12.932  1.00  0.00     0.214 C 
HETATM   13  C7  UNL     1      -5.085  22.459 -14.377  1.00  0.00     0.117 C 
HETATM   14  O1  UNL     1      -3.975  21.887 -12.302  1.00  0.00    -0.274 OA
ATOM     15  H1  UNL     1      -6.138  24.230 -12.651  1.00  0.00     0.163 HD
ENDBRANCH   6  11
ENDBRANCH   3   6
ENDBRANCH   1   2
BRANCH   1  16
HETATM   16  C10 UNL     1      -8.406  25.810  -7.675  1.00  0.00     0.073 C 
BRANCH  16  17
HETATM   17  C11 UNL     1      -7.350  25.697  -6.674  1.00  0.00    -0.056 A 
HETATM   18  C12 UNL     1      -7.427  24.726  -5.698  1.00  0.00     0.010 A 
HETATM   19  C13 UNL     1      -6.424  24.602  -4.729  1.00  0.00     0.037 A 
HETATM   20  C14 UNL     1      -5.334  25.449  -4.724  1.00  0.00     0.065 A 
HETATM   21  C15 UNL     1      -5.258  26.413  -5.693  1.00  0.00     0.037 A 
HETATM   22  C16 UNL     1      -6.247  26.522  -6.636  1.00  0.00     0.010 A 
BRANCH  20  23
HETATM   23  O3  UNL     1      -4.327  25.322  -3.746  1.00  0.00    -0.361 OA
ATOM     24  H3  UNL     1      -3.670  25.999  -3.633  1.00  0.00     0.217 HD
ENDBRANCH  20  23
ENDBRANCH  16  17
ENDBRANCH   1  16
BRANCH   1  25
HETATM   25  C17 UNL     1      -9.482  24.892  -9.651  1.00  0.00     0.241 C 
HETATM   26  O4  UNL     1      -9.492  25.891 -10.410  1.00  0.00    -0.271 OA
HETATM   27  N3  UNL     1     -10.583  24.005  -9.782  1.00  0.00    -0.342 N 
ATOM     28  H3  UNL     1     -10.617  23.179  -9.185  1.00  0.00     0.163 HD
BRANCH  27  29
HETATM   29  C18 UNL     1     -11.678  24.227 -10.742  1.00  0.00     0.219 C 
BRANCH  29  30
HETATM   30  C19 UNL     1     -11.848  22.965 -11.499  1.00  0.00     0.078 C 
BRANCH  30  31
HETATM   31  C20 UNL     1     -11.232  22.875 -12.814  1.00  0.00    -0.055 A 
HETATM   32  C21 UNL     1     -11.483  23.849 -13.758  1.00  0.00     0.010 A 
HETATM   33  C22 UNL     1     -10.927  23.807 -15.027  1.00  0.00     0.037 A 
HETATM   34  C23 UNL     1     -10.094  22.773 -15.390  1.00  0.00     0.065 A 
HETATM   35  C24 UNL     1      -9.833  21.792 -14.463  1.00  0.00     0.037 A 
HETATM   36  C25 UNL     1     -10.397  21.856 -13.207  1.00  0.00     0.010 A 
BRANCH  34  37
HETATM   37  O5  UNL     1      -9.527  22.727 -16.681  1.00  0.00    -0.361 OA
ATOM     38  H5  UNL     1      -9.256  21.899 -17.062  1.00  0.00     0.217 HD
ENDBRANCH  34  37
ENDBRANCH  30  31
ENDBRANCH  29  30
BRANCH  29  39
HETATM   39  P1  UNL     1     -12.962  24.992  -9.896  1.00  0.00     0.283 P 
HETATM   40  O6  UNL     1     -12.661  26.293  -8.900  1.00  0.00    -0.638 OA
HETATM   41  O7  UNL     1     -14.532  24.375  -9.956  1.00  0.00    -0.638 OA
HETATM   42  O8  UNL     1     -13.404  25.981 -11.002  1.00  0.00    -0.638 OA
ENDBRANCH  29  39
ENDBRANCH  27  29
ENDBRANCH   1  25
TORSDOF 14
ENDMDL
