MODEL 3
REMARK VINA RESULT: -8.877693204      2.019      6.732
REMARK  14 active torsions:
REMARK  status: ('A' for Active; 'I' for Inactive)
REMARK    1  A    between atoms: C2_2  and  C3_3 
REMARK    2  A    between atoms: C3_3  and  C5_5 
REMARK    3  A    between atoms: C5_5  and  N1_6 
REMARK    4  A    between atoms: C5_5  and  C8_11 
REMARK       I    between atoms: N1_6  and  C6_8 
REMARK       I    between atoms: C8_11  and  N2_13 
REMARK    5  A    between atoms: N2_13  and  C9_15 
REMARK    6  A    between atoms: C9_15  and  C10_16 
REMARK    7  A    between atoms: C9_15  and  C17_25 
REMARK    8  A    between atoms: C10_16  and  C11_17 
REMARK    9  A    between atoms: C14_20  and  O3_21 
REMARK       I    between atoms: C17_25  and  N3_27 
REMARK   10  A    between atoms: N3_27  and  C18_29 
REMARK   11  A    between atoms: C18_29  and  C19_30 
REMARK   12  A    between atoms: C18_29  and  P1_39 
REMARK   13  A    between atoms: C19_30  and  C20_31 
REMARK   14  A    between atoms: C23_34  and  O5_35 
ROOT
HETATM    1  C9  UNL     1      -7.171  24.365 -11.110  1.00  0.00     0.180 C 
ENDROOT
BRANCH   1   2
HETATM    2  N2  UNL     1      -7.787  24.483  -9.807  1.00  0.00    -0.346 N 
HETATM    3  C8  UNL     1      -7.311  25.375  -8.821  1.00  0.00     0.241 C 
HETATM    4  O2  UNL     1      -6.294  26.069  -9.173  1.00  0.00    -0.271 OA
ATOM      5  H2  UNL     1      -8.596  23.899  -9.592  1.00  0.00     0.163 HD
BRANCH   3   6
HETATM    6  C5  UNL     1      -7.914  25.513  -7.489  1.00  0.00     0.180 C 
BRANCH   6   7
HETATM    7  C3  UNL     1      -7.082  25.030  -6.350  1.00  0.00     0.013 C 
HETATM    8  C4  UNL     1      -6.151  26.046  -5.763  1.00  0.00     0.012 C 
BRANCH   7   9
HETATM    9  C2  UNL     1      -7.817  24.297  -5.266  1.00  0.00     0.002 C 
HETATM   10  C1  UNL     1      -6.769  23.994  -4.177  1.00  0.00     0.005 C 
ENDBRANCH   7   9
ENDBRANCH   6   7
BRANCH   6  11
HETATM   11  N1  UNL     1      -9.166  24.717  -7.420  1.00  0.00    -0.348 N 
HETATM   12  C6  UNL     1     -10.351  25.133  -8.068  1.00  0.00     0.214 C 
HETATM   13  C7  UNL     1     -11.583  24.315  -7.979  1.00  0.00     0.117 C 
HETATM   14  O1  UNL     1     -10.296  26.230  -8.716  1.00  0.00    -0.274 OA
ATOM     15  H1  UNL     1      -9.170  23.845  -6.890  1.00  0.00     0.163 HD
ENDBRANCH   6  11
ENDBRANCH   3   6
ENDBRANCH   1   2
BRANCH   1  16
HETATM   16  C10 UNL     1      -6.403  23.053 -11.104  1.00  0.00     0.073 C 
BRANCH  16  17
HETATM   17  C11 UNL     1      -5.139  23.134 -11.828  1.00  0.00    -0.056 A 
HETATM   18  C12 UNL     1      -4.094  23.871 -11.311  1.00  0.00     0.010 A 
HETATM   19  C13 UNL     1      -2.875  23.961 -11.991  1.00  0.00     0.037 A 
HETATM   20  C14 UNL     1      -2.685  23.316 -13.196  1.00  0.00     0.065 A 
HETATM   21  C15 UNL     1      -3.721  22.584 -13.710  1.00  0.00     0.037 A 
HETATM   22  C16 UNL     1      -4.911  22.505 -13.032  1.00  0.00     0.010 A 
BRANCH  20  23
HETATM   23  O3  UNL     1      -1.455  23.409 -13.879  1.00  0.00    -0.361 OA
ATOM     24  H3  UNL     1      -0.633  23.272 -13.422  1.00  0.00     0.217 HD
ENDBRANCH  20  23
ENDBRANCH  16  17
ENDBRANCH   1  16
BRANCH   1  25
HETATM   25  C17 UNL     1      -8.264  24.257 -12.101  1.00  0.00     0.241 C 
HETATM   26  O4  UNL     1      -8.541  25.213 -12.866  1.00  0.00    -0.271 OA
HETATM   27  N3  UNL     1      -9.061  23.092 -12.253  1.00  0.00    -0.342 N 
ATOM     28  H3  UNL     1      -8.872  22.290 -11.653  1.00  0.00     0.163 HD
BRANCH  27  29
HETATM   29  C18 UNL     1     -10.149  22.992 -13.241  1.00  0.00     0.219 C 
BRANCH  29  30
HETATM   30  C19 UNL     1      -9.657  22.125 -14.336  1.00  0.00     0.078 C 
BRANCH  30  31
HETATM   31  C20 UNL     1      -8.929  22.757 -15.425  1.00  0.00    -0.055 A 
HETATM   32  C21 UNL     1      -9.619  23.324 -16.476  1.00  0.00     0.010 A 
HETATM   33  C22 UNL     1      -8.973  23.932 -17.541  1.00  0.00     0.037 A 
HETATM   34  C23 UNL     1      -7.599  23.989 -17.583  1.00  0.00     0.065 A 
HETATM   35  C24 UNL     1      -6.892  23.429 -16.545  1.00  0.00     0.037 A 
HETATM   36  C25 UNL     1      -7.557  22.830 -15.496  1.00  0.00     0.010 A 
BRANCH  34  37
HETATM   37  O5  UNL     1      -6.938  24.607 -18.666  1.00  0.00    -0.361 OA
ATOM     38  H5  UNL     1      -6.597  24.088 -19.385  1.00  0.00     0.217 HD
ENDBRANCH  34  37
ENDBRANCH  30  31
ENDBRANCH  29  30
BRANCH  29  39
HETATM   39  P1  UNL     1     -11.602  22.680 -12.379  1.00  0.00     0.283 P 
HETATM   40  O6  UNL     1     -11.583  21.758 -10.993  1.00  0.00    -0.638 OA
HETATM   41  O7  UNL     1     -13.095  23.195 -12.979  1.00  0.00    -0.638 OA
HETATM   42  O8  UNL     1     -11.619  23.952 -11.497  1.00  0.00    -0.638 OA
ENDBRANCH  29  39
ENDBRANCH  27  29
ENDBRANCH   1  25
TORSDOF 14
ENDMDL
