MODEL 11
REMARK VINA RESULT: -6.765558416      4.370      5.964
REMARK  5 active torsions:
REMARK  status: ('A' for Active; 'I' for Inactive)
REMARK    1  A    between atoms: C2_2  and  C5_5 
REMARK    2  A    between atoms: C7_7  and  C8_8 
REMARK    3  A    between atoms: C8_8  and  O1_9 
REMARK    4  A    between atoms: C8_8  and  N1_11 
REMARK    5  A    between atoms: C15_19  and  O3_20 
ROOT
HETATM    1  C5  UNL     1       6.250  -2.582  10.727  1.00  0.00    -0.017 A 
HETATM    2  C6  UNL     1       5.816  -1.562   9.880  1.00  0.00     0.026 A 
HETATM    3  C7  UNL     1       5.744  -1.764   8.489  1.00  0.00     0.015 A 
HETATM    4  C13 UNL     1       6.108  -2.982   7.982  1.00  0.00     0.018 A 
HETATM    5  C14 UNL     1       6.543  -4.008   8.824  1.00  0.00     0.038 A 
HETATM    6  C15 UNL     1       6.612  -3.796  10.210  1.00  0.00     0.072 A 
ENDROOT
BRANCH   3   7
HETATM    7  C8  UNL     1       5.290  -0.677   7.678  1.00  0.00     0.148 C 
BRANCH   7   8
HETATM    8  O1  UNL     1       6.253   0.142   7.310  1.00  0.00    -0.346 OA
ATOM      9  H1  UNL     1       5.939   0.989   7.016  1.00  0.00     0.219 HD
ENDBRANCH   7   8
BRANCH   7  10
HETATM   10  N1  UNL     1       4.050  -0.295   7.191  1.00  0.00    -0.357 N 
HETATM   11  C9  UNL     1       2.879  -1.132   7.142  1.00  0.00     0.151 C 
HETATM   12  C10 UNL     1       1.760  -0.230   6.521  1.00  0.00     0.187 C 
HETATM   13  O2  UNL     1       1.641   0.810   7.467  1.00  0.00    -0.388 OA
HETATM   14  C11 UNL     1       2.640   1.721   7.148  1.00  0.00     0.187 C 
HETATM   15  C12 UNL     1       3.904   1.083   6.677  1.00  0.00     0.151 C 
ENDBRANCH   7  10
ENDBRANCH   3   7
BRANCH   1  16
HETATM   16  C2  UNL     1       6.329  -2.376  12.185  1.00  0.00    -0.021 C 
HETATM   17  C1  UNL     1       5.007  -1.885  12.705  1.00  0.00     0.019 C 
HETATM   18  C3  UNL     1       6.728  -3.621  12.934  1.00  0.00     0.019 C 
HETATM   19  C4  UNL     1       7.387  -1.347  12.477  1.00  0.00     0.019 C 
ENDBRANCH   1  16
BRANCH   6  20
HETATM   20  O3  UNL     1       7.058  -4.896  10.916  1.00  0.00    -0.360 OA
ATOM     21  H3  UNL     1       7.234  -5.762  10.567  1.00  0.00     0.217 HD
ENDBRANCH   6  20
TORSDOF 5
ENDMDL
