MODEL 16
REMARK VINA RESULT: -6.557256807      2.896      6.228
REMARK  5 active torsions:
REMARK  status: ('A' for Active; 'I' for Inactive)
REMARK    1  A    between atoms: C2_2  and  C5_5 
REMARK    2  A    between atoms: C7_7  and  C8_8 
REMARK    3  A    between atoms: C8_8  and  O1_9 
REMARK    4  A    between atoms: C8_8  and  N1_11 
REMARK    5  A    between atoms: C15_19  and  O3_20 
ROOT
HETATM    1  C5  UNL     1       6.035  -2.605   7.774  1.00  0.00    -0.017 A 
HETATM    2  C6  UNL     1       6.454  -2.594   9.105  1.00  0.00     0.026 A 
HETATM    3  C7  UNL     1       5.932  -1.657  10.016  1.00  0.00     0.015 A 
HETATM    4  C13 UNL     1       5.003  -0.755   9.572  1.00  0.00     0.018 A 
HETATM    5  C14 UNL     1       4.579  -0.760   8.242  1.00  0.00     0.038 A 
HETATM    6  C15 UNL     1       5.106  -1.698   7.340  1.00  0.00     0.072 A 
ENDROOT
BRANCH   3   7
HETATM    7  C8  UNL     1       6.403  -1.701  11.365  1.00  0.00     0.148 C 
BRANCH   7   8
HETATM    8  O1  UNL     1       7.142  -0.663  11.698  1.00  0.00    -0.346 OA
ATOM      9  H1  UNL     1       7.827  -0.870  12.323  1.00  0.00     0.219 HD
ENDBRANCH   7   8
BRANCH   7  10
HETATM   10  N1  UNL     1       6.252  -2.603  12.407  1.00  0.00    -0.357 N 
HETATM   11  C9  UNL     1       5.130  -2.654  13.309  1.00  0.00     0.151 C 
HETATM   12  C10 UNL     1       5.441  -3.843  14.279  1.00  0.00     0.187 C 
HETATM   13  O2  UNL     1       5.483  -4.951  13.407  1.00  0.00    -0.388 OA
HETATM   14  C11 UNL     1       6.768  -4.962  12.878  1.00  0.00     0.187 C 
HETATM   15  C12 UNL     1       7.321  -3.600  12.620  1.00  0.00     0.151 C 
ENDBRANCH   7  10
ENDBRANCH   3   7
BRANCH   1  16
HETATM   16  C2  UNL     1       6.579  -3.583   6.816  1.00  0.00    -0.021 C 
HETATM   17  C1  UNL     1       5.516  -4.576   6.437  1.00  0.00     0.019 C 
HETATM   18  C3  UNL     1       7.128  -2.941   5.568  1.00  0.00     0.019 C 
HETATM   19  C4  UNL     1       7.729  -4.311   7.459  1.00  0.00     0.019 C 
ENDBRANCH   1  16
BRANCH   6  20
HETATM   20  O3  UNL     1       4.596  -1.585   6.062  1.00  0.00    -0.360 OA
ATOM     21  H3  UNL     1       4.879  -0.978   5.389  1.00  0.00     0.217 HD
ENDBRANCH   6  20
TORSDOF 5
ENDMDL
