MODEL 4
REMARK VINA RESULT: -7.311858796      1.293      1.889
REMARK  5 active torsions:
REMARK  status: ('A' for Active; 'I' for Inactive)
REMARK    1  A    between atoms: C2_2  and  C5_5 
REMARK    2  A    between atoms: C7_7  and  C8_8 
REMARK    3  A    between atoms: C8_8  and  O1_9 
REMARK    4  A    between atoms: C8_8  and  N1_11 
REMARK    5  A    between atoms: C15_19  and  O3_20 
ROOT
HETATM    1  C5  UNL     1       6.917  -3.172  11.594  1.00  0.00    -0.017 A 
HETATM    2  C6  UNL     1       7.569  -3.525  10.412  1.00  0.00     0.026 A 
HETATM    3  C7  UNL     1       8.039  -4.837  10.214  1.00  0.00     0.015 A 
HETATM    4  C13 UNL     1       7.842  -5.762  11.203  1.00  0.00     0.018 A 
HETATM    5  C14 UNL     1       7.191  -5.416  12.389  1.00  0.00     0.038 A 
HETATM    6  C15 UNL     1       6.727  -4.104  12.578  1.00  0.00     0.072 A 
ENDROOT
BRANCH   3   7
HETATM    7  C8  UNL     1       8.697  -5.132   8.979  1.00  0.00     0.148 C 
BRANCH   7   8
HETATM    8  O1  UNL     1       9.730  -5.937   9.115  1.00  0.00    -0.346 OA
ATOM      9  H1  UNL     1       9.678  -6.714   8.570  1.00  0.00     0.219 HD
ENDBRANCH   7   8
BRANCH   7  10
HETATM   10  N1  UNL     1       8.484  -4.755   7.663  1.00  0.00    -0.357 N 
HETATM   11  C9  UNL     1       7.727  -3.607   7.236  1.00  0.00     0.151 C 
HETATM   12  C10 UNL     1       7.801  -3.628   5.672  1.00  0.00     0.187 C 
HETATM   13  O2  UNL     1       9.182  -3.485   5.426  1.00  0.00    -0.388 OA
HETATM   14  C11 UNL     1       9.716  -4.764   5.532  1.00  0.00     0.187 C 
HETATM   15  C12 UNL     1       9.080  -5.591   6.599  1.00  0.00     0.151 C 
ENDBRANCH   7  10
ENDBRANCH   3   7
BRANCH   1  16
HETATM   16  C2  UNL     1       6.425  -1.799  11.808  1.00  0.00    -0.021 C 
HETATM   17  C1  UNL     1       6.339  -1.074  10.494  1.00  0.00     0.019 C 
HETATM   18  C3  UNL     1       5.082  -1.756  12.489  1.00  0.00     0.019 C 
HETATM   19  C4  UNL     1       7.382  -1.071  12.712  1.00  0.00     0.019 C 
ENDBRANCH   1  16
BRANCH   6  20
HETATM   20  O3  UNL     1       6.103  -3.907  13.794  1.00  0.00    -0.360 OA
ATOM     21  H3  UNL     1       6.525  -3.787  14.636  1.00  0.00     0.217 HD
ENDBRANCH   6  20
TORSDOF 5
ENDMDL
