MODEL 2
REMARK VINA RESULT: -7.825121565      0.660      1.248
REMARK  5 active torsions:
REMARK  status: ('A' for Active; 'I' for Inactive)
REMARK    1  A    between atoms: C2_2  and  C5_5 
REMARK    2  A    between atoms: C7_7  and  C8_8 
REMARK    3  A    between atoms: C8_8  and  O1_9 
REMARK    4  A    between atoms: C8_8  and  N1_11 
REMARK    5  A    between atoms: C15_19  and  O3_20 
ROOT
HETATM    1  C5  UNL     1       7.062  -3.082  11.668  1.00  0.00    -0.017 A 
HETATM    2  C6  UNL     1       7.875  -3.605  10.662  1.00  0.00     0.026 A 
HETATM    3  C7  UNL     1       8.213  -4.971  10.647  1.00  0.00     0.015 A 
HETATM    4  C13 UNL     1       7.728  -5.779  11.639  1.00  0.00     0.018 A 
HETATM    5  C14 UNL     1       6.914  -5.263  12.650  1.00  0.00     0.038 A 
HETATM    6  C15 UNL     1       6.584  -3.899  12.657  1.00  0.00     0.072 A 
ENDROOT
BRANCH   3   7
HETATM    7  C8  UNL     1       9.048  -5.442   9.586  1.00  0.00     0.148 C 
BRANCH   7   8
HETATM    8  O1  UNL     1      10.216  -5.889   9.997  1.00  0.00    -0.346 OA
ATOM      9  H1  UNL     1      10.539  -6.625   9.490  1.00  0.00     0.219 HD
ENDBRANCH   7   8
BRANCH   7  10
HETATM   10  N1  UNL     1       8.896  -5.532   8.211  1.00  0.00    -0.357 N 
HETATM   11  C9  UNL     1       8.315  -4.519   7.368  1.00  0.00     0.151 C 
HETATM   12  C10 UNL     1       8.390  -5.105   5.918  1.00  0.00     0.187 C 
HETATM   13  O2  UNL     1       9.778  -5.246   5.712  1.00  0.00    -0.388 OA
HETATM   14  C11 UNL     1      10.119  -6.463   6.290  1.00  0.00     0.187 C 
HETATM   15  C12 UNL     1       9.367  -6.763   7.543  1.00  0.00     0.151 C 
ENDBRANCH   7  10
ENDBRANCH   3   7
BRANCH   1  16
HETATM   16  C2  UNL     1       6.706  -1.652  11.690  1.00  0.00    -0.021 C 
HETATM   17  C1  UNL     1       5.220  -1.495  11.854  1.00  0.00     0.019 C 
HETATM   18  C3  UNL     1       7.411  -0.887  12.779  1.00  0.00     0.019 C 
HETATM   19  C4  UNL     1       7.128  -1.023  10.389  1.00  0.00     0.019 C 
ENDBRANCH   1  16
BRANCH   6  20
HETATM   20  O3  UNL     1       5.774  -3.530  13.713  1.00  0.00    -0.360 OA
ATOM     21  H3  UNL     1       4.977  -3.963  13.996  1.00  0.00     0.217 HD
ENDBRANCH   6  20
TORSDOF 5
ENDMDL
