MODEL 5
REMARK VINA RESULT: -7.295012869      1.441      1.517
REMARK  5 active torsions:
REMARK  status: ('A' for Active; 'I' for Inactive)
REMARK    1  A    between atoms: C2_2  and  C5_5 
REMARK    2  A    between atoms: C7_7  and  C8_8 
REMARK    3  A    between atoms: C8_8  and  O1_9 
REMARK    4  A    between atoms: C8_8  and  N1_11 
REMARK    5  A    between atoms: C15_19  and  O3_20 
ROOT
HETATM    1  C5  UNL     1       6.929  -3.060  10.978  1.00  0.00    -0.017 A 
HETATM    2  C6  UNL     1       7.118  -3.755   9.783  1.00  0.00     0.026 A 
HETATM    3  C7  UNL     1       7.385  -5.137   9.790  1.00  0.00     0.015 A 
HETATM    4  C13 UNL     1       7.455  -5.787  10.992  1.00  0.00     0.018 A 
HETATM    5  C14 UNL     1       7.267  -5.098  12.192  1.00  0.00     0.038 A 
HETATM    6  C15 UNL     1       7.002  -3.719  12.175  1.00  0.00     0.072 A 
ENDROOT
BRANCH   3   7
HETATM    7  C8  UNL     1       7.568  -5.789   8.530  1.00  0.00     0.148 C 
BRANCH   7   8
HETATM    8  O1  UNL     1       6.643  -6.688   8.266  1.00  0.00    -0.346 OA
ATOM      9  H1  UNL     1       6.817  -7.190   7.478  1.00  0.00     0.219 HD
ENDBRANCH   7   8
BRANCH   7  10
HETATM   10  N1  UNL     1       8.510  -5.681   7.520  1.00  0.00    -0.357 N 
HETATM   11  C9  UNL     1       9.546  -6.642   7.239  1.00  0.00     0.151 C 
HETATM   12  C10 UNL     1      10.321  -6.057   6.011  1.00  0.00     0.187 C 
HETATM   13  O2  UNL     1       9.331  -6.023   5.007  1.00  0.00    -0.388 OA
HETATM   14  C11 UNL     1       8.633  -4.839   5.211  1.00  0.00     0.187 C 
HETATM   15  C12 UNL     1       8.458  -4.487   6.651  1.00  0.00     0.151 C 
ENDBRANCH   7  10
ENDBRANCH   3   7
BRANCH   1  16
HETATM   16  C2  UNL     1       6.650  -1.612  10.977  1.00  0.00    -0.021 C 
HETATM   17  C1  UNL     1       5.196  -1.369  11.271  1.00  0.00     0.019 C 
HETATM   18  C3  UNL     1       7.493  -0.851  11.966  1.00  0.00     0.019 C 
HETATM   19  C4  UNL     1       6.979  -1.051   9.619  1.00  0.00     0.019 C 
ENDBRANCH   1  16
BRANCH   6  20
HETATM   20  O3  UNL     1       6.838  -3.171  13.431  1.00  0.00    -0.360 OA
ATOM     21  H3  UNL     1       7.519  -3.005  14.073  1.00  0.00     0.217 HD
ENDBRANCH   6  20
TORSDOF 5
ENDMDL
