MODEL 3
REMARK VINA RESULT: -7.674725343      0.701      1.637
REMARK  5 active torsions:
REMARK  status: ('A' for Active; 'I' for Inactive)
REMARK    1  A    between atoms: C2_2  and  C5_5 
REMARK    2  A    between atoms: C7_7  and  C8_8 
REMARK    3  A    between atoms: C8_8  and  O1_9 
REMARK    4  A    between atoms: C8_8  and  N1_11 
REMARK    5  A    between atoms: C15_19  and  O3_20 
ROOT
HETATM    1  C5  UNL     1       6.957  -3.132  11.756  1.00  0.00    -0.017 A 
HETATM    2  C6  UNL     1       7.778  -3.624  10.742  1.00  0.00     0.026 A 
HETATM    3  C7  UNL     1       8.166  -4.977  10.723  1.00  0.00     0.015 A 
HETATM    4  C13 UNL     1       7.721  -5.802  11.720  1.00  0.00     0.018 A 
HETATM    5  C14 UNL     1       6.899  -5.316  12.739  1.00  0.00     0.038 A 
HETATM    6  C15 UNL     1       6.518  -3.965  12.749  1.00  0.00     0.072 A 
ENDROOT
BRANCH   3   7
HETATM    7  C8  UNL     1       9.008  -5.417   9.654  1.00  0.00     0.148 C 
BRANCH   7   8
HETATM    8  O1  UNL     1      10.177  -5.867  10.057  1.00  0.00    -0.346 OA
ATOM      9  H1  UNL     1      10.835  -5.879   9.372  1.00  0.00     0.219 HD
ENDBRANCH   7   8
BRANCH   7  10
HETATM   10  N1  UNL     1       8.861  -5.475   8.277  1.00  0.00    -0.357 N 
HETATM   11  C9  UNL     1       8.197  -4.486   7.466  1.00  0.00     0.151 C 
HETATM   12  C10 UNL     1       8.316  -5.017   5.998  1.00  0.00     0.187 C 
HETATM   13  O2  UNL     1       9.711  -5.038   5.789  1.00  0.00    -0.388 OA
HETATM   14  C11 UNL     1      10.152  -6.241   6.327  1.00  0.00     0.187 C 
HETATM   15  C12 UNL     1       9.428  -6.641   7.569  1.00  0.00     0.151 C 
ENDBRANCH   7  10
ENDBRANCH   3   7
BRANCH   1  16
HETATM   16  C2  UNL     1       6.549  -1.715  11.782  1.00  0.00    -0.021 C 
HETATM   17  C1  UNL     1       7.411  -0.950  12.746  1.00  0.00     0.019 C 
HETATM   18  C3  UNL     1       6.615  -1.060  10.427  1.00  0.00     0.019 C 
HETATM   19  C4  UNL     1       5.113  -1.627  12.226  1.00  0.00     0.019 C 
ENDBRANCH   1  16
BRANCH   6  20
HETATM   20  O3  UNL     1       5.706  -3.627  13.813  1.00  0.00    -0.360 OA
ATOM     21  H3  UNL     1       5.203  -4.222  14.356  1.00  0.00     0.217 HD
ENDBRANCH   6  20
TORSDOF 5
ENDMDL
