MODEL 17
REMARK VINA RESULT: -6.547075297      4.511      5.982
REMARK  5 active torsions:
REMARK  status: ('A' for Active; 'I' for Inactive)
REMARK    1  A    between atoms: C2_2  and  C5_5 
REMARK    2  A    between atoms: C7_7  and  C8_8 
REMARK    3  A    between atoms: C8_8  and  O1_9 
REMARK    4  A    between atoms: C8_8  and  N1_11 
REMARK    5  A    between atoms: C15_19  and  O3_20 
ROOT
HETATM    1  C5  UNL     1       6.308  -2.155  10.559  1.00  0.00    -0.017 A 
HETATM    2  C6  UNL     1       5.454  -1.326   9.831  1.00  0.00     0.026 A 
HETATM    3  C7  UNL     1       5.431  -1.375   8.425  1.00  0.00     0.015 A 
HETATM    4  C13 UNL     1       6.263  -2.252   7.783  1.00  0.00     0.018 A 
HETATM    5  C14 UNL     1       7.121  -3.084   8.505  1.00  0.00     0.038 A 
HETATM    6  C15 UNL     1       7.137  -3.027   9.908  1.00  0.00     0.072 A 
ENDROOT
BRANCH   3   7
HETATM    7  C8  UNL     1       4.531  -0.500   7.740  1.00  0.00     0.148 C 
BRANCH   7   8
HETATM    8  O1  UNL     1       4.875   0.769   7.812  1.00  0.00    -0.346 OA
ATOM      9  H1  UNL     1       5.493   1.033   7.140  1.00  0.00     0.219 HD
ENDBRANCH   7   8
BRANCH   7  10
HETATM   10  N1  UNL     1       3.368  -0.696   7.011  1.00  0.00    -0.357 N 
HETATM   11  C9  UNL     1       3.256  -1.497   5.820  1.00  0.00     0.151 C 
HETATM   12  C10 UNL     1       1.750  -1.397   5.402  1.00  0.00     0.187 C 
HETATM   13  O2  UNL     1       1.084  -1.972   6.503  1.00  0.00    -0.388 OA
HETATM   14  C11 UNL     1       0.958  -0.952   7.439  1.00  0.00     0.187 C 
HETATM   15  C12 UNL     1       2.135  -0.035   7.486  1.00  0.00     0.151 C 
ENDBRANCH   7  10
ENDBRANCH   3   7
BRANCH   1  16
HETATM   16  C2  UNL     1       6.338  -2.107  12.032  1.00  0.00    -0.021 C 
HETATM   17  C1  UNL     1       4.990  -1.701  12.559  1.00  0.00     0.019 C 
HETATM   18  C3  UNL     1       6.741  -3.418  12.654  1.00  0.00     0.019 C 
HETATM   19  C4  UNL     1       7.364  -1.096  12.469  1.00  0.00     0.019 C 
ENDBRANCH   1  16
BRANCH   6  20
HETATM   20  O3  UNL     1       8.032  -3.905  10.487  1.00  0.00    -0.360 OA
ATOM     21  H3  UNL     1       8.197  -4.804  10.226  1.00  0.00     0.217 HD
ENDBRANCH   6  20
TORSDOF 5
ENDMDL
