MODEL 1
REMARK VINA RESULT: -7.869854680      0.000      0.000
REMARK  5 active torsions:
REMARK  status: ('A' for Active; 'I' for Inactive)
REMARK    1  A    between atoms: C2_2  and  C5_5 
REMARK    2  A    between atoms: C7_7  and  C8_8 
REMARK    3  A    between atoms: C8_8  and  O1_9 
REMARK    4  A    between atoms: C8_8  and  N1_11 
REMARK    5  A    between atoms: C15_19  and  O3_20 
ROOT
HETATM    1  C5  UNL     1       7.085  -3.033  11.705  1.00  0.00    -0.017 A 
HETATM    2  C6  UNL     1       7.964  -3.623  10.795  1.00  0.00     0.026 A 
HETATM    3  C7  UNL     1       8.260  -4.997  10.868  1.00  0.00     0.015 A 
HETATM    4  C13 UNL     1       7.668  -5.746  11.849  1.00  0.00     0.018 A 
HETATM    5  C14 UNL     1       6.788  -5.162  12.763  1.00  0.00     0.038 A 
HETATM    6  C15 UNL     1       6.500  -3.791  12.683  1.00  0.00     0.072 A 
ENDROOT
BRANCH   3   7
HETATM    7  C8  UNL     1       9.167  -5.538   9.904  1.00  0.00     0.148 C 
BRANCH   7   8
HETATM    8  O1  UNL     1      10.276  -6.010  10.434  1.00  0.00    -0.346 OA
ATOM      9  H1  UNL     1      10.678  -6.699   9.920  1.00  0.00     0.219 HD
ENDBRANCH   7   8
BRANCH   7  10
HETATM   10  N1  UNL     1       9.135  -5.676   8.526  1.00  0.00    -0.357 N 
HETATM   11  C9  UNL     1       9.809  -6.703   7.775  1.00  0.00     0.151 C 
HETATM   12  C10 UNL     1       9.445  -6.418   6.278  1.00  0.00     0.187 C 
HETATM   13  O2  UNL     1       8.044  -6.573   6.266  1.00  0.00    -0.388 OA
HETATM   14  C11 UNL     1       7.529  -5.354   6.689  1.00  0.00     0.187 C 
HETATM   15  C12 UNL     1       8.345  -4.696   7.751  1.00  0.00     0.151 C 
ENDBRANCH   7  10
ENDBRANCH   3   7
BRANCH   1  16
HETATM   16  C2  UNL     1       6.773  -1.594  11.634  1.00  0.00    -0.021 C 
HETATM   17  C1  UNL     1       5.283  -1.393  11.613  1.00  0.00     0.019 C 
HETATM   18  C3  UNL     1       7.366  -0.807  12.773  1.00  0.00     0.019 C 
HETATM   19  C4  UNL     1       7.365  -1.026  10.372  1.00  0.00     0.019 C 
ENDBRANCH   1  16
BRANCH   6  20
HETATM   20  O3  UNL     1       5.615  -3.353  13.648  1.00  0.00    -0.360 OA
ATOM     21  H3  UNL     1       5.787  -3.265  14.579  1.00  0.00     0.217 HD
ENDBRANCH   6  20
TORSDOF 5
ENDMDL
