MODEL 7
REMARK VINA RESULT: -4.575576132      2.924      4.107
REMARK  3 active torsions:
REMARK  status: ('A' for Active; 'I' for Inactive)
REMARK    1  A    between atoms: C4_6  and  O1_7 
REMARK    2  A    between atoms: C5_9  and  O2_10 
REMARK    3  A    between atoms: C6_12  and  O3_13 
ROOT
HETATM    1  C1  UNL     1      36.382   3.302  41.194  1.00  0.00     0.034 C 
HETATM    2  C2  UNL     1      35.111   4.095  40.858  1.00  0.00     0.103 C 
HETATM    3  N1  UNL     1      35.493   5.450  40.714  1.00  0.00    -0.412 N 
ATOM      4  H1  UNL     1      36.461   5.719  40.538  1.00  0.00     0.153 HD
HETATM    5  C3  UNL     1      34.460   6.415  40.827  1.00  0.00     0.148 C 
HETATM    6  C4  UNL     1      33.071   5.818  40.859  1.00  0.00     0.166 C 
HETATM    7  C5  UNL     1      33.034   4.876  42.039  1.00  0.00     0.179 C 
HETATM    8  C6  UNL     1      34.052   3.805  41.849  1.00  0.00     0.171 C 
ENDROOT
BRANCH   6   9
HETATM    9  O1  UNL     1      32.736   5.190  39.674  1.00  0.00    -0.391 OA
ATOM     10  H1  UNL     1      31.864   4.813  39.694  1.00  0.00     0.210 HD
ENDBRANCH   6   9
BRANCH   7  11
HETATM   11  O2  UNL     1      33.261   5.622  43.189  1.00  0.00    -0.390 OA
ATOM     12  H2  UNL     1      34.146   5.443  43.484  1.00  0.00     0.210 HD
ENDBRANCH   7  11
BRANCH   8  13
HETATM   13  O3  UNL     1      34.594   3.479  43.102  1.00  0.00    -0.391 OA
ATOM     14  H3  UNL     1      35.488   3.170  43.024  1.00  0.00     0.210 HD
ENDBRANCH   8  13
TORSDOF 3
ENDMDL
