MODEL 1
REMARK VINA RESULT: -6.580904097      0.000      0.000
REMARK  3 active torsions:
REMARK  status: ('A' for Active; 'I' for Inactive)
REMARK    1  A    between atoms: C4_6  and  O1_7 
REMARK    2  A    between atoms: C5_9  and  O2_10 
REMARK    3  A    between atoms: C6_12  and  O3_13 
ROOT
HETATM    1  C1  UNL     1      29.355   2.661  43.289  1.00  0.00     0.034 C 
HETATM    2  C2  UNL     1      30.594   3.331  42.678  1.00  0.00     0.103 C 
HETATM    3  N1  UNL     1      31.563   2.316  42.489  1.00  0.00    -0.412 N 
ATOM      4  H1  UNL     1      31.307   1.329  42.458  1.00  0.00     0.153 HD
HETATM    5  C3  UNL     1      32.907   2.742  42.344  1.00  0.00     0.148 C 
HETATM    6  C4  UNL     1      33.057   4.239  42.189  1.00  0.00     0.166 C 
HETATM    7  C5  UNL     1      32.442   4.863  43.419  1.00  0.00     0.179 C 
HETATM    8  C6  UNL     1      31.002   4.494  43.495  1.00  0.00     0.171 C 
ENDROOT
BRANCH   6   9
HETATM    9  O1  UNL     1      32.489   4.711  41.020  1.00  0.00    -0.391 OA
ATOM     10  H1  UNL     1      32.171   5.603  41.103  1.00  0.00     0.210 HD
ENDBRANCH   6   9
BRANCH   7  11
HETATM   11  O2  UNL     1      33.159   4.423  44.525  1.00  0.00    -0.390 OA
ATOM     12  H2  UNL     1      32.541   4.061  45.149  1.00  0.00     0.210 HD
ENDBRANCH   7  11
BRANCH   8  13
HETATM   13  O3  UNL     1      30.656   4.322  44.844  1.00  0.00    -0.391 OA
ATOM     14  H3  UNL     1      29.872   3.795  44.938  1.00  0.00     0.210 HD
ENDBRANCH   8  13
TORSDOF 3
ENDMDL
