MODEL 10
REMARK VINA RESULT: -4.504587495      3.443      4.802
REMARK  3 active torsions:
REMARK  status: ('A' for Active; 'I' for Inactive)
REMARK    1  A    between atoms: C4_6  and  O1_7 
REMARK    2  A    between atoms: C5_9  and  O2_10 
REMARK    3  A    between atoms: C6_12  and  O3_13 
ROOT
HETATM    1  C1  UNL     1      34.867   2.275  39.962  1.00  0.00     0.034 C 
HETATM    2  C2  UNL     1      34.649   3.752  40.319  1.00  0.00     0.103 C 
HETATM    3  N1  UNL     1      33.675   3.791  41.345  1.00  0.00    -0.412 N 
ATOM      4  H1  UNL     1      33.464   2.972  41.916  1.00  0.00     0.153 HD
HETATM    5  C3  UNL     1      33.006   5.026  41.538  1.00  0.00     0.148 C 
HETATM    6  C4  UNL     1      33.610   6.172  40.757  1.00  0.00     0.166 C 
HETATM    7  C5  UNL     1      33.560   5.775  39.301  1.00  0.00     0.179 C 
HETATM    8  C6  UNL     1      34.359   4.535  39.098  1.00  0.00     0.171 C 
ENDROOT
BRANCH   6   9
HETATM    9  O1  UNL     1      34.891   6.482  41.174  1.00  0.00    -0.391 OA
ATOM     10  H1  UNL     1      35.555   5.973  40.723  1.00  0.00     0.210 HD
ENDBRANCH   6   9
BRANCH   7  11
HETATM   11  O2  UNL     1      32.226   5.606  38.949  1.00  0.00    -0.390 OA
ATOM     12  H2  UNL     1      31.743   6.361  39.266  1.00  0.00     0.210 HD
ENDBRANCH   7  11
BRANCH   8  13
HETATM   13  O3  UNL     1      33.726   3.751  38.122  1.00  0.00    -0.391 OA
ATOM     14  H3  UNL     1      34.331   3.489  37.438  1.00  0.00     0.210 HD
ENDBRANCH   8  13
TORSDOF 3
ENDMDL
