MODEL 13
REMARK VINA RESULT: -4.378101413      3.467      4.589
REMARK  3 active torsions:
REMARK  status: ('A' for Active; 'I' for Inactive)
REMARK    1  A    between atoms: C4_6  and  O1_7 
REMARK    2  A    between atoms: C5_9  and  O2_10 
REMARK    3  A    between atoms: C6_12  and  O3_13 
ROOT
HETATM    1  C1  UNL     1      33.880   4.314  37.299  1.00  0.00     0.034 C 
HETATM    2  C2  UNL     1      34.340   4.565  38.742  1.00  0.00     0.103 C 
HETATM    3  N1  UNL     1      34.455   3.300  39.367  1.00  0.00    -0.412 N 
ATOM      4  H1  UNL     1      34.540   2.440  38.826  1.00  0.00     0.153 HD
HETATM    5  C3  UNL     1      34.447   3.291  40.785  1.00  0.00     0.148 C 
HETATM    6  C4  UNL     1      34.544   4.668  41.402  1.00  0.00     0.166 C 
HETATM    7  C5  UNL     1      33.367   5.458  40.880  1.00  0.00     0.179 C 
HETATM    8  C6  UNL     1      33.452   5.551  39.397  1.00  0.00     0.171 C 
ENDROOT
BRANCH   6   9
HETATM    9  O1  UNL     1      35.752   5.286  41.136  1.00  0.00    -0.391 OA
ATOM     10  H1  UNL     1      36.305   5.354  41.905  1.00  0.00     0.210 HD
ENDBRANCH   6   9
BRANCH   7  11
HETATM   11  O2  UNL     1      32.205   4.824  41.304  1.00  0.00    -0.390 OA
ATOM     12  H2  UNL     1      31.569   5.495  41.522  1.00  0.00     0.210 HD
ENDBRANCH   7  11
BRANCH   8  13
HETATM   13  O3  UNL     1      32.152   5.501  38.872  1.00  0.00    -0.391 OA
ATOM     14  H3  UNL     1      32.144   5.686  37.941  1.00  0.00     0.210 HD
ENDBRANCH   8  13
TORSDOF 3
ENDMDL
