MODEL 8
REMARK VINA RESULT: -7.702228546      2.523      7.422
REMARK  6 active torsions:
REMARK  status: ('A' for Active; 'I' for Inactive)
REMARK    1  A    between atoms: C3_5  and  C4_6 
REMARK    2  A    between atoms: C4_6  and  N2_7 
REMARK       I    between atoms: N2_7  and  C5_9 
REMARK    3  A    between atoms: C5_9  and  C6_11 
REMARK    4  A    between atoms: C19_25  and  O3_26 
REMARK    5  A    between atoms: C20_28  and  O4_29 
REMARK    6  A    between atoms: C21_31  and  O5_32 
ROOT
HETATM    1  N2  UNL     1     -30.946   1.491  24.760  1.00  0.00    -0.351 N 
ATOM      2  H2  UNL     1     -31.335   0.660  24.314  1.00  0.00     0.163 HD
HETATM    3  C5  UNL     1     -30.463   1.306  26.062  1.00  0.00     0.252 C 
HETATM    4  O1  UNL     1     -29.963   2.260  26.697  1.00  0.00    -0.268 OA
ENDROOT
BRANCH   1   5
HETATM    5  C4  UNL     1     -30.970   2.679  23.973  1.00  0.00     0.177 C 
BRANCH   5   6
HETATM    6  C3  UNL     1     -32.228   3.222  23.449  1.00  0.00     0.032 C 
HETATM    7  N1  UNL     1     -33.477   2.629  23.561  1.00  0.00    -0.386 N 
HETATM    8  C2  UNL     1     -34.241   2.906  24.744  1.00  0.00     0.108 C 
ATOM      9  H1  UNL     1     -33.839   2.018  22.829  1.00  0.00     0.159 HD
HETATM   10  C1  UNL     1     -33.989   1.979  25.901  1.00  0.00     0.035 C 
HETATM   11  C21 UNL     1     -34.165   4.348  25.174  1.00  0.00     0.172 C 
HETATM   12  C20 UNL     1     -32.807   4.956  25.084  1.00  0.00     0.183 C 
HETATM   13  C19 UNL     1     -32.285   4.752  23.705  1.00  0.00     0.196 C 
BRANCH  11  14
HETATM   14  O5  UNL     1     -34.693   4.475  26.437  1.00  0.00    -0.391 OA
ATOM     15  H5  UNL     1     -34.436   5.313  26.803  1.00  0.00     0.210 HD
ENDBRANCH  11  14
BRANCH  12  16
HETATM   16  O4  UNL     1     -32.014   4.422  26.087  1.00  0.00    -0.390 OA
ATOM     17  H4  UNL     1     -32.159   3.499  26.257  1.00  0.00     0.210 HD
ENDBRANCH  12  16
BRANCH  13  18
HETATM   18  O3  UNL     1     -33.220   5.234  22.796  1.00  0.00    -0.387 OA
ATOM     19  H3  UNL     1     -33.458   4.481  22.267  1.00  0.00     0.210 HD
ENDBRANCH  13  18
ENDBRANCH   5   6
ENDBRANCH   1   5
BRANCH   3  20
HETATM   20  C6  UNL     1     -30.508   0.024  26.767  1.00  0.00     0.047 A 
HETATM   21  C7  UNL     1     -31.727  -0.426  27.284  1.00  0.00     0.018 A 
HETATM   22  C8  UNL     1     -31.846  -1.659  27.870  1.00  0.00     0.002 A 
HETATM   23  C9  UNL     1     -30.748  -2.478  27.953  1.00  0.00     0.013 A 
HETATM   24  C10 UNL     1     -29.543  -2.037  27.445  1.00  0.00    -0.010 A 
HETATM   25  C11 UNL     1     -29.425  -0.789  26.854  1.00  0.00     0.042 A 
HETATM   26  C18 UNL     1     -28.244  -2.718  27.451  1.00  0.00    -0.011 A 
HETATM   27  C12 UNL     1     -28.016  -0.683  26.486  1.00  0.00     0.195 A 
HETATM   28  O2  UNL     1     -27.477   0.307  25.924  1.00  0.00    -0.287 OA
HETATM   29  C13 UNL     1     -27.309  -1.917  26.877  1.00  0.00     0.026 A 
HETATM   30  C14 UNL     1     -25.991  -2.266  26.730  1.00  0.00     0.016 A 
HETATM   31  C15 UNL     1     -25.622  -3.517  27.205  1.00  0.00     0.001 A 
HETATM   32  C16 UNL     1     -26.525  -4.381  27.800  1.00  0.00     0.001 A 
HETATM   33  C17 UNL     1     -27.835  -3.964  27.914  1.00  0.00     0.013 A 
ENDBRANCH   3  20
TORSDOF 6
ENDMDL
