MODEL 20
REMARK VINA RESULT: -7.389783379      2.913      3.916
REMARK  6 active torsions:
REMARK  status: ('A' for Active; 'I' for Inactive)
REMARK    1  A    between atoms: C3_5  and  C4_6 
REMARK    2  A    between atoms: C4_6  and  N2_7 
REMARK       I    between atoms: N2_7  and  C5_9 
REMARK    3  A    between atoms: C5_9  and  C6_11 
REMARK    4  A    between atoms: C19_25  and  O3_26 
REMARK    5  A    between atoms: C20_28  and  O4_29 
REMARK    6  A    between atoms: C21_31  and  O5_32 
ROOT
HETATM    1  N2  UNL     1     -28.615   1.865  25.930  1.00  0.00    -0.351 N 
ATOM      2  H2  UNL     1     -28.656   2.884  25.911  1.00  0.00     0.163 HD
HETATM    3  C5  UNL     1     -29.182   1.216  24.826  1.00  0.00     0.252 C 
HETATM    4  O1  UNL     1     -29.180  -0.032  24.751  1.00  0.00    -0.268 OA
ENDROOT
BRANCH   1   5
HETATM    5  C4  UNL     1     -27.989   1.298  27.079  1.00  0.00     0.177 C 
BRANCH   5   6
HETATM    6  C3  UNL     1     -26.546   1.033  27.110  1.00  0.00     0.032 C 
HETATM    7  N1  UNL     1     -25.566   1.814  26.516  1.00  0.00    -0.386 N 
HETATM    8  C2  UNL     1     -25.039   2.912  27.276  1.00  0.00     0.108 C 
ATOM      9  H1  UNL     1     -25.231   1.615  25.574  1.00  0.00     0.159 HD
HETATM   10  C1  UNL     1     -25.788   4.209  27.131  1.00  0.00     0.035 C 
HETATM   11  C21 UNL     1     -24.813   2.573  28.727  1.00  0.00     0.172 C 
HETATM   12  C20 UNL     1     -25.896   1.767  29.357  1.00  0.00     0.183 C 
HETATM   13  C19 UNL     1     -26.131   0.554  28.527  1.00  0.00     0.196 C 
BRANCH  11  14
HETATM   14  O5  UNL     1     -24.566   3.727  29.431  1.00  0.00    -0.391 OA
ATOM     15  H5  UNL     1     -23.813   4.170  29.058  1.00  0.00     0.210 HD
ENDBRANCH  11  14
BRANCH  12  16
HETATM   16  O4  UNL     1     -27.008   2.575  29.528  1.00  0.00    -0.390 OA
ATOM     17  H4  UNL     1     -26.933   3.440  29.142  1.00  0.00     0.210 HD
ENDBRANCH  12  16
BRANCH  13  18
HETATM   18  O3  UNL     1     -24.922  -0.106  28.343  1.00  0.00    -0.387 OA
ATOM     19  H3  UNL     1     -24.377   0.174  29.069  1.00  0.00     0.210 HD
ENDBRANCH  13  18
ENDBRANCH   5   6
ENDBRANCH   1   5
BRANCH   3  20
HETATM   20  C6  UNL     1     -29.808   1.922  23.707  1.00  0.00     0.047 A 
HETATM   21  C7  UNL     1     -29.442   1.585  22.400  1.00  0.00     0.018 A 
HETATM   22  C8  UNL     1     -30.062   2.147  21.314  1.00  0.00     0.002 A 
HETATM   23  C9  UNL     1     -31.067   3.061  21.507  1.00  0.00     0.013 A 
HETATM   24  C10 UNL     1     -31.428   3.398  22.795  1.00  0.00    -0.010 A 
HETATM   25  C11 UNL     1     -30.800   2.830  23.891  1.00  0.00     0.042 A 
HETATM   26  C18 UNL     1     -32.440   4.364  23.238  1.00  0.00    -0.011 A 
HETATM   27  C12 UNL     1     -31.427   3.459  25.050  1.00  0.00     0.195 A 
HETATM   28  O2  UNL     1     -31.141   3.229  26.254  1.00  0.00    -0.287 OA
HETATM   29  C13 UNL     1     -32.454   4.416  24.595  1.00  0.00     0.026 A 
HETATM   30  C14 UNL     1     -33.291   5.226  25.320  1.00  0.00     0.016 A 
HETATM   31  C15 UNL     1     -34.162   6.028  24.595  1.00  0.00     0.001 A 
HETATM   32  C16 UNL     1     -34.198   6.023  23.211  1.00  0.00     0.001 A 
HETATM   33  C17 UNL     1     -33.328   5.182  22.548  1.00  0.00     0.013 A 
ENDBRANCH   3  20
TORSDOF 6
ENDMDL
