MODEL 3
REMARK VINA RESULT: -7.945070392      1.525      4.163
REMARK  6 active torsions:
REMARK  status: ('A' for Active; 'I' for Inactive)
REMARK    1  A    between atoms: C3_5  and  C4_6 
REMARK    2  A    between atoms: C4_6  and  N2_7 
REMARK       I    between atoms: N2_7  and  C5_9 
REMARK    3  A    between atoms: C5_9  and  C6_11 
REMARK    4  A    between atoms: C19_25  and  O3_26 
REMARK    5  A    between atoms: C20_28  and  O4_29 
REMARK    6  A    between atoms: C21_31  and  O5_32 
ROOT
HETATM    1  N2  UNL     1     -29.336   1.033  27.049  1.00  0.00    -0.351 N 
ATOM      2  H2  UNL     1     -29.817   0.906  27.940  1.00  0.00     0.163 HD
HETATM    3  C5  UNL     1     -30.165   1.211  25.935  1.00  0.00     0.252 C 
HETATM    4  O1  UNL     1     -29.676   1.379  24.797  1.00  0.00    -0.268 OA
ENDROOT
BRANCH   1   5
HETATM    5  C4  UNL     1     -27.912   1.005  27.111  1.00  0.00     0.177 C 
BRANCH   5   6
HETATM    6  C3  UNL     1     -27.184  -0.239  27.391  1.00  0.00     0.032 C 
HETATM    7  N1  UNL     1     -27.725  -1.516  27.372  1.00  0.00    -0.386 N 
HETATM    8  C2  UNL     1     -27.751  -2.209  26.115  1.00  0.00     0.108 C 
ATOM      9  H1  UNL     1     -28.091  -1.947  28.221  1.00  0.00     0.159 HD
HETATM   10  C1  UNL     1     -28.974  -1.965  25.274  1.00  0.00     0.035 C 
HETATM   11  C21 UNL     1     -26.491  -2.023  25.311  1.00  0.00     0.172 C 
HETATM   12  C20 UNL     1     -25.948  -0.635  25.311  1.00  0.00     0.183 C 
HETATM   13  C19 UNL     1     -25.785  -0.188  26.722  1.00  0.00     0.196 C 
BRANCH  11  14
HETATM   14  O5  UNL     1     -26.694  -2.487  24.033  1.00  0.00    -0.391 OA
ATOM     15  H5  UNL     1     -25.861  -2.531  23.577  1.00  0.00     0.210 HD
ENDBRANCH  11  14
BRANCH  12  16
HETATM   16  O4  UNL     1     -26.777   0.166  24.542  1.00  0.00    -0.390 OA
ATOM     17  H4  UNL     1     -26.833  -0.085  23.628  1.00  0.00     0.210 HD
ENDBRANCH  12  16
BRANCH  13  18
HETATM   18  O3  UNL     1     -25.026  -1.130  27.406  1.00  0.00    -0.387 OA
ATOM     19  H3  UNL     1     -24.418  -0.621  27.930  1.00  0.00     0.210 HD
ENDBRANCH  13  18
ENDBRANCH   5   6
ENDBRANCH   1   5
BRANCH   3  20
HETATM   20  C6  UNL     1     -31.628   1.210  26.007  1.00  0.00     0.047 A 
HETATM   21  C7  UNL     1     -32.344   2.184  25.304  1.00  0.00     0.018 A 
HETATM   22  C8  UNL     1     -33.714   2.174  25.261  1.00  0.00     0.002 A 
HETATM   23  C9  UNL     1     -34.405   1.188  25.918  1.00  0.00     0.013 A 
HETATM   24  C10 UNL     1     -33.702   0.226  26.614  1.00  0.00    -0.010 A 
HETATM   25  C11 UNL     1     -32.317   0.239  26.658  1.00  0.00     0.042 A 
HETATM   26  C18 UNL     1     -34.222  -0.891  27.408  1.00  0.00    -0.011 A 
HETATM   27  C12 UNL     1     -31.960  -0.895  27.505  1.00  0.00     0.195 A 
HETATM   28  O2  UNL     1     -30.790  -1.242  27.814  1.00  0.00    -0.287 OA
HETATM   29  C13 UNL     1     -33.187  -1.580  27.955  1.00  0.00     0.026 A 
HETATM   30  C14 UNL     1     -33.342  -2.684  28.755  1.00  0.00     0.016 A 
HETATM   31  C15 UNL     1     -34.644  -3.095  29.002  1.00  0.00     0.001 A 
HETATM   32  C16 UNL     1     -35.743  -2.438  28.476  1.00  0.00     0.001 A 
HETATM   33  C17 UNL     1     -35.512  -1.336  27.679  1.00  0.00     0.013 A 
ENDBRANCH   3  20
TORSDOF 6
ENDMDL
