MODEL 7
REMARK VINA RESULT: -7.718532229      2.116      4.077
REMARK  6 active torsions:
REMARK  status: ('A' for Active; 'I' for Inactive)
REMARK    1  A    between atoms: C3_5  and  C4_6 
REMARK    2  A    between atoms: C4_6  and  N2_7 
REMARK       I    between atoms: N2_7  and  C5_9 
REMARK    3  A    between atoms: C5_9  and  C6_11 
REMARK    4  A    between atoms: C19_25  and  O3_26 
REMARK    5  A    between atoms: C20_28  and  O4_29 
REMARK    6  A    between atoms: C21_31  and  O5_32 
ROOT
HETATM    1  N2  UNL     1     -29.433  -2.170  27.116  1.00  0.00    -0.351 N 
ATOM      2  H2  UNL     1     -30.106  -2.704  26.567  1.00  0.00     0.163 HD
HETATM    3  C5  UNL     1     -29.825  -0.868  27.452  1.00  0.00     0.252 C 
HETATM    4  O1  UNL     1     -29.074  -0.131  28.128  1.00  0.00    -0.268 OA
ENDROOT
BRANCH   1   5
HETATM    5  C4  UNL     1     -28.223  -2.852  27.436  1.00  0.00     0.177 C 
BRANCH   5   6
HETATM    6  C3  UNL     1     -27.206  -3.124  26.413  1.00  0.00     0.032 C 
HETATM    7  N1  UNL     1     -27.310  -2.814  25.065  1.00  0.00    -0.386 N 
HETATM    8  C2  UNL     1     -26.895  -1.505  24.649  1.00  0.00     0.108 C 
ATOM      9  H1  UNL     1     -27.668  -3.493  24.394  1.00  0.00     0.159 HD
HETATM   10  C1  UNL     1     -27.963  -0.446  24.703  1.00  0.00     0.035 C 
HETATM   11  C21 UNL     1     -25.633  -1.040  25.329  1.00  0.00     0.172 C 
HETATM   12  C20 UNL     1     -25.558  -1.347  26.785  1.00  0.00     0.183 C 
HETATM   13  C19 UNL     1     -25.797  -2.804  26.978  1.00  0.00     0.196 C 
BRANCH  11  14
HETATM   14  O5  UNL     1     -25.450   0.300  25.084  1.00  0.00    -0.391 OA
ATOM     15  H5  UNL     1     -26.291   0.708  24.916  1.00  0.00     0.210 HD
ENDBRANCH  11  14
BRANCH  12  16
HETATM   16  O4  UNL     1     -26.444  -0.522  27.459  1.00  0.00    -0.390 OA
ATOM     17  H4  UNL     1     -26.060   0.276  27.801  1.00  0.00     0.210 HD
ENDBRANCH  12  16
BRANCH  13  18
HETATM   18  O3  UNL     1     -24.917  -3.513  26.169  1.00  0.00    -0.387 OA
ATOM     19  H3  UNL     1     -24.405  -2.850  25.721  1.00  0.00     0.210 HD
ENDBRANCH  13  18
ENDBRANCH   5   6
ENDBRANCH   1   5
BRANCH   3  20
HETATM   20  C6  UNL     1     -31.104  -0.279  27.049  1.00  0.00     0.047 A 
HETATM   21  C7  UNL     1     -31.103   0.829  26.196  1.00  0.00     0.018 A 
HETATM   22  C8  UNL     1     -32.270   1.362  25.712  1.00  0.00     0.002 A 
HETATM   23  C9  UNL     1     -33.469   0.800  26.068  1.00  0.00     0.013 A 
HETATM   24  C10 UNL     1     -33.474  -0.292  26.912  1.00  0.00    -0.010 A 
HETATM   25  C11 UNL     1     -32.294  -0.828  27.401  1.00  0.00     0.042 A 
HETATM   26  C18 UNL     1     -34.623  -1.029  27.448  1.00  0.00    -0.011 A 
HETATM   27  C12 UNL     1     -32.713  -1.925  28.269  1.00  0.00     0.195 A 
HETATM   28  O2  UNL     1     -31.945  -2.678  28.923  1.00  0.00    -0.287 OA
HETATM   29  C13 UNL     1     -34.186  -2.018  28.269  1.00  0.00     0.026 A 
HETATM   30  C14 UNL     1     -35.017  -2.887  28.928  1.00  0.00     0.016 A 
HETATM   31  C15 UNL     1     -36.380  -2.720  28.724  1.00  0.00     0.001 A 
HETATM   32  C16 UNL     1     -36.892  -1.732  27.900  1.00  0.00     0.001 A 
HETATM   33  C17 UNL     1     -35.996  -0.894  27.268  1.00  0.00     0.013 A 
ENDBRANCH   3  20
TORSDOF 6
ENDMDL
