MODEL 9
REMARK VINA RESULT: -9.177215241      3.133      5.333
REMARK  6 active torsions:
REMARK  status: ('A' for Active; 'I' for Inactive)
REMARK    1  A    between atoms: N1_1  and  C1_5 
REMARK    2  A    between atoms: C4_8  and  N2_9 
REMARK    3  A    between atoms: N2_9  and  C5_11 
REMARK    4  A    between atoms: C8_16  and  C9_17 
REMARK    5  A    between atoms: C13_21  and  C14_22 
REMARK    6  A    between atoms: C15_23  and  C16_24 
ROOT
HETATM    1  C5  UNL     1     -22.730 -31.120  -4.724  1.00  0.00     0.117 A 
HETATM    2  C6  UNL     1     -22.389 -29.796  -4.894  1.00  0.00     0.136 A 
HETATM    3  N3  UNL     1     -21.763 -29.154  -3.896  1.00  0.00    -0.370 N 
ATOM      4  H3  UNL     1     -21.508 -28.175  -4.016  1.00  0.00     0.164 HD
HETATM    5  C7  UNL     1     -21.461 -29.779  -2.728  1.00  0.00     0.118 A 
HETATM    6  C8  UNL     1     -21.792 -31.103  -2.536  1.00  0.00     0.059 A 
HETATM    7  N4  UNL     1     -22.424 -31.707  -3.575  1.00  0.00    -0.340 N 
ATOM      8  H4  UNL     1     -22.682 -32.688  -3.462  1.00  0.00     0.167 HD
ENDROOT
BRANCH   1   9
HETATM    9  N2  UNL     1     -23.400 -31.867  -5.729  1.00  0.00    -0.371 N 
ATOM     10  H2  UNL     1     -24.419 -31.900  -5.701  1.00  0.00     0.161 HD
BRANCH   9  11
HETATM   11  C4  UNL     1     -22.733 -32.577  -6.780  1.00  0.00     0.083 C 
HETATM   12  C3  UNL     1     -22.608 -34.053  -6.363  1.00  0.00     0.027 C 
HETATM   13  C2  UNL     1     -22.528 -34.925  -7.611  1.00  0.00     0.035 C 
HETATM   14  C1  UNL     1     -21.853 -34.194  -8.753  1.00  0.00     0.183 C 
HETATM   15  C19 UNL     1     -22.617 -32.958  -9.178  1.00  0.00     0.035 C 
HETATM   16  C18 UNL     1     -23.565 -32.619  -8.049  1.00  0.00     0.027 C 
BRANCH  14  17
HETATM   17  N1  UNL     1     -20.496 -33.916  -8.376  1.00  0.00    -0.075 N 
ATOM     18  H13 UNL     1     -20.361 -32.949  -8.082  1.00  0.00     0.274 HD
ATOM     19  H12 UNL     1     -20.232 -34.367  -7.500  1.00  0.00     0.274 HD
ATOM     20  H11 UNL     1     -19.886 -34.179  -9.150  1.00  0.00     0.274 HD
ENDBRANCH  14  17
ENDBRANCH   9  11
ENDBRANCH   1   9
BRANCH   6  21
HETATM   21  C9  UNL     1     -21.499 -31.835  -1.309  1.00  0.00    -0.007 A 
HETATM   22  C10 UNL     1     -20.935 -31.152  -0.255  1.00  0.00     0.014 A 
HETATM   23  C11 UNL     1     -20.636 -31.789   0.928  1.00  0.00     0.002 A 
HETATM   24  C12 UNL     1     -20.904 -33.118   1.053  1.00  0.00     0.011 A 
HETATM   25  C13 UNL     1     -21.463 -33.848   0.046  1.00  0.00    -0.035 A 
HETATM   26  C17 UNL     1     -21.757 -33.174  -1.147  1.00  0.00     0.025 A 
BRANCH  25  27
HETATM   27  C14 UNL     1     -21.771 -35.289   0.141  1.00  0.00     0.018 C 
HETATM   28  C15 UNL     1     -22.365 -35.953  -0.805  1.00  0.00     0.085 C 
BRANCH  28  29
HETATM   29  C16 UNL     1     -22.665 -37.395  -0.691  1.00  0.00     0.198 C 
HETATM   30  O1  UNL     1     -23.032 -37.992  -1.728  1.00  0.00    -0.645 OA
HETATM   31  O2  UNL     1     -22.557 -38.090   0.486  1.00  0.00    -0.645 OA
ENDBRANCH  28  29
ENDBRANCH  25  27
ENDBRANCH   6  21
TORSDOF 6
ENDMDL
