MODEL 2
REMARK VINA RESULT: -9.758089556      1.060      1.304
REMARK  6 active torsions:
REMARK  status: ('A' for Active; 'I' for Inactive)
REMARK    1  A    between atoms: N1_1  and  C1_5 
REMARK    2  A    between atoms: C4_8  and  N2_9 
REMARK    3  A    between atoms: N2_9  and  C5_11 
REMARK    4  A    between atoms: C8_16  and  C9_17 
REMARK    5  A    between atoms: C13_21  and  C14_22 
REMARK    6  A    between atoms: C15_23  and  C16_24 
ROOT
HETATM    1  C5  UNL     1     -21.756 -35.531  -4.608  1.00  0.00     0.117 A 
HETATM    2  C6  UNL     1     -22.216 -36.567  -5.392  1.00  0.00     0.136 A 
HETATM    3  N3  UNL     1     -22.774 -37.631  -4.797  1.00  0.00    -0.370 N 
ATOM      4  H3  UNL     1     -23.117 -38.401  -5.372  1.00  0.00     0.164 HD
HETATM    5  C7  UNL     1     -22.895 -37.710  -3.446  1.00  0.00     0.118 A 
HETATM    6  C8  UNL     1     -22.442 -36.686  -2.642  1.00  0.00     0.059 A 
HETATM    7  N4  UNL     1     -21.885 -35.631  -3.291  1.00  0.00    -0.340 N 
ATOM      8  H4  UNL     1     -21.540 -34.858  -2.723  1.00  0.00     0.167 HD
ENDROOT
BRANCH   1   9
HETATM    9  N2  UNL     1     -21.146 -34.374  -5.160  1.00  0.00    -0.371 N 
ATOM     10  H2  UNL     1     -20.399 -34.506  -5.842  1.00  0.00     0.161 HD
BRANCH   9  11
HETATM   11  C4  UNL     1     -21.515 -33.032  -4.818  1.00  0.00     0.083 C 
HETATM   12  C3  UNL     1     -21.393 -32.872  -3.292  1.00  0.00     0.027 C 
HETATM   13  C2  UNL     1     -21.134 -31.407  -2.958  1.00  0.00     0.035 C 
HETATM   14  C1  UNL     1     -21.788 -30.486  -3.967  1.00  0.00     0.183 C 
HETATM   15  C19 UNL     1     -21.239 -30.680  -5.365  1.00  0.00     0.035 C 
HETATM   16  C18 UNL     1     -20.533 -32.017  -5.376  1.00  0.00     0.027 C 
BRANCH  14  17
HETATM   17  N1  UNL     1     -23.210 -30.663  -3.890  1.00  0.00    -0.075 N 
ATOM     18  H13 UNL     1     -23.502 -31.605  -4.152  1.00  0.00     0.274 HD
ATOM     19  H12 UNL     1     -23.553 -30.674  -2.929  1.00  0.00     0.274 HD
ATOM     20  H11 UNL     1     -23.657 -29.943  -4.457  1.00  0.00     0.274 HD
ENDBRANCH  14  17
ENDBRANCH   9  11
ENDBRANCH   1   9
BRANCH   6  21
HETATM   21  C9  UNL     1     -22.539 -36.703  -1.187  1.00  0.00    -0.007 A 
HETATM   22  C10 UNL     1     -22.746 -37.910  -0.557  1.00  0.00     0.014 A 
HETATM   23  C11 UNL     1     -22.846 -37.989   0.814  1.00  0.00     0.002 A 
HETATM   24  C12 UNL     1     -22.737 -36.852   1.555  1.00  0.00     0.011 A 
HETATM   25  C13 UNL     1     -22.530 -35.630   0.989  1.00  0.00    -0.035 A 
HETATM   26  C17 UNL     1     -22.433 -35.578  -0.408  1.00  0.00     0.025 A 
BRANCH  25  27
HETATM   27  C14 UNL     1     -22.404 -34.373   1.755  1.00  0.00     0.018 C 
HETATM   28  C15 UNL     1     -21.825 -33.309   1.286  1.00  0.00     0.085 C 
BRANCH  28  29
HETATM   29  C16 UNL     1     -21.710 -32.061   2.069  1.00  0.00     0.198 C 
HETATM   30  O1  UNL     1     -21.044 -31.126   1.570  1.00  0.00    -0.645 OA
HETATM   31  O2  UNL     1     -22.293 -31.894   3.299  1.00  0.00    -0.645 OA
ENDBRANCH  28  29
ENDBRANCH  25  27
ENDBRANCH   6  21
TORSDOF 6
ENDMDL
