MODEL 5
REMARK VINA RESULT: -9.437826328      1.004      1.398
REMARK  6 active torsions:
REMARK  status: ('A' for Active; 'I' for Inactive)
REMARK    1  A    between atoms: N1_1  and  C1_5 
REMARK    2  A    between atoms: C4_8  and  N2_9 
REMARK    3  A    between atoms: N2_9  and  C5_11 
REMARK    4  A    between atoms: C8_16  and  C9_17 
REMARK    5  A    between atoms: C13_21  and  C14_22 
REMARK    6  A    between atoms: C15_23  and  C16_24 
ROOT
HETATM    1  C5  UNL     1     -22.931 -35.853  -4.923  1.00  0.00     0.117 A 
HETATM    2  C6  UNL     1     -22.895 -37.114  -5.480  1.00  0.00     0.136 A 
HETATM    3  N3  UNL     1     -22.776 -38.177  -4.670  1.00  0.00    -0.370 N 
ATOM      4  H3  UNL     1     -22.750 -39.111  -5.077  1.00  0.00     0.164 HD
HETATM    5  C7  UNL     1     -22.691 -38.039  -3.321  1.00  0.00     0.118 A 
HETATM    6  C8  UNL     1     -22.724 -36.788  -2.743  1.00  0.00     0.059 A 
HETATM    7  N4  UNL     1     -22.845 -35.745  -3.603  1.00  0.00    -0.340 N 
ATOM      8  H4  UNL     1     -22.872 -34.807  -3.205  1.00  0.00     0.167 HD
ENDROOT
BRANCH   1   9
HETATM    9  N2  UNL     1     -23.046 -34.678  -5.711  1.00  0.00    -0.371 N 
ATOM     10  H2  UNL     1     -23.743 -34.668  -6.455  1.00  0.00     0.161 HD
BRANCH   9  11
HETATM   11  C4  UNL     1     -22.244 -33.505  -5.524  1.00  0.00     0.083 C 
HETATM   12  C3  UNL     1     -22.682 -32.451  -6.557  1.00  0.00     0.027 C 
HETATM   13  C2  UNL     1     -22.369 -31.059  -6.021  1.00  0.00     0.035 C 
HETATM   14  C1  UNL     1     -21.145 -31.073  -5.128  1.00  0.00     0.183 C 
HETATM   15  C19 UNL     1     -21.336 -31.940  -3.902  1.00  0.00     0.035 C 
HETATM   16  C18 UNL     1     -22.514 -32.845  -4.184  1.00  0.00     0.027 C 
BRANCH  14  17
HETATM   17  N1  UNL     1     -20.010 -31.457  -5.919  1.00  0.00    -0.075 N 
ATOM     18  H13 UNL     1     -20.195 -31.404  -6.920  1.00  0.00     0.274 HD
ATOM     19  H12 UNL     1     -19.255 -30.771  -5.880  1.00  0.00     0.274 HD
ATOM     20  H11 UNL     1     -19.710 -32.386  -5.625  1.00  0.00     0.274 HD
ENDBRANCH  14  17
ENDBRANCH   9  11
ENDBRANCH   1   9
BRANCH   6  21
HETATM   21  C9  UNL     1     -22.636 -36.565  -1.304  1.00  0.00    -0.007 A 
HETATM   22  C10 UNL     1     -22.837 -37.636  -0.461  1.00  0.00     0.014 A 
HETATM   23  C11 UNL     1     -22.767 -37.487   0.906  1.00  0.00     0.002 A 
HETATM   24  C12 UNL     1     -22.495 -36.259   1.428  1.00  0.00     0.011 A 
HETATM   25  C13 UNL     1     -22.287 -35.164   0.646  1.00  0.00    -0.035 A 
HETATM   26  C17 UNL     1     -22.364 -35.343  -0.742  1.00  0.00     0.025 A 
BRANCH  25  27
HETATM   27  C14 UNL     1     -21.988 -33.816   1.170  1.00  0.00     0.018 C 
HETATM   28  C15 UNL     1     -21.316 -32.926   0.504  1.00  0.00     0.085 C 
BRANCH  28  29
HETATM   29  C16 UNL     1     -21.027 -31.583   1.048  1.00  0.00     0.198 C 
HETATM   30  O1  UNL     1     -20.591 -30.720   0.253  1.00  0.00    -0.645 OA
HETATM   31  O2  UNL     1     -21.218 -31.253   2.365  1.00  0.00    -0.645 OA
ENDBRANCH  28  29
ENDBRANCH  25  27
ENDBRANCH   6  21
TORSDOF 6
ENDMDL
