MODEL 3
REMARK VINA RESULT: -9.689601338      3.446      5.404
REMARK  6 active torsions:
REMARK  status: ('A' for Active; 'I' for Inactive)
REMARK    1  A    between atoms: N1_1  and  C1_5 
REMARK    2  A    between atoms: C4_8  and  N2_9 
REMARK    3  A    between atoms: N2_9  and  C5_11 
REMARK    4  A    between atoms: C8_16  and  C9_17 
REMARK    5  A    between atoms: C13_21  and  C14_22 
REMARK    6  A    between atoms: C15_23  and  C16_24 
ROOT
HETATM    1  C5  UNL     1     -21.269 -32.470  -0.712  1.00  0.00     0.117 A 
HETATM    2  C6  UNL     1     -21.293 -32.022   0.591  1.00  0.00     0.136 A 
HETATM    3  N3  UNL     1     -21.670 -32.868   1.561  1.00  0.00    -0.370 N 
ATOM      4  H3  UNL     1     -21.689 -32.541   2.527  1.00  0.00     0.164 HD
HETATM    5  C7  UNL     1     -22.027 -34.150   1.288  1.00  0.00     0.118 A 
HETATM    6  C8  UNL     1     -22.011 -34.620  -0.007  1.00  0.00     0.059 A 
HETATM    7  N4  UNL     1     -21.622 -33.726  -0.952  1.00  0.00    -0.340 N 
ATOM      8  H4  UNL     1     -21.600 -34.045  -1.921  1.00  0.00     0.167 HD
ENDROOT
BRANCH   1   9
HETATM    9  N2  UNL     1     -20.889 -31.635  -1.795  1.00  0.00    -0.371 N 
ATOM     10  H2  UNL     1     -20.200 -30.904  -1.618  1.00  0.00     0.161 HD
BRANCH   9  11
HETATM   11  C4  UNL     1     -21.414 -31.756  -3.123  1.00  0.00     0.083 C 
HETATM   12  C3  UNL     1     -21.660 -30.341  -3.676  1.00  0.00     0.027 C 
HETATM   13  C2  UNL     1     -21.581 -30.374  -5.198  1.00  0.00     0.035 C 
HETATM   14  C1  UNL     1     -22.043 -31.709  -5.747  1.00  0.00     0.183 C 
HETATM   15  C19 UNL     1     -21.173 -32.856  -5.277  1.00  0.00     0.035 C 
HETATM   16  C18 UNL     1     -20.398 -32.356  -4.079  1.00  0.00     0.027 C 
BRANCH  14  17
HETATM   17  N1  UNL     1     -23.429 -31.880  -5.419  1.00  0.00    -0.075 N 
ATOM     18  H13 UNL     1     -24.049 -31.427  -6.089  1.00  0.00     0.274 HD
ATOM     19  H12 UNL     1     -23.750 -32.839  -5.559  1.00  0.00     0.274 HD
ATOM     20  H11 UNL     1     -23.578 -31.553  -4.464  1.00  0.00     0.274 HD
ENDBRANCH  14  17
ENDBRANCH   9  11
ENDBRANCH   1   9
BRANCH   6  21
HETATM   21  C9  UNL     1     -22.381 -35.983  -0.373  1.00  0.00    -0.007 A 
HETATM   22  C10 UNL     1     -22.424 -36.939   0.617  1.00  0.00     0.014 A 
HETATM   23  C11 UNL     1     -22.767 -38.242   0.333  1.00  0.00     0.002 A 
HETATM   24  C12 UNL     1     -23.068 -38.585  -0.950  1.00  0.00     0.011 A 
HETATM   25  C13 UNL     1     -23.044 -37.684  -1.972  1.00  0.00    -0.035 A 
HETATM   26  C17 UNL     1     -22.691 -36.365  -1.654  1.00  0.00     0.025 A 
BRANCH  25  27
HETATM   27  C14 UNL     1     -23.363 -38.014  -3.375  1.00  0.00     0.018 C 
HETATM   28  C15 UNL     1     -23.346 -37.136  -4.334  1.00  0.00     0.085 C 
BRANCH  28  29
HETATM   29  C16 UNL     1     -23.670 -37.487  -5.732  1.00  0.00     0.198 C 
HETATM   30  O1  UNL     1     -22.918 -37.042  -6.628  1.00  0.00    -0.645 OA
HETATM   31  O2  UNL     1     -24.743 -38.268  -6.077  1.00  0.00    -0.645 OA
ENDBRANCH  28  29
ENDBRANCH  25  27
ENDBRANCH   6  21
TORSDOF 6
ENDMDL
