MODEL 11
REMARK VINA RESULT: -9.061450857      2.806      5.025
REMARK  6 active torsions:
REMARK  status: ('A' for Active; 'I' for Inactive)
REMARK    1  A    between atoms: N1_1  and  C1_5 
REMARK    2  A    between atoms: C4_8  and  N2_9 
REMARK    3  A    between atoms: N2_9  and  C5_11 
REMARK    4  A    between atoms: C8_16  and  C9_17 
REMARK    5  A    between atoms: C13_21  and  C14_22 
REMARK    6  A    between atoms: C15_23  and  C16_24 
ROOT
HETATM    1  C5  UNL     1     -22.664 -37.488  -0.520  1.00  0.00     0.117 A 
HETATM    2  C6  UNL     1     -22.987 -38.020   0.710  1.00  0.00     0.136 A 
HETATM    3  N3  UNL     1     -22.887 -37.244   1.799  1.00  0.00    -0.370 N 
ATOM      4  H3  UNL     1     -23.125 -37.633   2.711  1.00  0.00     0.164 HD
HETATM    5  C7  UNL     1     -22.475 -35.952   1.717  1.00  0.00     0.118 A 
HETATM    6  C8  UNL     1     -22.146 -35.398   0.498  1.00  0.00     0.059 A 
HETATM    7  N4  UNL     1     -22.265 -36.224  -0.573  1.00  0.00    -0.340 N 
ATOM      8  H4  UNL     1     -22.028 -35.843  -1.490  1.00  0.00     0.167 HD
ENDROOT
BRANCH   1   9
HETATM    9  N2  UNL     1     -22.737 -38.245  -1.718  1.00  0.00    -0.371 N 
ATOM     10  H2  UNL     1     -22.858 -39.255  -1.639  1.00  0.00     0.161 HD
BRANCH   9  11
HETATM   11  C4  UNL     1     -22.649 -37.679  -3.031  1.00  0.00     0.083 C 
HETATM   12  C3  UNL     1     -23.677 -38.387  -3.932  1.00  0.00     0.027 C 
HETATM   13  C2  UNL     1     -24.082 -37.453  -5.066  1.00  0.00     0.035 C 
HETATM   14  C1  UNL     1     -22.945 -36.529  -5.455  1.00  0.00     0.183 C 
HETATM   15  C19 UNL     1     -22.527 -35.621  -4.318  1.00  0.00     0.035 C 
HETATM   16  C18 UNL     1     -23.083 -36.224  -3.048  1.00  0.00     0.027 C 
BRANCH  14  17
HETATM   17  N1  UNL     1     -21.867 -37.327  -5.966  1.00  0.00    -0.075 N 
ATOM     18  H13 UNL     1     -22.140 -38.295  -6.130  1.00  0.00     0.274 HD
ATOM     19  H12 UNL     1     -21.622 -37.086  -6.926  1.00  0.00     0.274 HD
ATOM     20  H11 UNL     1     -21.075 -37.246  -5.328  1.00  0.00     0.274 HD
ENDBRANCH  14  17
ENDBRANCH   9  11
ENDBRANCH   1   9
BRANCH   6  21
HETATM   21  C9  UNL     1     -21.697 -34.020   0.336  1.00  0.00    -0.007 A 
HETATM   22  C10 UNL     1     -21.317 -33.318   1.457  1.00  0.00     0.014 A 
HETATM   23  C11 UNL     1     -20.884 -32.013   1.367  1.00  0.00     0.002 A 
HETATM   24  C12 UNL     1     -20.833 -31.414   0.146  1.00  0.00     0.011 A 
HETATM   25  C13 UNL     1     -21.196 -32.057  -0.999  1.00  0.00    -0.035 A 
HETATM   26  C17 UNL     1     -21.633 -33.383  -0.878  1.00  0.00     0.025 A 
BRANCH  25  27
HETATM   27  C14 UNL     1     -21.155 -31.444  -2.342  1.00  0.00     0.018 C 
HETATM   28  C15 UNL     1     -21.747 -30.323  -2.631  1.00  0.00     0.085 C 
BRANCH  28  29
HETATM   29  C16 UNL     1     -21.695 -29.727  -3.981  1.00  0.00     0.198 C 
HETATM   30  O1  UNL     1     -21.597 -30.509  -4.954  1.00  0.00    -0.645 OA
HETATM   31  O2  UNL     1     -21.749 -28.375  -4.205  1.00  0.00    -0.645 OA
ENDBRANCH  28  29
ENDBRANCH  25  27
ENDBRANCH   6  21
TORSDOF 6
ENDMDL
