MODEL 6
REMARK VINA RESULT: -9.382157145      1.401      2.121
REMARK  6 active torsions:
REMARK  status: ('A' for Active; 'I' for Inactive)
REMARK    1  A    between atoms: N1_1  and  C1_5 
REMARK    2  A    between atoms: C4_8  and  N2_9 
REMARK    3  A    between atoms: N2_9  and  C5_11 
REMARK    4  A    between atoms: C8_16  and  C9_17 
REMARK    5  A    between atoms: C13_21  and  C14_22 
REMARK    6  A    between atoms: C15_23  and  C16_24 
ROOT
HETATM    1  C5  UNL     1     -22.822 -34.351  -6.089  1.00  0.00     0.117 A 
HETATM    2  C6  UNL     1     -22.560 -35.417  -6.923  1.00  0.00     0.136 A 
HETATM    3  N3  UNL     1     -22.227 -36.598  -6.381  1.00  0.00    -0.370 N 
ATOM      4  H3  UNL     1     -22.033 -37.390  -6.994  1.00  0.00     0.164 HD
HETATM    5  C7  UNL     1     -22.143 -36.765  -5.035  1.00  0.00     0.118 A 
HETATM    6  C8  UNL     1     -22.400 -35.714  -4.182  1.00  0.00     0.059 A 
HETATM    7  N4  UNL     1     -22.733 -34.540  -4.779  1.00  0.00    -0.340 N 
ATOM      8  H4  UNL     1     -22.929 -33.743  -4.173  1.00  0.00     0.167 HD
ENDROOT
BRANCH   1   9
HETATM    9  N2  UNL     1     -23.172 -33.068  -6.584  1.00  0.00    -0.371 N 
ATOM     10  H2  UNL     1     -23.804 -33.020  -7.383  1.00  0.00     0.161 HD
BRANCH   9  11
HETATM   11  C4  UNL     1     -22.693 -31.836  -6.030  1.00  0.00     0.083 C 
HETATM   12  C3  UNL     1     -22.850 -31.902  -4.500  1.00  0.00     0.027 C 
HETATM   13  C2  UNL     1     -21.821 -30.985  -3.848  1.00  0.00     0.035 C 
HETATM   14  C1  UNL     1     -21.509 -29.791  -4.728  1.00  0.00     0.183 C 
HETATM   15  C19 UNL     1     -20.901 -30.195  -6.053  1.00  0.00     0.035 C 
HETATM   16  C18 UNL     1     -21.200 -31.665  -6.243  1.00  0.00     0.027 C 
BRANCH  14  17
HETATM   17  N1  UNL     1     -22.704 -29.007  -4.871  1.00  0.00    -0.075 N 
ATOM     18  H13 UNL     1     -23.458 -29.331  -4.266  1.00  0.00     0.274 HD
ATOM     19  H12 UNL     1     -22.606 -28.069  -4.483  1.00  0.00     0.274 HD
ATOM     20  H11 UNL     1     -22.968 -28.998  -5.856  1.00  0.00     0.274 HD
ENDBRANCH  14  17
ENDBRANCH   9  11
ENDBRANCH   1   9
BRANCH   6  21
HETATM   21  C9  UNL     1     -22.329 -35.821  -2.729  1.00  0.00    -0.007 A 
HETATM   22  C10 UNL     1     -22.635 -37.030  -2.145  1.00  0.00     0.014 A 
HETATM   23  C11 UNL     1     -22.585 -37.192  -0.778  1.00  0.00     0.002 A 
HETATM   24  C12 UNL     1     -22.227 -36.136   0.003  1.00  0.00     0.011 A 
HETATM   25  C13 UNL     1     -21.912 -34.917  -0.517  1.00  0.00    -0.035 A 
HETATM   26  C17 UNL     1     -21.971 -34.780  -1.910  1.00  0.00     0.025 A 
BRANCH  25  27
HETATM   27  C14 UNL     1     -21.518 -33.748   0.294  1.00  0.00     0.018 C 
HETATM   28  C15 UNL     1     -21.377 -32.554  -0.199  1.00  0.00     0.085 C 
BRANCH  28  29
HETATM   29  C16 UNL     1     -20.981 -31.397   0.630  1.00  0.00     0.198 C 
HETATM   30  O1  UNL     1     -20.335 -30.481   0.072  1.00  0.00    -0.645 OA
HETATM   31  O2  UNL     1     -21.288 -31.292   1.962  1.00  0.00    -0.645 OA
ENDBRANCH  28  29
ENDBRANCH  25  27
ENDBRANCH   6  21
TORSDOF 6
ENDMDL
