MODEL 1
REMARK VINA RESULT: -9.788173363      0.000      0.000
REMARK  6 active torsions:
REMARK  status: ('A' for Active; 'I' for Inactive)
REMARK    1  A    between atoms: N1_1  and  C1_5 
REMARK    2  A    between atoms: C4_8  and  N2_9 
REMARK    3  A    between atoms: N2_9  and  C5_11 
REMARK    4  A    between atoms: C8_16  and  C9_17 
REMARK    5  A    between atoms: C13_21  and  C14_22 
REMARK    6  A    between atoms: C15_23  and  C16_24 
ROOT
HETATM    1  C5  UNL     1     -22.129 -36.361  -4.601  1.00  0.00     0.117 A 
HETATM    2  C6  UNL     1     -22.631 -37.550  -5.083  1.00  0.00     0.136 A 
HETATM    3  N3  UNL     1     -23.119 -38.447  -4.214  1.00  0.00    -0.370 N 
ATOM      4  H3  UNL     1     -23.493 -39.329  -4.565  1.00  0.00     0.164 HD
HETATM    5  C7  UNL     1     -23.129 -38.210  -2.876  1.00  0.00     0.118 A 
HETATM    6  C8  UNL     1     -22.632 -37.028  -2.371  1.00  0.00     0.059 A 
HETATM    7  N4  UNL     1     -22.150 -36.153  -3.291  1.00  0.00    -0.340 N 
ATOM      8  H4  UNL     1     -21.774 -35.269  -2.948  1.00  0.00     0.167 HD
ENDROOT
BRANCH   1   9
HETATM    9  N2  UNL     1     -21.587 -35.364  -5.454  1.00  0.00    -0.371 N 
ATOM     10  H2  UNL     1     -20.868 -35.643  -6.120  1.00  0.00     0.161 HD
BRANCH   9  11
HETATM   11  C4  UNL     1     -21.990 -33.989  -5.437  1.00  0.00     0.083 C 
HETATM   12  C3  UNL     1     -20.864 -33.164  -4.787  1.00  0.00     0.027 C 
HETATM   13  C2  UNL     1     -20.923 -31.732  -5.308  1.00  0.00     0.035 C 
HETATM   14  C1  UNL     1     -22.344 -31.320  -5.633  1.00  0.00     0.183 C 
HETATM   15  C19 UNL     1     -22.953 -32.169  -6.729  1.00  0.00     0.035 C 
HETATM   16  C18 UNL     1     -22.106 -33.417  -6.839  1.00  0.00     0.027 C 
BRANCH  14  17
HETATM   17  N1  UNL     1     -23.110 -31.332  -4.419  1.00  0.00    -0.075 N 
ATOM     18  H13 UNL     1     -24.082 -31.601  -4.571  1.00  0.00     0.274 HD
ATOM     19  H12 UNL     1     -22.849 -32.099  -3.798  1.00  0.00     0.274 HD
ATOM     20  H11 UNL     1     -23.022 -30.420  -3.972  1.00  0.00     0.274 HD
ENDBRANCH  14  17
ENDBRANCH   9  11
ENDBRANCH   1   9
BRANCH   6  21
HETATM   21  C9  UNL     1     -22.611 -36.707  -0.949  1.00  0.00    -0.007 A 
HETATM   22  C10 UNL     1     -22.871 -37.713  -0.045  1.00  0.00     0.014 A 
HETATM   23  C11 UNL     1     -22.865 -37.470   1.311  1.00  0.00     0.002 A 
HETATM   24  C12 UNL     1     -22.596 -36.213   1.759  1.00  0.00     0.011 A 
HETATM   25  C13 UNL     1     -22.331 -35.178   0.914  1.00  0.00    -0.035 A 
HETATM   26  C17 UNL     1     -22.344 -35.452  -0.460  1.00  0.00     0.025 A 
BRANCH  25  27
HETATM   27  C14 UNL     1     -22.034 -33.801   1.359  1.00  0.00     0.018 C 
HETATM   28  C15 UNL     1     -21.283 -32.982   0.686  1.00  0.00     0.085 C 
BRANCH  28  29
HETATM   29  C16 UNL     1     -20.998 -31.609   1.149  1.00  0.00     0.198 C 
HETATM   30  O1  UNL     1     -20.546 -30.798   0.308  1.00  0.00    -0.645 OA
HETATM   31  O2  UNL     1     -21.207 -31.196   2.440  1.00  0.00    -0.645 OA
ENDBRANCH  28  29
ENDBRANCH  25  27
ENDBRANCH   6  21
TORSDOF 6
ENDMDL
