MODEL 8
REMARK VINA RESULT: -9.238829934      1.424      2.159
REMARK  6 active torsions:
REMARK  status: ('A' for Active; 'I' for Inactive)
REMARK    1  A    between atoms: N1_1  and  C1_5 
REMARK    2  A    between atoms: C4_8  and  N2_9 
REMARK    3  A    between atoms: N2_9  and  C5_11 
REMARK    4  A    between atoms: C8_16  and  C9_17 
REMARK    5  A    between atoms: C13_21  and  C14_22 
REMARK    6  A    between atoms: C15_23  and  C16_24 
ROOT
HETATM    1  C5  UNL     1     -22.741 -34.255  -4.523  1.00  0.00     0.117 A 
HETATM    2  C6  UNL     1     -22.366 -35.197  -5.457  1.00  0.00     0.136 A 
HETATM    3  N3  UNL     1     -22.031 -36.427  -5.038  1.00  0.00    -0.370 N 
ATOM      4  H3  UNL     1     -21.753 -37.127  -5.725  1.00  0.00     0.164 HD
HETATM    5  C7  UNL     1     -22.052 -36.761  -3.722  1.00  0.00     0.118 A 
HETATM    6  C8  UNL     1     -22.423 -35.835  -2.770  1.00  0.00     0.059 A 
HETATM    7  N4  UNL     1     -22.754 -34.606  -3.244  1.00  0.00    -0.340 N 
ATOM      8  H4  UNL     1     -23.032 -33.899  -2.563  1.00  0.00     0.167 HD
ENDROOT
BRANCH   1   9
HETATM    9  N2  UNL     1     -23.103 -32.930  -4.883  1.00  0.00    -0.371 N 
ATOM     10  H2  UNL     1     -24.033 -32.602  -4.626  1.00  0.00     0.161 HD
BRANCH   9  11
HETATM   11  C4  UNL     1     -22.241 -32.027  -5.587  1.00  0.00     0.083 C 
HETATM   12  C3  UNL     1     -22.707 -30.589  -5.296  1.00  0.00     0.027 C 
HETATM   13  C2  UNL     1     -21.526 -29.637  -5.447  1.00  0.00     0.035 C 
HETATM   14  C1  UNL     1     -20.547 -30.132  -6.492  1.00  0.00     0.183 C 
HETATM   15  C19 UNL     1     -19.937 -31.468  -6.122  1.00  0.00     0.035 C 
HETATM   16  C18 UNL     1     -20.820 -32.072  -5.054  1.00  0.00     0.027 C 
BRANCH  14  17
HETATM   17  N1  UNL     1     -21.209 -30.146  -7.765  1.00  0.00    -0.075 N 
ATOM     18  H13 UNL     1     -21.110 -29.265  -8.268  1.00  0.00     0.274 HD
ATOM     19  H12 UNL     1     -20.740 -30.748  -8.444  1.00  0.00     0.274 HD
ATOM     20  H11 UNL     1     -22.184 -30.407  -7.619  1.00  0.00     0.274 HD
ENDBRANCH  14  17
ENDBRANCH   9  11
ENDBRANCH   1   9
BRANCH   6  21
HETATM   21  C9  UNL     1     -22.468 -36.124  -1.341  1.00  0.00    -0.007 A 
HETATM   22  C10 UNL     1     -22.616 -37.434  -0.941  1.00  0.00     0.014 A 
HETATM   23  C11 UNL     1     -22.665 -37.769   0.393  1.00  0.00     0.002 A 
HETATM   24  C12 UNL     1     -22.566 -36.784   1.329  1.00  0.00     0.011 A 
HETATM   25  C13 UNL     1     -22.417 -35.472   0.995  1.00  0.00    -0.035 A 
HETATM   26  C17 UNL     1     -22.370 -35.160  -0.371  1.00  0.00     0.025 A 
BRANCH  25  27
HETATM   27  C14 UNL     1     -22.304 -34.375   1.977  1.00  0.00     0.018 C 
HETATM   28  C15 UNL     1     -21.993 -33.157   1.650  1.00  0.00     0.085 C 
BRANCH  28  29
HETATM   29  C16 UNL     1     -21.885 -32.073   2.649  1.00  0.00     0.198 C 
HETATM   30  O1  UNL     1     -22.656 -32.117   3.634  1.00  0.00    -0.645 OA
HETATM   31  O2  UNL     1     -20.987 -31.043   2.540  1.00  0.00    -0.645 OA
ENDBRANCH  28  29
ENDBRANCH  25  27
ENDBRANCH   6  21
TORSDOF 6
ENDMDL
