MODEL 1
REMARK VINA RESULT: -9.294749027      0.000      0.000
REMARK  4 active torsions:
REMARK  status: ('A' for Active; 'I' for Inactive)
REMARK    1  A    between atoms: N2_6  and  C5_7 
REMARK    2  A    between atoms: C8_12  and  C9_13 
REMARK    3  A    between atoms: C13_17  and  C14_18 
REMARK    4  A    between atoms: C15_19  and  C16_20 
ROOT
HETATM    1  C5  UNL     1     -21.809 -35.013  -4.681  1.00  0.00     0.119 A 
HETATM    2  C6  UNL     1     -22.124 -36.076  -5.499  1.00  0.00     0.136 A 
HETATM    3  N3  UNL     1     -22.562 -37.235  -4.976  1.00  0.00    -0.370 N 
ATOM      4  H3  UNL     1     -22.787 -38.003  -5.609  1.00  0.00     0.164 HD
HETATM    5  C7  UNL     1     -22.717 -37.428  -3.635  1.00  0.00     0.118 A 
HETATM    6  C8  UNL     1     -22.403 -36.369  -2.819  1.00  0.00     0.059 A 
HETATM    7  N4  UNL     1     -21.963 -35.209  -3.360  1.00  0.00    -0.340 N 
ATOM      8  H4  UNL     1     -21.736 -34.439  -2.730  1.00  0.00     0.167 HD
ENDROOT
BRANCH   6   9
HETATM    9  C9  UNL     1     -22.548 -36.515  -1.377  1.00  0.00    -0.007 A 
HETATM   10  C10 UNL     1     -22.803 -37.814  -0.924  1.00  0.00     0.014 A 
HETATM   11  C11 UNL     1     -22.951 -38.027   0.408  1.00  0.00     0.002 A 
HETATM   12  C12 UNL     1     -22.850 -36.976   1.296  1.00  0.00     0.011 A 
HETATM   13  C13 UNL     1     -22.602 -35.692   0.892  1.00  0.00    -0.035 A 
HETATM   14  C17 UNL     1     -22.454 -35.498  -0.483  1.00  0.00     0.025 A 
BRANCH  13  15
HETATM   15  C14 UNL     1     -22.488 -34.554   1.783  1.00  0.00     0.018 C 
HETATM   16  C15 UNL     1     -22.077 -33.356   1.445  1.00  0.00     0.085 C 
BRANCH  16  17
HETATM   17  C16 UNL     1     -21.982 -32.246   2.377  1.00  0.00     0.198 C 
HETATM   18  O1  UNL     1     -21.225 -31.284   2.120  1.00  0.00    -0.645 OA
HETATM   19  O2  UNL     1     -22.707 -32.219   3.553  1.00  0.00    -0.645 OA
ENDBRANCH  16  17
ENDBRANCH  13  15
ENDBRANCH   6   9
BRANCH   1  20
HETATM   20  N2  UNL     1     -21.341 -33.760  -5.183  1.00  0.00    -0.364 N 
HETATM   21  C4  UNL     1     -21.154 -33.736  -6.640  1.00  0.00     0.126 C 
HETATM   22  C3  UNL     1     -22.234 -32.860  -7.247  1.00  0.00     0.050 C 
HETATM   23  C2  UNL     1     -23.302 -32.520  -6.234  1.00  0.00     0.273 C 
HETATM   24  N1  UNL     1     -22.945 -31.457  -5.349  1.00  0.00     0.085 N 
HETATM   25  C1  UNL     1     -22.114 -30.443  -5.944  1.00  0.00     0.309 C 
HETATM   26  C19 UNL     1     -22.392 -31.925  -4.081  1.00  0.00     0.291 C 
HETATM   27  C18 UNL     1     -21.098 -32.675  -4.291  1.00  0.00     0.154 C 
ENDBRANCH   1  20
TORSDOF 4
ENDMDL
