MODEL 8
REMARK VINA RESULT: -8.682742954      1.076      1.136
REMARK  4 active torsions:
REMARK  status: ('A' for Active; 'I' for Inactive)
REMARK    1  A    between atoms: N2_6  and  C5_7 
REMARK    2  A    between atoms: C8_12  and  C9_13 
REMARK    3  A    between atoms: C13_17  and  C14_18 
REMARK    4  A    between atoms: C15_19  and  C16_20 
ROOT
HETATM    1  C5  UNL     1     -21.887 -35.066  -5.777  1.00  0.00     0.119 A 
HETATM    2  C6  UNL     1     -22.463 -36.077  -6.516  1.00  0.00     0.136 A 
HETATM    3  N3  UNL     1     -23.020 -37.138  -5.905  1.00  0.00    -0.370 N 
ATOM      4  H3  UNL     1     -23.438 -37.869  -6.480  1.00  0.00     0.164 HD
HETATM    5  C7  UNL     1     -23.049 -37.279  -4.549  1.00  0.00     0.118 A 
HETATM    6  C8  UNL     1     -22.475 -36.272  -3.812  1.00  0.00     0.059 A 
HETATM    7  N4  UNL     1     -21.918 -35.210  -4.441  1.00  0.00    -0.340 N 
ATOM      8  H4  UNL     1     -21.498 -34.477  -3.869  1.00  0.00     0.167 HD
ENDROOT
BRANCH   6   9
HETATM    9  C9  UNL     1     -22.475 -36.366  -2.359  1.00  0.00    -0.007 A 
HETATM   10  C10 UNL     1     -22.746 -37.635  -1.835  1.00  0.00     0.014 A 
HETATM   11  C11 UNL     1     -22.764 -37.799  -0.488  1.00  0.00     0.002 A 
HETATM   12  C12 UNL     1     -22.516 -36.727   0.347  1.00  0.00     0.011 A 
HETATM   13  C13 UNL     1     -22.247 -35.472  -0.127  1.00  0.00    -0.035 A 
HETATM   14  C17 UNL     1     -22.235 -35.328  -1.516  1.00  0.00     0.025 A 
BRANCH  13  15
HETATM   15  C14 UNL     1     -21.983 -34.316   0.706  1.00  0.00     0.018 C 
HETATM   16  C15 UNL     1     -21.741 -33.102   0.274  1.00  0.00     0.085 C 
BRANCH  16  17
HETATM   17  C16 UNL     1     -21.483 -31.973   1.151  1.00  0.00     0.198 C 
HETATM   18  O1  UNL     1     -20.736 -31.047   0.766  1.00  0.00    -0.645 OA
HETATM   19  O2  UNL     1     -22.040 -31.889   2.413  1.00  0.00    -0.645 OA
ENDBRANCH  16  17
ENDBRANCH  13  15
ENDBRANCH   6   9
BRANCH   1  20
HETATM   20  N2  UNL     1     -21.283 -33.918  -6.373  1.00  0.00    -0.364 N 
HETATM   21  C4  UNL     1     -21.378 -33.889  -7.840  1.00  0.00     0.126 C 
HETATM   22  C3  UNL     1     -22.358 -32.800  -8.235  1.00  0.00     0.050 C 
HETATM   23  C2  UNL     1     -23.122 -32.283  -7.038  1.00  0.00     0.273 C 
HETATM   24  N1  UNL     1     -22.397 -31.338  -6.250  1.00  0.00     0.085 N 
HETATM   25  C1  UNL     1     -21.509 -30.492  -7.006  1.00  0.00     0.309 C 
HETATM   26  C19 UNL     1     -21.715 -31.942  -5.109  1.00  0.00     0.291 C 
HETATM   27  C18 UNL     1     -20.662 -32.928  -5.557  1.00  0.00     0.154 C 
ENDBRANCH   1  20
TORSDOF 4
ENDMDL
