MODEL 2
REMARK VINA RESULT: -9.262009756      0.985      1.686
REMARK  4 active torsions:
REMARK  status: ('A' for Active; 'I' for Inactive)
REMARK    1  A    between atoms: N2_6  and  C5_7 
REMARK    2  A    between atoms: C8_12  and  C9_13 
REMARK    3  A    between atoms: C13_17  and  C14_18 
REMARK    4  A    between atoms: C15_19  and  C16_20 
ROOT
HETATM    1  C5  UNL     1     -22.838 -35.478  -4.845  1.00  0.00     0.119 A 
HETATM    2  C6  UNL     1     -22.827 -36.662  -5.549  1.00  0.00     0.136 A 
HETATM    3  N3  UNL     1     -22.810 -37.841  -4.903  1.00  0.00    -0.370 N 
ATOM      4  H3  UNL     1     -22.803 -38.700  -5.454  1.00  0.00     0.164 HD
HETATM    5  C7  UNL     1     -22.802 -37.939  -3.543  1.00  0.00     0.118 A 
HETATM    6  C8  UNL     1     -22.811 -36.759  -2.840  1.00  0.00     0.059 A 
HETATM    7  N4  UNL     1     -22.828 -35.579  -3.505  1.00  0.00    -0.340 N 
ATOM      8  H4  UNL     1     -22.835 -34.718  -2.957  1.00  0.00     0.167 HD
ENDROOT
BRANCH   6   9
HETATM    9  C9  UNL     1     -22.803 -36.798  -1.385  1.00  0.00    -0.007 A 
HETATM   10  C10 UNL     1     -22.941 -38.068  -0.814  1.00  0.00     0.014 A 
HETATM   11  C11 UNL     1     -22.942 -38.183   0.538  1.00  0.00     0.002 A 
HETATM   12  C12 UNL     1     -22.809 -37.062   1.332  1.00  0.00     0.011 A 
HETATM   13  C13 UNL     1     -22.672 -35.803   0.812  1.00  0.00    -0.035 A 
HETATM   14  C17 UNL     1     -22.674 -35.711  -0.581  1.00  0.00     0.025 A 
BRANCH  13  15
HETATM   15  C14 UNL     1     -22.530 -34.596   1.601  1.00  0.00     0.018 C 
HETATM   16  C15 UNL     1     -21.937 -33.494   1.212  1.00  0.00     0.085 C 
BRANCH  16  17
HETATM   17  C16 UNL     1     -21.822 -32.307   2.041  1.00  0.00     0.198 C 
HETATM   18  O1  UNL     1     -21.061 -31.378   1.691  1.00  0.00    -0.645 OA
HETATM   19  O2  UNL     1     -22.533 -32.169   3.218  1.00  0.00    -0.645 OA
ENDBRANCH  16  17
ENDBRANCH  13  15
ENDBRANCH   6   9
BRANCH   1  20
HETATM   20  N2  UNL     1     -22.856 -34.199  -5.479  1.00  0.00    -0.364 N 
HETATM   21  C4  UNL     1     -23.226 -33.095  -4.582  1.00  0.00     0.126 C 
HETATM   22  C3  UNL     1     -21.991 -32.251  -4.327  1.00  0.00     0.050 C 
HETATM   23  C2  UNL     1     -20.741 -32.935  -4.829  1.00  0.00     0.273 C 
HETATM   24  N1  UNL     1     -20.533 -32.806  -6.236  1.00  0.00     0.085 N 
HETATM   25  C1  UNL     1     -20.989 -31.558  -6.791  1.00  0.00     0.309 C 
HETATM   26  C19 UNL     1     -21.036 -33.944  -7.000  1.00  0.00     0.291 C 
HETATM   27  C18 UNL     1     -22.535 -34.078  -6.863  1.00  0.00     0.154 C 
ENDBRANCH   1  20
TORSDOF 4
ENDMDL
