MODEL 6
REMARK VINA RESULT: -8.900190682      3.845      5.437
REMARK  4 active torsions:
REMARK  status: ('A' for Active; 'I' for Inactive)
REMARK    1  A    between atoms: N2_6  and  C5_7 
REMARK    2  A    between atoms: C8_12  and  C9_13 
REMARK    3  A    between atoms: C13_17  and  C14_18 
REMARK    4  A    between atoms: C15_19  and  C16_20 
ROOT
HETATM    1  C5  UNL     1     -21.361 -33.019  -1.404  1.00  0.00     0.119 A 
HETATM    2  C6  UNL     1     -21.265 -32.597  -0.096  1.00  0.00     0.136 A 
HETATM    3  N3  UNL     1     -21.567 -33.430   0.915  1.00  0.00    -0.370 N 
ATOM      4  H3  UNL     1     -21.485 -33.087   1.873  1.00  0.00     0.164 HD
HETATM    5  C7  UNL     1     -21.978 -34.715   0.716  1.00  0.00     0.118 A 
HETATM    6  C8  UNL     1     -22.075 -35.136  -0.587  1.00  0.00     0.059 A 
HETATM    7  N4  UNL     1     -21.768 -34.286  -1.595  1.00  0.00    -0.340 N 
ATOM      8  H4  UNL     1     -21.849 -34.625  -2.553  1.00  0.00     0.167 HD
ENDROOT
BRANCH   6   9
HETATM    9  C9  UNL     1     -22.510 -36.498  -0.864  1.00  0.00    -0.007 A 
HETATM   10  C10 UNL     1     -22.532 -37.360   0.238  1.00  0.00     0.014 A 
HETATM   11  C11 UNL     1     -22.925 -38.647   0.057  1.00  0.00     0.002 A 
HETATM   12  C12 UNL     1     -23.298 -39.090  -1.196  1.00  0.00     0.011 A 
HETATM   13  C13 UNL     1     -23.290 -38.277  -2.297  1.00  0.00    -0.035 A 
HETATM   14  C17 UNL     1     -22.881 -36.960  -2.085  1.00  0.00     0.025 A 
BRANCH  13  15
HETATM   15  C14 UNL     1     -23.670 -38.695  -3.632  1.00  0.00     0.018 C 
HETATM   16  C15 UNL     1     -24.463 -38.036  -4.442  1.00  0.00     0.085 C 
BRANCH  16  17
HETATM   17  C16 UNL     1     -24.814 -38.496  -5.774  1.00  0.00     0.198 C 
HETATM   18  O1  UNL     1     -24.787 -39.719  -6.035  1.00  0.00    -0.645 OA
HETATM   19  O2  UNL     1     -25.179 -37.617  -6.775  1.00  0.00    -0.645 OA
ENDBRANCH  16  17
ENDBRANCH  13  15
ENDBRANCH   6   9
BRANCH   1  20
HETATM   20  N2  UNL     1     -21.052 -32.177  -2.515  1.00  0.00    -0.364 N 
HETATM   21  C4  UNL     1     -20.457 -32.890  -3.654  1.00  0.00     0.126 C 
HETATM   22  C3  UNL     1     -21.476 -32.934  -4.777  1.00  0.00     0.050 C 
HETATM   23  C2  UNL     1     -22.841 -32.495  -4.301  1.00  0.00     0.273 C 
HETATM   24  N1  UNL     1     -23.000 -31.078  -4.220  1.00  0.00     0.085 N 
HETATM   25  C1  UNL     1     -22.274 -30.342  -5.221  1.00  0.00     0.309 C 
HETATM   26  C19 UNL     1     -22.754 -30.547  -2.883  1.00  0.00     0.291 C 
HETATM   27  C18 UNL     1     -21.324 -30.779  -2.455  1.00  0.00     0.154 C 
ENDBRANCH   1  20
TORSDOF 4
ENDMDL
