MODEL 10
REMARK VINA RESULT: -8.639521464      2.719      4.787
REMARK  4 active torsions:
REMARK  status: ('A' for Active; 'I' for Inactive)
REMARK    1  A    between atoms: N2_6  and  C5_7 
REMARK    2  A    between atoms: C8_12  and  C9_13 
REMARK    3  A    between atoms: C13_17  and  C14_18 
REMARK    4  A    between atoms: C15_19  and  C16_20 
ROOT
HETATM    1  C5  UNL     1     -22.434 -31.560  -4.715  1.00  0.00     0.119 A 
HETATM    2  C6  UNL     1     -22.479 -30.183  -4.704  1.00  0.00     0.136 A 
HETATM    3  N3  UNL     1     -22.239 -29.500  -3.571  1.00  0.00    -0.370 N 
ATOM      4  H3  UNL     1     -22.280 -28.481  -3.597  1.00  0.00     0.164 HD
HETATM    5  C7  UNL     1     -21.942 -30.111  -2.389  1.00  0.00     0.118 A 
HETATM    6  C8  UNL     1     -21.898 -31.483  -2.398  1.00  0.00     0.059 A 
HETATM    7  N4  UNL     1     -22.142 -32.157  -3.546  1.00  0.00    -0.340 N 
ATOM      8  H4  UNL     1     -22.103 -33.177  -3.524  1.00  0.00     0.167 HD
ENDROOT
BRANCH   6   9
HETATM    9  C9  UNL     1     -21.587 -32.193  -1.165  1.00  0.00    -0.007 A 
HETATM   10  C10 UNL     1     -21.014 -31.418  -0.150  1.00  0.00     0.014 A 
HETATM   11  C11 UNL     1     -20.696 -32.011   1.028  1.00  0.00     0.002 A 
HETATM   12  C12 UNL     1     -20.937 -33.357   1.217  1.00  0.00     0.011 A 
HETATM   13  C13 UNL     1     -21.496 -34.147   0.250  1.00  0.00    -0.035 A 
HETATM   14  C17 UNL     1     -21.813 -33.514  -0.954  1.00  0.00     0.025 A 
BRANCH  13  15
HETATM   15  C14 UNL     1     -21.768 -35.563   0.398  1.00  0.00     0.018 C 
HETATM   16  C15 UNL     1     -22.546 -36.278  -0.379  1.00  0.00     0.085 C 
BRANCH  16  17
HETATM   17  C16 UNL     1     -22.786 -37.697  -0.189  1.00  0.00     0.198 C 
HETATM   18  O1  UNL     1     -22.901 -38.158   0.968  1.00  0.00    -0.645 OA
HETATM   19  O2  UNL     1     -22.892 -38.567  -1.258  1.00  0.00    -0.645 OA
ENDBRANCH  16  17
ENDBRANCH  13  15
ENDBRANCH   6   9
BRANCH   1  20
HETATM   20  N2  UNL     1     -22.680 -32.336  -5.888  1.00  0.00    -0.364 N 
HETATM   21  C4  UNL     1     -23.205 -31.555  -7.018  1.00  0.00     0.126 C 
HETATM   22  C3  UNL     1     -22.121 -31.454  -8.074  1.00  0.00     0.050 C 
HETATM   23  C2  UNL     1     -20.787 -31.928  -7.545  1.00  0.00     0.273 C 
HETATM   24  N1  UNL     1     -20.638 -33.348  -7.536  1.00  0.00     0.085 N 
HETATM   25  C1  UNL     1     -21.307 -34.022  -8.619  1.00  0.00     0.309 C 
HETATM   26  C19 UNL     1     -20.964 -33.953  -6.248  1.00  0.00     0.291 C 
HETATM   27  C18 UNL     1     -22.416 -33.737  -5.892  1.00  0.00     0.154 C 
ENDBRANCH   1  20
TORSDOF 4
ENDMDL
