MODEL 4
REMARK VINA RESULT: -9.044213774      2.430      5.352
REMARK  4 active torsions:
REMARK  status: ('A' for Active; 'I' for Inactive)
REMARK    1  A    between atoms: N2_6  and  C5_7 
REMARK    2  A    between atoms: C8_12  and  C9_13 
REMARK    3  A    between atoms: C13_17  and  C14_18 
REMARK    4  A    between atoms: C15_19  and  C16_20 
ROOT
HETATM    1  C5  UNL     1     -22.083 -35.383  -6.125  1.00  0.00     0.119 A 
HETATM    2  C6  UNL     1     -22.059 -34.978  -7.442  1.00  0.00     0.136 A 
HETATM    3  N3  UNL     1     -21.994 -33.672  -7.754  1.00  0.00    -0.370 N 
ATOM      4  H3  UNL     1     -21.977 -33.405  -8.739  1.00  0.00     0.164 HD
HETATM    5  C7  UNL     1     -21.950 -32.688  -6.811  1.00  0.00     0.118 A 
HETATM    6  C8  UNL     1     -21.975 -33.091  -5.498  1.00  0.00     0.059 A 
HETATM    7  N4  UNL     1     -22.040 -34.410  -5.199  1.00  0.00    -0.340 N 
ATOM      8  H4  UNL     1     -22.058 -34.680  -4.216  1.00  0.00     0.167 HD
ENDROOT
BRANCH   6   9
HETATM    9  C9  UNL     1     -21.930 -32.086  -4.445  1.00  0.00    -0.007 A 
HETATM   10  C10 UNL     1     -22.414 -30.821  -4.797  1.00  0.00     0.014 A 
HETATM   11  C11 UNL     1     -22.403 -29.832  -3.867  1.00  0.00     0.002 A 
HETATM   12  C12 UNL     1     -21.923 -30.078  -2.596  1.00  0.00     0.011 A 
HETATM   13  C13 UNL     1     -21.443 -31.302  -2.214  1.00  0.00    -0.035 A 
HETATM   14  C17 UNL     1     -21.463 -32.301  -3.189  1.00  0.00     0.025 A 
BRANCH  13  15
HETATM   15  C14 UNL     1     -20.927 -31.609  -0.895  1.00  0.00     0.018 C 
HETATM   16  C15 UNL     1     -21.633 -31.658   0.209  1.00  0.00     0.085 C 
BRANCH  16  17
HETATM   17  C16 UNL     1     -21.069 -31.973   1.510  1.00  0.00     0.198 C 
HETATM   18  O1  UNL     1     -20.315 -32.962   1.636  1.00  0.00    -0.645 OA
HETATM   19  O2  UNL     1     -21.343 -31.206   2.627  1.00  0.00    -0.645 OA
ENDBRANCH  16  17
ENDBRANCH  13  15
ENDBRANCH   6   9
BRANCH   1  20
HETATM   20  N2  UNL     1     -22.151 -36.756  -5.737  1.00  0.00    -0.364 N 
HETATM   21  C4  UNL     1     -22.328 -36.957  -4.292  1.00  0.00     0.126 C 
HETATM   22  C3  UNL     1     -23.735 -37.472  -4.050  1.00  0.00     0.050 C 
HETATM   23  C2  UNL     1     -24.587 -37.358  -5.292  1.00  0.00     0.273 C 
HETATM   24  N1  UNL     1     -24.373 -38.404  -6.241  1.00  0.00     0.085 N 
HETATM   25  C1  UNL     1     -24.055 -39.680  -5.655  1.00  0.00     0.309 C 
HETATM   26  C19 UNL     1     -23.422 -38.046  -7.289  1.00  0.00     0.291 C 
HETATM   27  C18 UNL     1     -22.048 -37.786  -6.718  1.00  0.00     0.154 C 
ENDBRANCH   1  20
TORSDOF 4
ENDMDL
