MODEL 1
REMARK VINA RESULT: -8.859067133      0.000      0.000
REMARK  4 active torsions:
REMARK  status: ('A' for Active; 'I' for Inactive)
REMARK       I    between atoms: C2_2  and  N1_4 
REMARK    1  A    between atoms: N1_4  and  C3_6 
REMARK    2  A    between atoms: C7_11  and  O2_12 
REMARK    3  A    between atoms: C9_15  and  O3_16 
REMARK    4  A    between atoms: C10_18  and  O4_19 
ROOT
HETATM    1  C3  UNL     1       2.216 -31.116  34.065  1.00  0.00     0.144 C 
HETATM    2  C4  UNL     1       1.398 -29.881  34.020  1.00  0.00     0.300 C 
HETATM    3  N2  UNL     1       0.010 -30.006  34.284  1.00  0.00     0.100 N 
HETATM    4  C5  UNL     1      -0.466 -28.808  34.953  1.00  0.00     0.275 C 
HETATM    5  C6  UNL     1      -1.635 -29.184  35.790  1.00  0.00     0.064 C 
HETATM    6  C7  UNL     1      -1.604 -30.690  35.890  1.00  0.00     0.155 C 
HETATM    7  C8  UNL     1      -0.399 -31.070  35.117  1.00  0.00     0.282 C 
HETATM    8  C9  UNL     1       0.768 -31.517  35.963  1.00  0.00     0.184 C 
HETATM    9  C10 UNL     1       1.686 -32.206  34.942  1.00  0.00     0.173 C 
ENDROOT
BRANCH   1  10
HETATM   10  N1  UNL     1       2.476 -31.610  32.721  1.00  0.00    -0.352 N 
HETATM   11  C2  UNL     1       1.581 -32.415  31.992  1.00  0.00     0.214 C 
HETATM   12  C1  UNL     1       1.832 -32.925  30.623  1.00  0.00     0.117 C 
HETATM   13  O1  UNL     1       0.483 -32.727  32.538  1.00  0.00    -0.274 OA
ATOM     14  H1  UNL     1       3.361 -31.358  32.281  1.00  0.00     0.163 HD
ENDBRANCH   1  10
BRANCH   9  15
HETATM   15  O4  UNL     1       2.663 -32.955  35.545  1.00  0.00    -0.391 OA
ATOM     16  H4  UNL     1       2.899 -32.650  36.413  1.00  0.00     0.210 HD
ENDBRANCH   9  15
BRANCH   8  17
HETATM   17  O3  UNL     1       0.423 -32.345  36.994  1.00  0.00    -0.391 OA
ATOM     18  H3  UNL     1       1.165 -32.697  37.472  1.00  0.00     0.210 HD
ENDBRANCH   8  17
BRANCH   6  19
HETATM   19  O2  UNL     1      -1.631 -31.149  37.183  1.00  0.00    -0.393 OA
ATOM     20  H2  UNL     1      -2.362 -31.729  37.360  1.00  0.00     0.210 HD
ENDBRANCH   6  19
TORSDOF 4
ENDMDL
