MODEL 5
REMARK VINA RESULT: -6.502306843      1.709      4.726
REMARK  4 active torsions:
REMARK  status: ('A' for Active; 'I' for Inactive)
REMARK       I    between atoms: C2_2  and  N1_4 
REMARK    1  A    between atoms: N1_4  and  C3_6 
REMARK    2  A    between atoms: C7_11  and  O2_12 
REMARK    3  A    between atoms: C9_15  and  O3_16 
REMARK    4  A    between atoms: C10_18  and  O4_19 
ROOT
HETATM    1  C3  UNL     1      -1.102 -29.639  35.477  1.00  0.00     0.144 C 
HETATM    2  C4  UNL     1      -0.366 -29.792  34.201  1.00  0.00     0.300 C 
HETATM    3  N2  UNL     1       0.982 -30.229  34.272  1.00  0.00     0.100 N 
HETATM    4  C5  UNL     1       1.290 -31.040  33.107  1.00  0.00     0.275 C 
HETATM    5  C6  UNL     1       2.363 -31.996  33.486  1.00  0.00     0.064 C 
HETATM    6  C7  UNL     1       2.415 -31.982  34.994  1.00  0.00     0.155 C 
HETATM    7  C8  UNL     1       1.347 -31.029  35.376  1.00  0.00     0.282 C 
HETATM    8  C9  UNL     1       0.112 -31.679  35.951  1.00  0.00     0.184 C 
HETATM    9  C10 UNL     1      -0.621 -30.497  36.604  1.00  0.00     0.173 C 
ENDROOT
BRANCH   1  10
HETATM   10  N1  UNL     1      -1.156 -28.239  35.876  1.00  0.00    -0.352 N 
HETATM   11  C2  UNL     1      -0.208 -27.625  36.715  1.00  0.00     0.214 C 
HETATM   12  C1  UNL     1      -0.248 -26.201  37.129  1.00  0.00     0.117 C 
HETATM   13  O1  UNL     1       0.749 -28.331  37.149  1.00  0.00    -0.274 OA
ATOM     14  H1  UNL     1      -1.926 -27.670  35.527  1.00  0.00     0.163 HD
ENDBRANCH   1  10
BRANCH   9  15
HETATM   15  O4  UNL     1      -1.618 -30.909  37.451  1.00  0.00    -0.391 OA
ATOM     16  H4  UNL     1      -1.773 -31.846  37.433  1.00  0.00     0.210 HD
ENDBRANCH   9  15
BRANCH   8  17
HETATM   17  O3  UNL     1       0.374 -32.684  36.839  1.00  0.00    -0.391 OA
ATOM     18  H3  UNL     1       0.502 -32.386  37.732  1.00  0.00     0.210 HD
ENDBRANCH   8  17
BRANCH   6  19
HETATM   19  O2  UNL     1       2.306 -33.230  35.553  1.00  0.00    -0.393 OA
ATOM     20  H2  UNL     1       1.815 -33.236  36.366  1.00  0.00     0.210 HD
ENDBRANCH   6  19
TORSDOF 4
ENDMDL
