MODEL 2
REMARK VINA RESULT: -7.025837658      2.496      4.798
REMARK  4 active torsions:
REMARK  status: ('A' for Active; 'I' for Inactive)
REMARK       I    between atoms: C2_2  and  N1_4 
REMARK    1  A    between atoms: N1_4  and  C3_6 
REMARK    2  A    between atoms: C7_11  and  O2_12 
REMARK    3  A    between atoms: C9_15  and  O3_16 
REMARK    4  A    between atoms: C10_18  and  O4_19 
ROOT
HETATM    1  C3  UNL     1       0.464 -28.403  35.182  1.00  0.00     0.144 C 
HETATM    2  C4  UNL     1       0.399 -29.172  33.917  1.00  0.00     0.300 C 
HETATM    3  N2  UNL     1       1.320 -30.238  33.753  1.00  0.00     0.100 N 
HETATM    4  C5  UNL     1       0.701 -31.297  32.975  1.00  0.00     0.275 C 
HETATM    5  C6  UNL     1       1.335 -32.583  33.365  1.00  0.00     0.064 C 
HETATM    6  C7  UNL     1       2.073 -32.306  34.652  1.00  0.00     0.155 C 
HETATM    7  C8  UNL     1       1.790 -30.876  34.921  1.00  0.00     0.282 C 
HETATM    8  C9  UNL     1       0.813 -30.638  36.046  1.00  0.00     0.184 C 
HETATM    9  C10 UNL     1       1.012 -29.147  36.359  1.00  0.00     0.173 C 
ENDROOT
BRANCH   1  10
HETATM   10  N1  UNL     1       1.172 -27.147  34.986  1.00  0.00    -0.352 N 
HETATM   11  C2  UNL     1       0.796 -25.931  35.586  1.00  0.00     0.214 C 
HETATM   12  C1  UNL     1       1.507 -24.644  35.396  1.00  0.00     0.117 C 
HETATM   13  O1  UNL     1      -0.218 -25.930  36.344  1.00  0.00    -0.274 OA
ATOM     14  H1  UNL     1       1.989 -27.147  34.376  1.00  0.00     0.163 HD
ENDBRANCH   1  10
BRANCH   9  15
HETATM   15  O4  UNL     1       0.444 -28.787  37.554  1.00  0.00    -0.391 OA
ATOM     16  H4  UNL     1       0.972 -28.181  38.061  1.00  0.00     0.210 HD
ENDBRANCH   9  15
BRANCH   8  17
HETATM   17  O3  UNL     1       1.019 -31.431  37.140  1.00  0.00    -0.391 OA
ATOM     18  H3  UNL     1       1.925 -31.476  37.419  1.00  0.00     0.210 HD
ENDBRANCH   8  17
BRANCH   6  19
HETATM   19  O2  UNL     1       1.736 -33.164  35.667  1.00  0.00    -0.393 OA
ATOM     20  H2  UNL     1       1.600 -32.727  36.499  1.00  0.00     0.210 HD
ENDBRANCH   6  19
TORSDOF 4
ENDMDL
