MODEL 3
REMARK VINA RESULT: -6.816031637      2.713      4.611
REMARK  4 active torsions:
REMARK  status: ('A' for Active; 'I' for Inactive)
REMARK       I    between atoms: C2_2  and  N1_4 
REMARK    1  A    between atoms: N1_4  and  C3_6 
REMARK    2  A    between atoms: C7_11  and  O2_12 
REMARK    3  A    between atoms: C9_15  and  O3_16 
REMARK    4  A    between atoms: C10_18  and  O4_19 
ROOT
HETATM    1  C3  UNL     1       0.547 -28.247  34.386  1.00  0.00     0.144 C 
HETATM    2  C4  UNL     1       1.028 -29.459  33.682  1.00  0.00     0.300 C 
HETATM    3  N2  UNL     1       1.584 -30.497  34.472  1.00  0.00     0.100 N 
HETATM    4  C5  UNL     1       1.282 -31.781  33.865  1.00  0.00     0.275 C 
HETATM    5  C6  UNL     1       1.242 -32.801  34.946  1.00  0.00     0.064 C 
HETATM    6  C7  UNL     1       1.157 -32.028  36.239  1.00  0.00     0.155 C 
HETATM    7  C8  UNL     1       1.131 -30.612  35.804  1.00  0.00     0.282 C 
HETATM    8  C9  UNL     1      -0.218 -29.947  35.930  1.00  0.00     0.184 C 
HETATM    9  C10 UNL     1       0.124 -28.456  35.807  1.00  0.00     0.173 C 
ENDROOT
BRANCH   1  10
HETATM   10  N1  UNL     1       1.522 -27.171  34.286  1.00  0.00    -0.352 N 
HETATM   11  C2  UNL     1       1.182 -25.814  34.134  1.00  0.00     0.214 C 
HETATM   12  C1  UNL     1       2.163 -24.707  34.031  1.00  0.00     0.117 C 
HETATM   13  O1  UNL     1      -0.046 -25.511  34.082  1.00  0.00    -0.274 OA
ATOM     14  H1  UNL     1       2.511 -27.415  34.328  1.00  0.00     0.163 HD
ENDBRANCH   1  10
BRANCH   9  15
HETATM   15  O4  UNL     1      -0.914 -27.650  36.199  1.00  0.00    -0.391 OA
ATOM     16  H4  UNL     1      -1.554 -28.090  36.747  1.00  0.00     0.210 HD
ENDBRANCH   9  15
BRANCH   8  17
HETATM   17  O3  UNL     1      -0.874 -30.236  37.095  1.00  0.00    -0.391 OA
ATOM     18  H3  UNL     1      -0.530 -29.781  37.854  1.00  0.00     0.210 HD
ENDBRANCH   8  17
BRANCH   6  19
HETATM   19  O2  UNL     1       0.103 -32.410  37.031  1.00  0.00    -0.393 OA
ATOM     20  H2  UNL     1      -0.560 -32.903  36.563  1.00  0.00     0.210 HD
ENDBRANCH   6  19
TORSDOF 4
ENDMDL
