MODEL 4
REMARK VINA RESULT: -7.478014055      1.457      2.031
REMARK  6 active torsions:
REMARK  status: ('A' for Active; 'I' for Inactive)
REMARK    1  A    between atoms: O1_2  and  C2_3 
REMARK    2  A    between atoms: C4_5  and  O2_6 
REMARK    3  A    between atoms: C5_8  and  C6_9 
REMARK    4  A    between atoms: C6_9  and  O3_10 
REMARK    5  A    between atoms: C6_9  and  N1_12 
REMARK    6  A    between atoms: C16_22  and  C17_23 
ROOT
HETATM    1  C2  UNL     1      12.639  -2.938  11.209  1.00  0.00     0.077 A 
HETATM    2  C3  UNL     1      12.461  -4.291  11.353  1.00  0.00     0.074 A 
HETATM    3  C4  UNL     1      13.353  -5.206  10.848  1.00  0.00     0.082 A 
HETATM    4  C5  UNL     1      14.512  -4.824  10.146  1.00  0.00     0.048 A 
HETATM    5  C15 UNL     1      14.675  -3.467  10.011  1.00  0.00     0.028 A 
HETATM    6  C16 UNL     1      13.759  -2.535  10.530  1.00  0.00    -0.020 A 
ENDROOT
BRANCH   4   7
HETATM    7  C6  UNL     1      15.428  -5.838   9.664  1.00  0.00     0.151 C 
BRANCH   7   8
HETATM    8  O3  UNL     1      15.622  -6.838  10.485  1.00  0.00    -0.345 OA
ATOM      9  H3  UNL     1      16.297  -6.693  11.138  1.00  0.00     0.219 HD
ENDBRANCH   7   8
BRANCH   7  10
HETATM   10  N1  UNL     1      16.120  -5.874   8.437  1.00  0.00    -0.353 N 
HETATM   11  C7  UNL     1      17.469  -6.165   8.122  1.00  0.00     0.164 C 
HETATM   12  C8  UNL     1      17.666  -5.710   6.698  1.00  0.00    -0.032 A 
HETATM   13  C9  UNL     1      18.793  -5.589   5.931  1.00  0.00     0.009 A 
HETATM   14  C13 UNL     1      16.452  -5.373   6.174  1.00  0.00    -0.032 A 
HETATM   15  C10 UNL     1      18.698  -5.124   4.623  1.00  0.00     0.001 A 
HETATM   16  C11 UNL     1      17.476  -4.779   4.080  1.00  0.00     0.001 A 
HETATM   17  C12 UNL     1      16.329  -4.903   4.862  1.00  0.00     0.009 A 
HETATM   18  C14 UNL     1      15.424  -5.594   7.172  1.00  0.00     0.164 C 
ENDBRANCH   7  10
ENDBRANCH   4   7
BRANCH   3  19
HETATM   19  O2  UNL     1      13.143  -6.575  11.013  1.00  0.00    -0.360 OA
ATOM     20  H2  UNL     1      12.401  -7.005  10.605  1.00  0.00     0.217 HD
ENDBRANCH   3  19
BRANCH   6  21
HETATM   21  C17 UNL     1      14.018  -1.095  10.330  1.00  0.00     0.013 C 
HETATM   22  C18 UNL     1      15.306  -0.665  11.020  1.00  0.00     0.015 C 
HETATM   23  C19 UNL     1      14.181  -0.738   8.872  1.00  0.00     0.015 C 
ENDBRANCH   6  21
BRANCH   1  24
HETATM   24  O1  UNL     1      11.750  -1.998  11.711  1.00  0.00    -0.355 OA
HETATM   25  C1  UNL     1      10.676  -1.501  10.933  1.00  0.00     0.210 C 
ENDBRANCH   1  24
TORSDOF 6
ENDMDL
