MODEL 15
REMARK VINA RESULT: -6.860448940      1.541      1.891
REMARK  6 active torsions:
REMARK  status: ('A' for Active; 'I' for Inactive)
REMARK    1  A    between atoms: O1_2  and  C2_3 
REMARK    2  A    between atoms: C4_5  and  O2_6 
REMARK    3  A    between atoms: C5_8  and  C6_9 
REMARK    4  A    between atoms: C6_9  and  O3_10 
REMARK    5  A    between atoms: C6_9  and  N1_12 
REMARK    6  A    between atoms: C16_22  and  C17_23 
ROOT
HETATM    1  C2  UNL     1      13.189  -5.022  11.600  1.00  0.00     0.077 A 
HETATM    2  C3  UNL     1      14.067  -5.842  10.935  1.00  0.00     0.074 A 
HETATM    3  C4  UNL     1      14.765  -5.424   9.827  1.00  0.00     0.082 A 
HETATM    4  C5  UNL     1      14.632  -4.128   9.294  1.00  0.00     0.048 A 
HETATM    5  C15 UNL     1      13.751  -3.321   9.970  1.00  0.00     0.028 A 
HETATM    6  C16 UNL     1      13.039  -3.753  11.103  1.00  0.00    -0.020 A 
ENDROOT
BRANCH   4   7
HETATM    7  C6  UNL     1      15.419  -3.741   8.141  1.00  0.00     0.151 C 
BRANCH   7   8
HETATM    8  O3  UNL     1      15.963  -2.554   8.222  1.00  0.00    -0.345 OA
ATOM      9  H3  UNL     1      16.823  -2.536   8.626  1.00  0.00     0.219 HD
ENDBRANCH   7   8
BRANCH   7  10
HETATM   10  N1  UNL     1      15.664  -4.478   6.966  1.00  0.00    -0.353 N 
HETATM   11  C7  UNL     1      14.792  -5.108   6.046  1.00  0.00     0.164 C 
HETATM   12  C8  UNL     1      15.662  -6.006   5.202  1.00  0.00    -0.032 A 
HETATM   13  C9  UNL     1      15.348  -6.966   4.279  1.00  0.00     0.009 A 
HETATM   14  C13 UNL     1      16.969  -5.745   5.490  1.00  0.00    -0.032 A 
HETATM   15  C10 UNL     1      16.362  -7.672   3.639  1.00  0.00     0.001 A 
HETATM   16  C11 UNL     1      17.690  -7.419   3.921  1.00  0.00     0.001 A 
HETATM   17  C12 UNL     1      18.007  -6.441   4.861  1.00  0.00     0.009 A 
HETATM   18  C14 UNL     1      17.038  -4.692   6.484  1.00  0.00     0.164 C 
ENDBRANCH   7  10
ENDBRANCH   4   7
BRANCH   3  19
HETATM   19  O2  UNL     1      15.650  -6.282   9.175  1.00  0.00    -0.360 OA
ATOM     20  H2  UNL     1      16.590  -6.180   9.277  1.00  0.00     0.217 HD
ENDBRANCH   3  19
BRANCH   6  21
HETATM   21  C17 UNL     1      12.109  -2.813  11.762  1.00  0.00     0.013 C 
HETATM   22  C18 UNL     1      12.707  -1.415  11.848  1.00  0.00     0.015 C 
HETATM   23  C19 UNL     1      10.808  -2.671  11.008  1.00  0.00     0.015 C 
ENDBRANCH   6  21
BRANCH   1  24
HETATM   24  O1  UNL     1      12.475  -5.424  12.718  1.00  0.00    -0.355 OA
HETATM   25  C1  UNL     1      13.125  -5.821  13.913  1.00  0.00     0.210 C 
ENDBRANCH   1  24
TORSDOF 6
ENDMDL
