MODEL 3
REMARK VINA RESULT: -7.672909318      2.043      7.056
REMARK  6 active torsions:
REMARK  status: ('A' for Active; 'I' for Inactive)
REMARK    1  A    between atoms: O1_2  and  C2_3 
REMARK    2  A    between atoms: C4_5  and  O2_6 
REMARK    3  A    between atoms: C5_8  and  C6_9 
REMARK    4  A    between atoms: C6_9  and  O3_10 
REMARK    5  A    between atoms: C6_9  and  N1_12 
REMARK    6  A    between atoms: C16_22  and  C17_23 
ROOT
HETATM    1  C2  UNL     1      17.333  -5.561   5.891  1.00  0.00     0.077 A 
HETATM    2  C3  UNL     1      17.998  -5.938   7.032  1.00  0.00     0.074 A 
HETATM    3  C4  UNL     1      17.355  -6.093   8.237  1.00  0.00     0.082 A 
HETATM    4  C5  UNL     1      15.973  -5.878   8.390  1.00  0.00     0.048 A 
HETATM    5  C15 UNL     1      15.323  -5.502   7.240  1.00  0.00     0.028 A 
HETATM    6  C16 UNL     1      15.985  -5.344   6.009  1.00  0.00    -0.020 A 
ENDROOT
BRANCH   4   7
HETATM    7  C6  UNL     1      15.351  -6.087   9.681  1.00  0.00     0.151 C 
BRANCH   7   8
HETATM    8  O3  UNL     1      15.639  -7.229  10.251  1.00  0.00    -0.345 OA
ATOM      9  H3  UNL     1      14.893  -7.795  10.411  1.00  0.00     0.219 HD
ENDBRANCH   7   8
BRANCH   7  10
HETATM   10  N1  UNL     1      14.489  -5.221  10.384  1.00  0.00    -0.353 N 
HETATM   11  C7  UNL     1      13.353  -5.470  11.191  1.00  0.00     0.164 C 
HETATM   12  C8  UNL     1      12.679  -4.133  11.375  1.00  0.00    -0.032 A 
HETATM   13  C9  UNL     1      11.468  -3.794  11.915  1.00  0.00     0.009 A 
HETATM   14  C13 UNL     1      13.494  -3.160  10.877  1.00  0.00    -0.032 A 
HETATM   15  C10 UNL     1      11.072  -2.460  11.954  1.00  0.00     0.001 A 
HETATM   16  C11 UNL     1      11.887  -1.465  11.453  1.00  0.00     0.001 A 
HETATM   17  C12 UNL     1      13.120  -1.812  10.904  1.00  0.00     0.009 A 
HETATM   18  C14 UNL     1      14.710  -3.767  10.374  1.00  0.00     0.164 C 
ENDBRANCH   7  10
ENDBRANCH   4   7
BRANCH   3  19
HETATM   19  O2  UNL     1      18.059  -6.478   9.378  1.00  0.00    -0.360 OA
ATOM     20  H2  UNL     1      18.005  -5.967  10.177  1.00  0.00     0.217 HD
ENDBRANCH   3  19
BRANCH   6  21
HETATM   21  C17 UNL     1      15.202  -4.932   4.827  1.00  0.00     0.013 C 
HETATM   22  C18 UNL     1      13.809  -5.548   4.846  1.00  0.00     0.015 C 
HETATM   23  C19 UNL     1      15.002  -3.437   4.763  1.00  0.00     0.015 C 
ENDBRANCH   6  21
BRANCH   1  24
HETATM   24  O1  UNL     1      17.963  -5.398   4.666  1.00  0.00    -0.355 OA
HETATM   25  C1  UNL     1      19.235  -4.784   4.560  1.00  0.00     0.210 C 
ENDBRANCH   1  24
TORSDOF 6
ENDMDL
