MODEL 6
REMARK VINA RESULT: -7.218574805      4.778      6.513
REMARK  6 active torsions:
REMARK  status: ('A' for Active; 'I' for Inactive)
REMARK    1  A    between atoms: O1_2  and  C2_3 
REMARK    2  A    between atoms: C4_5  and  O2_6 
REMARK    3  A    between atoms: C5_8  and  C6_9 
REMARK    4  A    between atoms: C6_9  and  O3_10 
REMARK    5  A    between atoms: C6_9  and  N1_12 
REMARK    6  A    between atoms: C16_22  and  C17_23 
ROOT
HETATM    1  C2  UNL     1      15.333  -3.205   8.827  1.00  0.00     0.077 A 
HETATM    2  C3  UNL     1      15.819  -3.162   7.544  1.00  0.00     0.074 A 
HETATM    3  C4  UNL     1      15.480  -2.162   6.665  1.00  0.00     0.082 A 
HETATM    4  C5  UNL     1      14.612  -1.110   7.013  1.00  0.00     0.048 A 
HETATM    5  C15 UNL     1      14.135  -1.168   8.300  1.00  0.00     0.028 A 
HETATM    6  C16 UNL     1      14.485  -2.193   9.196  1.00  0.00    -0.020 A 
ENDROOT
BRANCH   4   7
HETATM    7  C6  UNL     1      14.318  -0.071   6.049  1.00  0.00     0.151 C 
BRANCH   7   8
HETATM    8  O3  UNL     1      15.229   0.864   5.954  1.00  0.00    -0.345 OA
ATOM      9  H3  UNL     1      15.992   0.627   5.440  1.00  0.00     0.219 HD
ENDBRANCH   7   8
BRANCH   7  10
HETATM   10  N1  UNL     1      13.189   0.050   5.214  1.00  0.00    -0.353 N 
HETATM   11  C7  UNL     1      11.824   0.288   5.501  1.00  0.00     0.164 C 
HETATM   12  C8  UNL     1      11.075  -0.028   4.230  1.00  0.00    -0.032 A 
HETATM   13  C9  UNL     1       9.737  -0.138   3.969  1.00  0.00     0.009 A 
HETATM   14  C13 UNL     1      11.979  -0.232   3.230  1.00  0.00    -0.032 A 
HETATM   15  C10 UNL     1       9.302  -0.458   2.686  1.00  0.00     0.001 A 
HETATM   16  C11 UNL     1      10.206  -0.668   1.663  1.00  0.00     0.001 A 
HETATM   17  C12 UNL     1      11.569  -0.555   1.931  1.00  0.00     0.009 A 
HETATM   18  C14 UNL     1      13.319  -0.053   3.753  1.00  0.00     0.164 C 
ENDBRANCH   7  10
ENDBRANCH   4   7
BRANCH   3  19
HETATM   19  O2  UNL     1      15.993  -2.147   5.367  1.00  0.00    -0.360 OA
ATOM     20  H2  UNL     1      16.812  -2.584   5.163  1.00  0.00     0.217 HD
ENDBRANCH   3  19
BRANCH   6  21
HETATM   21  C17 UNL     1      13.918  -2.172  10.559  1.00  0.00     0.013 C 
HETATM   22  C18 UNL     1      14.636  -1.159  11.440  1.00  0.00     0.015 C 
HETATM   23  C19 UNL     1      12.459  -1.781  10.568  1.00  0.00     0.015 C 
ENDBRANCH   6  21
BRANCH   1  24
HETATM   24  O1  UNL     1      15.662  -4.205   9.730  1.00  0.00    -0.355 OA
HETATM   25  C1  UNL     1      15.169  -5.526   9.588  1.00  0.00     0.210 C 
ENDBRANCH   1  24
TORSDOF 6
ENDMDL
