MODEL 5
REMARK VINA RESULT: -7.289965664      2.443      6.905
REMARK  6 active torsions:
REMARK  status: ('A' for Active; 'I' for Inactive)
REMARK    1  A    between atoms: O1_2  and  C2_3 
REMARK    2  A    between atoms: C4_5  and  O2_6 
REMARK    3  A    between atoms: C5_8  and  C6_9 
REMARK    4  A    between atoms: C6_9  and  O3_10 
REMARK    5  A    between atoms: C6_9  and  N1_12 
REMARK    6  A    between atoms: C16_22  and  C17_23 
ROOT
HETATM    1  C2  UNL     1      17.408  -4.030   5.062  1.00  0.00     0.077 A 
HETATM    2  C3  UNL     1      17.895  -5.164   5.662  1.00  0.00     0.074 A 
HETATM    3  C4  UNL     1      17.543  -5.526   6.940  1.00  0.00     0.082 A 
HETATM    4  C5  UNL     1      16.661  -4.762   7.727  1.00  0.00     0.048 A 
HETATM    5  C15 UNL     1      16.183  -3.631   7.112  1.00  0.00     0.028 A 
HETATM    6  C16 UNL     1      16.546  -3.265   5.804  1.00  0.00    -0.020 A 
ENDROOT
BRANCH   4   7
HETATM    7  C6  UNL     1      16.308  -5.214   9.057  1.00  0.00     0.151 C 
BRANCH   7   8
HETATM    8  O3  UNL     1      17.058  -6.178   9.526  1.00  0.00    -0.345 OA
ATOM      9  H3  UNL     1      17.868  -5.892   9.933  1.00  0.00     0.219 HD
ENDBRANCH   7   8
BRANCH   7  10
HETATM   10  N1  UNL     1      15.273  -4.746   9.891  1.00  0.00    -0.353 N 
HETATM   11  C7  UNL     1      14.277  -5.425  10.631  1.00  0.00     0.164 C 
HETATM   12  C8  UNL     1      13.277  -4.371  11.038  1.00  0.00    -0.032 A 
HETATM   13  C9  UNL     1      12.040  -4.469  11.616  1.00  0.00     0.009 A 
HETATM   14  C13 UNL     1      13.782  -3.145  10.724  1.00  0.00    -0.032 A 
HETATM   15  C10 UNL     1      11.304  -3.318  11.882  1.00  0.00     0.001 A 
HETATM   16  C11 UNL     1      11.802  -2.069  11.569  1.00  0.00     0.001 A 
HETATM   17  C12 UNL     1      13.062  -1.972  10.980  1.00  0.00     0.009 A 
HETATM   18  C14 UNL     1      15.096  -3.306  10.134  1.00  0.00     0.164 C 
ENDBRANCH   7  10
ENDBRANCH   4   7
BRANCH   3  19
HETATM   19  O2  UNL     1      18.055  -6.686   7.521  1.00  0.00    -0.360 OA
ATOM     20  H2  UNL     1      17.558  -7.163   8.176  1.00  0.00     0.217 HD
ENDBRANCH   3  19
BRANCH   6  21
HETATM   21  C17 UNL     1      15.983  -2.027   5.228  1.00  0.00     0.013 C 
HETATM   22  C18 UNL     1      14.715  -2.314   4.435  1.00  0.00     0.015 C 
HETATM   23  C19 UNL     1      15.599  -1.024   6.290  1.00  0.00     0.015 C 
ENDBRANCH   6  21
BRANCH   1  24
HETATM   24  O1  UNL     1      17.750  -3.647   3.774  1.00  0.00    -0.355 OA
HETATM   25  C1  UNL     1      18.605  -4.436   2.966  1.00  0.00     0.210 C 
ENDBRANCH   1  24
TORSDOF 6
ENDMDL
