MODEL 2
REMARK VINA RESULT: -8.246232711      0.715      1.398
REMARK  6 active torsions:
REMARK  status: ('A' for Active; 'I' for Inactive)
REMARK    1  A    between atoms: O1_2  and  C2_3 
REMARK    2  A    between atoms: C4_5  and  O2_6 
REMARK    3  A    between atoms: C5_8  and  C6_9 
REMARK    4  A    between atoms: C6_9  and  O3_10 
REMARK    5  A    between atoms: C6_9  and  N1_12 
REMARK    6  A    between atoms: C16_22  and  C17_23 
ROOT
HETATM    1  C2  UNL     1      13.232  -3.847  11.069  1.00  0.00     0.077 A 
HETATM    2  C3  UNL     1      13.481  -5.196  11.023  1.00  0.00     0.074 A 
HETATM    3  C4  UNL     1      14.496  -5.729  10.265  1.00  0.00     0.082 A 
HETATM    4  C5  UNL     1      15.354  -4.933   9.483  1.00  0.00     0.048 A 
HETATM    5  C15 UNL     1      15.091  -3.586   9.539  1.00  0.00     0.028 A 
HETATM    6  C16 UNL     1      14.051  -3.046  10.316  1.00  0.00    -0.020 A 
ENDROOT
BRANCH   4   7
HETATM    7  C6  UNL     1      16.424  -5.554   8.730  1.00  0.00     0.151 C 
BRANCH   7   8
HETATM    8  O3  UNL     1      17.466  -5.899   9.440  1.00  0.00    -0.345 OA
ATOM      9  H3  UNL     1      18.035  -6.541   9.029  1.00  0.00     0.219 HD
ENDBRANCH   7   8
BRANCH   7  10
HETATM   10  N1  UNL     1      16.472  -5.827   7.348  1.00  0.00    -0.353 N 
HETATM   11  C7  UNL     1      17.541  -6.194   6.495  1.00  0.00     0.164 C 
HETATM   12  C8  UNL     1      17.025  -6.012   5.089  1.00  0.00    -0.032 A 
HETATM   13  C9  UNL     1      17.660  -6.053   3.877  1.00  0.00     0.009 A 
HETATM   14  C13 UNL     1      15.687  -5.757   5.143  1.00  0.00    -0.032 A 
HETATM   15  C10 UNL     1      16.939  -5.835   2.707  1.00  0.00     0.001 A 
HETATM   16  C11 UNL     1      15.584  -5.576   2.747  1.00  0.00     0.001 A 
HETATM   17  C12 UNL     1      14.939  -5.535   3.982  1.00  0.00     0.009 A 
HETATM   18  C14 UNL     1      15.253  -5.774   6.526  1.00  0.00     0.164 C 
ENDBRANCH   7  10
ENDBRANCH   4   7
BRANCH   3  19
HETATM   19  O2  UNL     1      14.723  -7.105  10.242  1.00  0.00    -0.360 OA
ATOM     20  H2  UNL     1      15.603  -7.451  10.145  1.00  0.00     0.217 HD
ENDBRANCH   3  19
BRANCH   6  21
HETATM   21  C17 UNL     1      13.843  -1.584  10.310  1.00  0.00     0.013 C 
HETATM   22  C18 UNL     1      14.940  -0.868  11.086  1.00  0.00     0.015 C 
HETATM   23  C19 UNL     1      13.866  -1.007   8.915  1.00  0.00     0.015 C 
ENDBRANCH   6  21
BRANCH   1  24
HETATM   24  O1  UNL     1      12.212  -3.289  11.826  1.00  0.00    -0.355 OA
HETATM   25  C1  UNL     1      11.173  -4.082  12.373  1.00  0.00     0.210 C 
ENDBRANCH   1  24
TORSDOF 6
ENDMDL
