MODEL 1
REMARK VINA RESULT: -8.866264790      0.000      0.000
REMARK  6 active torsions:
REMARK  status: ('A' for Active; 'I' for Inactive)
REMARK    1  A    between atoms: O1_2  and  C2_3 
REMARK    2  A    between atoms: C4_5  and  O2_6 
REMARK    3  A    between atoms: C5_8  and  C6_9 
REMARK    4  A    between atoms: C6_9  and  O3_10 
REMARK    5  A    between atoms: C6_9  and  N1_12 
REMARK    6  A    between atoms: C16_22  and  C17_23 
ROOT
HETATM    1  C2  UNL     1      13.262  -3.834  11.149  1.00  0.00     0.077 A 
HETATM    2  C3  UNL     1      13.510  -5.183  11.101  1.00  0.00     0.074 A 
HETATM    3  C4  UNL     1      14.508  -5.717  10.321  1.00  0.00     0.082 A 
HETATM    4  C5  UNL     1      15.346  -4.924   9.516  1.00  0.00     0.048 A 
HETATM    5  C15 UNL     1      15.084  -3.577   9.575  1.00  0.00     0.028 A 
HETATM    6  C16 UNL     1      14.062  -3.035  10.375  1.00  0.00    -0.020 A 
ENDROOT
BRANCH   4   7
HETATM    7  C6  UNL     1      16.398  -5.546   8.739  1.00  0.00     0.151 C 
BRANCH   7   8
HETATM    8  O3  UNL     1      17.431  -5.946   9.435  1.00  0.00    -0.345 OA
ATOM      9  H3  UNL     1      17.991  -6.573   8.993  1.00  0.00     0.219 HD
ENDBRANCH   7   8
BRANCH   7  10
HETATM   10  N1  UNL     1      16.439  -5.770   7.348  1.00  0.00    -0.353 N 
HETATM   11  C7  UNL     1      15.415  -5.987   6.396  1.00  0.00     0.164 C 
HETATM   12  C8  UNL     1      16.107  -6.492   5.155  1.00  0.00    -0.032 A 
HETATM   13  C9  UNL     1      15.615  -7.016   3.991  1.00  0.00     0.009 A 
HETATM   14  C13 UNL     1      17.454  -6.372   5.326  1.00  0.00    -0.032 A 
HETATM   15  C10 UNL     1      16.489  -7.424   2.987  1.00  0.00     0.001 A 
HETATM   16  C11 UNL     1      17.855  -7.309   3.147  1.00  0.00     0.001 A 
HETATM   17  C12 UNL     1      18.355  -6.775   4.334  1.00  0.00     0.009 A 
HETATM   18  C14 UNL     1      17.720  -5.789   6.626  1.00  0.00     0.164 C 
ENDBRANCH   7  10
ENDBRANCH   4   7
BRANCH   3  19
HETATM   19  O2  UNL     1      14.735  -7.093  10.295  1.00  0.00    -0.360 OA
ATOM     20  H2  UNL     1      15.321  -7.478   9.653  1.00  0.00     0.217 HD
ENDBRANCH   3  19
BRANCH   6  21
HETATM   21  C17 UNL     1      13.854  -1.572  10.370  1.00  0.00     0.013 C 
HETATM   22  C18 UNL     1      14.953  -0.856  11.143  1.00  0.00     0.015 C 
HETATM   23  C19 UNL     1      13.873  -0.995   8.975  1.00  0.00     0.015 C 
ENDBRANCH   6  21
BRANCH   1  24
HETATM   24  O1  UNL     1      12.260  -3.275  11.928  1.00  0.00    -0.355 OA
HETATM   25  C1  UNL     1      11.154  -4.038  12.378  1.00  0.00     0.210 C 
ENDBRANCH   1  24
TORSDOF 6
ENDMDL
