MODEL 2
REMARK VINA RESULT: -7.563931930      2.922      7.643
REMARK  2 active torsions:
REMARK  status: ('A' for Active; 'I' for Inactive)
REMARK    1  A    between atoms: C7_9  and  O1_10 
REMARK    2  A    between atoms: C8_12  and  C9_13 
REMARK       I    between atoms: C9_13  and  N2_15 
ROOT
HETATM    1  C1  UNL     1       0.007  -0.774 -13.215  1.00  0.00     0.021 C 
HETATM    2  C2  UNL     1      -0.975  -0.761 -12.066  1.00  0.00    -0.002 C 
HETATM    3  C3  UNL     1      -1.142  -2.123 -11.444  1.00  0.00     0.021 C 
HETATM    4  C4  UNL     1      -2.286  -0.182 -12.534  1.00  0.00     0.133 C 
HETATM    5  N1  UNL     1      -1.934   1.241 -12.537  1.00  0.00    -0.388 N 
ATOM      6  H1  UNL     1      -2.241   1.944 -13.210  1.00  0.00     0.159 HD
HETATM    7  C5  UNL     1      -1.078   1.447 -11.419  1.00  0.00     0.037 A 
HETATM    8  C6  UNL     1      -0.810   2.600 -10.691  1.00  0.00     0.067 A 
HETATM    9  C7  UNL     1       0.047   2.566  -9.631  1.00  0.00     0.083 A 
HETATM   10  C8  UNL     1       0.654   1.346  -9.291  1.00  0.00     0.066 A 
HETATM   11  C18 UNL     1       0.380   0.211 -10.018  1.00  0.00     0.030 A 
HETATM   12  C19 UNL     1      -0.494   0.249 -11.099  1.00  0.00    -0.021 A 
ENDROOT
BRANCH  10  13
HETATM   13  C9  UNL     1       1.528   1.304  -8.142  1.00  0.00     0.257 C 
HETATM   14  O2  UNL     1       2.705   1.822  -8.324  1.00  0.00    -0.267 OA
HETATM   15  N2  UNL     1       1.286   0.781  -6.860  1.00  0.00    -0.339 N 
HETATM   16  C10 UNL     1       0.157   0.115  -6.322  1.00  0.00     0.165 C 
HETATM   17  C17 UNL     1       2.288   0.906  -5.785  1.00  0.00     0.165 C 
HETATM   18  C11 UNL     1       0.644  -0.557  -5.075  1.00  0.00    -0.032 A 
HETATM   19  C12 UNL     1       0.028  -1.511  -4.273  1.00  0.00     0.009 A 
HETATM   20  C16 UNL     1       1.881  -0.087  -4.783  1.00  0.00    -0.032 A 
HETATM   21  C13 UNL     1       0.710  -1.966  -3.177  1.00  0.00     0.001 A 
HETATM   22  C14 UNL     1       1.970  -1.513  -2.846  1.00  0.00     0.001 A 
HETATM   23  C15 UNL     1       2.551  -0.568  -3.660  1.00  0.00     0.009 A 
ENDBRANCH  10  13
BRANCH   9  24
HETATM   24  O1  UNL     1       0.352   3.685  -8.870  1.00  0.00    -0.360 OA
ATOM     25  H1  UNL     1       0.944   3.659  -8.127  1.00  0.00     0.217 HD
ENDBRANCH   9  24
TORSDOF 2
ENDMDL
