MODEL 3
REMARK VINA RESULT: -7.482010062      2.632      7.613
REMARK  2 active torsions:
REMARK  status: ('A' for Active; 'I' for Inactive)
REMARK    1  A    between atoms: C7_9  and  O1_10 
REMARK    2  A    between atoms: C8_12  and  C9_13 
REMARK       I    between atoms: C9_13  and  N2_15 
ROOT
HETATM    1  C1  UNL     1       0.968  -0.524 -13.806  1.00  0.00     0.021 C 
HETATM    2  C2  UNL     1       0.256  -1.363 -12.769  1.00  0.00    -0.002 C 
HETATM    3  C3  UNL     1       0.978  -2.655 -12.489  1.00  0.00     0.021 C 
HETATM    4  C4  UNL     1      -1.171  -1.588 -13.199  1.00  0.00     0.133 C 
HETATM    5  N1  UNL     1      -1.736  -0.281 -12.850  1.00  0.00    -0.388 N 
ATOM      6  H1  UNL     1      -2.449   0.234 -13.367  1.00  0.00     0.159 HD
HETATM    7  C5  UNL     1      -1.094   0.128 -11.647  1.00  0.00     0.037 A 
HETATM    8  C6  UNL     1      -1.514   1.008 -10.656  1.00  0.00     0.067 A 
HETATM    9  C7  UNL     1      -0.731   1.246  -9.565  1.00  0.00     0.083 A 
HETATM   10  C8  UNL     1       0.505   0.587  -9.463  1.00  0.00     0.066 A 
HETATM   11  C18 UNL     1       0.910  -0.281 -10.450  1.00  0.00     0.030 A 
HETATM   12  C19 UNL     1       0.110  -0.522 -11.561  1.00  0.00    -0.021 A 
ENDROOT
BRANCH  10  13
HETATM   13  C9  UNL     1       1.313   0.809  -8.286  1.00  0.00     0.257 C 
HETATM   14  O2  UNL     1       2.384   1.518  -8.477  1.00  0.00    -0.267 OA
HETATM   15  N2  UNL     1       1.104   0.365  -6.969  1.00  0.00    -0.339 N 
HETATM   16  C10 UNL     1       0.088  -0.448  -6.409  1.00  0.00     0.165 C 
HETATM   17  C17 UNL     1       2.010   0.768  -5.877  1.00  0.00     0.165 C 
HETATM   18  C11 UNL     1       0.624  -0.906  -5.088  1.00  0.00    -0.032 A 
HETATM   19  C12 UNL     1       0.151  -1.884  -4.219  1.00  0.00     0.009 A 
HETATM   20  C16 UNL     1       1.739  -0.192  -4.799  1.00  0.00    -0.032 A 
HETATM   21  C13 UNL     1       0.847  -2.106  -3.061  1.00  0.00     0.001 A 
HETATM   22  C14 UNL     1       1.985  -1.400  -2.733  1.00  0.00     0.001 A 
HETATM   23  C15 UNL     1       2.426  -0.440  -3.613  1.00  0.00     0.009 A 
ENDBRANCH  10  13
BRANCH   9  24
HETATM   24  O1  UNL     1      -1.098   2.113  -8.547  1.00  0.00    -0.360 OA
ATOM     25  H1  UNL     1      -0.750   2.052  -7.665  1.00  0.00     0.217 HD
ENDBRANCH   9  24
TORSDOF 2
ENDMDL
