MODEL 4
REMARK VINA RESULT: -7.335885733      3.073      7.867
REMARK  2 active torsions:
REMARK  status: ('A' for Active; 'I' for Inactive)
REMARK    1  A    between atoms: C7_9  and  O1_10 
REMARK    2  A    between atoms: C8_12  and  C9_13 
REMARK       I    between atoms: C9_13  and  N2_15 
ROOT
HETATM    1  C1  UNL     1       1.961  -2.075 -13.678  1.00  0.00     0.021 C 
HETATM    2  C2  UNL     1       0.780  -2.099 -12.734  1.00  0.00    -0.002 C 
HETATM    3  C3  UNL     1       0.687  -3.395 -11.972  1.00  0.00     0.021 C 
HETATM    4  C4  UNL     1      -0.481  -1.795 -13.501  1.00  0.00     0.133 C 
HETATM    5  N1  UNL     1      -0.337  -0.342 -13.636  1.00  0.00    -0.388 N 
ATOM      6  H1  UNL     1      -0.602   0.225 -14.441  1.00  0.00     0.159 HD
HETATM    7  C5  UNL     1       0.246   0.119 -12.422  1.00  0.00     0.037 A 
HETATM    8  C6  UNL     1       0.201   1.372 -11.822  1.00  0.00     0.067 A 
HETATM    9  C7  UNL     1       0.831   1.592 -10.632  1.00  0.00     0.083 A 
HETATM   10  C8  UNL     1       1.524   0.531 -10.027  1.00  0.00     0.066 A 
HETATM   11  C18 UNL     1       1.559  -0.705 -10.630  1.00  0.00     0.030 A 
HETATM   12  C19 UNL     1       0.917  -0.926 -11.844  1.00  0.00    -0.021 A 
ENDROOT
BRANCH  10  13
HETATM   13  C9  UNL     1       2.153   0.755  -8.747  1.00  0.00     0.257 C 
HETATM   14  O2  UNL     1       3.301   1.360  -8.794  1.00  0.00    -0.267 OA
HETATM   15  N2  UNL     1       1.701   0.410  -7.462  1.00  0.00    -0.339 N 
HETATM   16  C10 UNL     1       0.540  -0.282  -7.036  1.00  0.00     0.165 C 
HETATM   17  C17 UNL     1       2.458   0.801  -6.258  1.00  0.00     0.165 C 
HETATM   18  C11 UNL     1       0.818  -0.703  -5.626  1.00  0.00    -0.032 A 
HETATM   19  C12 UNL     1       0.128  -1.584  -4.801  1.00  0.00     0.009 A 
HETATM   20  C16 UNL     1       1.934  -0.067  -5.195  1.00  0.00    -0.032 A 
HETATM   21  C13 UNL     1       0.610  -1.793  -3.537  1.00  0.00     0.001 A 
HETATM   22  C14 UNL     1       1.742  -1.165  -3.062  1.00  0.00     0.001 A 
HETATM   23  C15 UNL     1       2.402  -0.299  -3.903  1.00  0.00     0.009 A 
ENDBRANCH  10  13
BRANCH   9  24
HETATM   24  O1  UNL     1       0.821   2.821  -9.989  1.00  0.00    -0.360 OA
ATOM     25  H1  UNL     1       0.845   2.909  -9.043  1.00  0.00     0.217 HD
ENDBRANCH   9  24
TORSDOF 2
ENDMDL
