MODEL 1
REMARK VINA RESULT: -9.962044131      0.000      0.000
REMARK  2 active torsions:
REMARK  status: ('A' for Active; 'I' for Inactive)
REMARK    1  A    between atoms: C7_9  and  O1_10 
REMARK    2  A    between atoms: C8_12  and  C9_13 
REMARK       I    between atoms: C9_13  and  N2_15 
ROOT
HETATM    1  C1  UNL     1       1.649  -1.561  -2.704  1.00  0.00     0.021 C 
HETATM    2  C2  UNL     1       1.176  -0.385  -3.529  1.00  0.00    -0.002 C 
HETATM    3  C3  UNL     1       2.291   0.234  -4.330  1.00  0.00     0.021 C 
HETATM    4  C4  UNL     1       0.493   0.614  -2.631  1.00  0.00     0.133 C 
HETATM    5  N1  UNL     1      -0.796  -0.062  -2.453  1.00  0.00    -0.388 N 
ATOM      6  H1  UNL     1      -1.360  -0.086  -1.604  1.00  0.00     0.159 HD
HETATM    7  C5  UNL     1      -1.102  -0.680  -3.699  1.00  0.00     0.037 A 
HETATM    8  C6  UNL     1      -2.326  -1.053  -4.241  1.00  0.00     0.067 A 
HETATM    9  C7  UNL     1      -2.389  -1.627  -5.477  1.00  0.00     0.083 A 
HETATM   10  C8  UNL     1      -1.196  -1.834  -6.188  1.00  0.00     0.066 A 
HETATM   11  C18 UNL     1       0.009  -1.459  -5.641  1.00  0.00     0.030 A 
HETATM   12  C19 UNL     1       0.070  -0.875  -4.381  1.00  0.00    -0.021 A 
ENDROOT
BRANCH  10  13
HETATM   13  C9  UNL     1      -1.270  -2.402  -7.514  1.00  0.00     0.257 C 
HETATM   14  O2  UNL     1      -1.476  -3.684  -7.555  1.00  0.00    -0.267 OA
HETATM   15  N2  UNL     1      -1.149  -1.766  -8.761  1.00  0.00    -0.339 N 
HETATM   16  C10 UNL     1      -0.883  -0.416  -9.098  1.00  0.00     0.165 C 
HETATM   17  C17 UNL     1      -1.336  -2.514 -10.019  1.00  0.00     0.165 C 
HETATM   18  C11 UNL     1      -0.464  -0.436 -10.536  1.00  0.00    -0.032 A 
HETATM   19  C12 UNL     1       0.112   0.561 -11.315  1.00  0.00     0.009 A 
HETATM   20  C16 UNL     1      -0.732  -1.661 -11.050  1.00  0.00    -0.032 A 
HETATM   21  C13 UNL     1       0.403   0.269 -12.621  1.00  0.00     0.001 A 
HETATM   22  C14 UNL     1       0.145  -0.965 -13.180  1.00  0.00     0.001 A 
HETATM   23  C15 UNL     1      -0.425  -1.929 -12.382  1.00  0.00     0.009 A 
ENDBRANCH  10  13
BRANCH   9  24
HETATM   24  O1  UNL     1      -3.581  -2.020  -6.067  1.00  0.00    -0.360 OA
ATOM     25  H1  UNL     1      -3.746  -2.909  -6.358  1.00  0.00     0.217 HD
ENDBRANCH   9  24
TORSDOF 2
ENDMDL
