MODEL 8
REMARK VINA RESULT: -7.366886204      5.218      7.039
REMARK  6 active torsions:
REMARK  status: ('A' for Active; 'I' for Inactive)
REMARK    1  A    between atoms: C2_2  and  C4_4 
REMARK    2  A    between atoms: C6_6  and  C7_7 
REMARK       I    between atoms: C7_7  and  N1_9 
REMARK    3  A    between atoms: C12_14  and  C13_15 
REMARK    4  A    between atoms: C13_15  and  N2_16 
REMARK    5  A    between atoms: C22_26  and  O2_27 
REMARK    6  A    between atoms: C24_30  and  O3_31 
ROOT
HETATM    1  C7  UNL     1      14.353  -4.397   4.361  1.00  0.00     0.257 C 
HETATM    2  O1  UNL     1      14.078  -5.471   3.703  1.00  0.00    -0.267 OA
HETATM    3  N1  UNL     1      13.954  -3.160   3.825  1.00  0.00    -0.339 N 
HETATM    4  C8  UNL     1      14.062  -1.818   4.317  1.00  0.00     0.165 C 
HETATM    5  C9  UNL     1      12.859  -1.148   3.668  1.00  0.00    -0.032 A 
HETATM    6  C10 UNL     1      12.219   0.028   4.014  1.00  0.00     0.010 A 
HETATM    7  C11 UNL     1      11.122   0.496   3.318  1.00  0.00     0.009 A 
HETATM    8  C12 UNL     1      10.683  -0.262   2.254  1.00  0.00    -0.030 A 
HETATM    9  C19 UNL     1      11.331  -1.432   1.922  1.00  0.00     0.018 A 
HETATM   10  C20 UNL     1      12.439  -1.912   2.619  1.00  0.00    -0.032 A 
HETATM   11  C21 UNL     1      13.306  -3.091   2.488  1.00  0.00     0.165 C 
ENDROOT
BRANCH   1  12
HETATM   12  C6  UNL     1      15.054  -4.586   5.607  1.00  0.00     0.066 A 
HETATM   13  C5  UNL     1      14.514  -4.128   6.805  1.00  0.00     0.030 A 
HETATM   14  C4  UNL     1      15.158  -4.198   8.027  1.00  0.00    -0.020 A 
HETATM   15  C24 UNL     1      16.411  -4.762   8.020  1.00  0.00     0.075 A 
HETATM   16  C23 UNL     1      16.978  -5.222   6.867  1.00  0.00     0.074 A 
HETATM   17  C22 UNL     1      16.322  -5.151   5.632  1.00  0.00     0.084 A 
BRANCH  14  18
HETATM   18  C2  UNL     1      14.544  -3.699   9.279  1.00  0.00     0.013 C 
HETATM   19  C1  UNL     1      13.898  -2.357   9.098  1.00  0.00     0.015 C 
HETATM   20  C3  UNL     1      13.531  -4.699   9.771  1.00  0.00     0.015 C 
ENDBRANCH  14  18
BRANCH  15  21
HETATM   21  O3  UNL     1      17.081  -4.844   9.236  1.00  0.00    -0.360 OA
ATOM     22  H3  UNL     1      17.913  -4.391   9.307  1.00  0.00     0.217 HD
ENDBRANCH  15  21
BRANCH  17  23
HETATM   23  O2  UNL     1      16.935  -5.631   4.521  1.00  0.00    -0.360 OA
ATOM     24  H2  UNL     1      17.529  -5.109   3.994  1.00  0.00     0.217 HD
ENDBRANCH  17  23
ENDBRANCH   1  12
BRANCH   8  25
HETATM   25  C13 UNL     1       9.525   0.163   1.461  1.00  0.00     0.311 C 
BRANCH  25  26
HETATM   26  N2  UNL     1       8.498  -0.822   1.318  1.00  0.00     0.096 N 
HETATM   27  C14 UNL     1       7.604  -0.526   0.207  1.00  0.00     0.303 C 
HETATM   28  C15 UNL     1       6.629  -1.669   0.091  1.00  0.00     0.302 C 
HETATM   29  N3  UNL     1       5.758  -1.703   1.227  1.00  0.00     0.087 N 
HETATM   30  C16 UNL     1       5.575  -3.062   1.724  1.00  0.00     0.310 C 
HETATM   31  C17 UNL     1       6.225  -0.816   2.275  1.00  0.00     0.302 C 
HETATM   32  C18 UNL     1       7.705  -0.993   2.517  1.00  0.00     0.303 C 
ENDBRANCH  25  26
ENDBRANCH   8  25
TORSDOF 6
ENDMDL
