MODEL 9
REMARK VINA RESULT: -7.340033711      5.663      7.167
REMARK  6 active torsions:
REMARK  status: ('A' for Active; 'I' for Inactive)
REMARK    1  A    between atoms: C2_2  and  C4_4 
REMARK    2  A    between atoms: C6_6  and  C7_7 
REMARK       I    between atoms: C7_7  and  N1_9 
REMARK    3  A    between atoms: C12_14  and  C13_15 
REMARK    4  A    between atoms: C13_15  and  N2_16 
REMARK    5  A    between atoms: C22_26  and  O2_27 
REMARK    6  A    between atoms: C24_30  and  O3_31 
ROOT
HETATM    1  C7  UNL     1      13.751  -1.236   6.216  1.00  0.00     0.257 C 
HETATM    2  O1  UNL     1      14.260  -2.313   5.722  1.00  0.00    -0.267 OA
HETATM    3  N1  UNL     1      13.073  -0.357   5.355  1.00  0.00    -0.339 N 
HETATM    4  C8  UNL     1      12.370   0.870   5.590  1.00  0.00     0.165 C 
HETATM    5  C9  UNL     1      11.338   0.860   4.471  1.00  0.00    -0.032 A 
HETATM    6  C10 UNL     1      10.160   1.576   4.360  1.00  0.00     0.010 A 
HETATM    7  C11 UNL     1       9.322   1.443   3.270  1.00  0.00     0.009 A 
HETATM    8  C12 UNL     1       9.709   0.558   2.286  1.00  0.00    -0.030 A 
HETATM    9  C19 UNL     1      10.886  -0.147   2.411  1.00  0.00     0.018 A 
HETATM   10  C20 UNL     1      11.737  -0.019   3.508  1.00  0.00    -0.032 A 
HETATM   11  C21 UNL     1      13.020  -0.624   3.892  1.00  0.00     0.165 C 
ENDROOT
BRANCH   1  12
HETATM   12  C6  UNL     1      13.935  -1.048   7.634  1.00  0.00     0.066 A 
HETATM   13  C5  UNL     1      13.290  -1.872   8.552  1.00  0.00     0.030 A 
HETATM   14  C4  UNL     1      13.351  -1.707   9.924  1.00  0.00    -0.020 A 
HETATM   15  C24 UNL     1      14.104  -0.650  10.374  1.00  0.00     0.075 A 
HETATM   16  C23 UNL     1      14.751   0.182   9.509  1.00  0.00     0.074 A 
HETATM   17  C22 UNL     1      14.690   0.011   8.120  1.00  0.00     0.084 A 
BRANCH  14  18
HETATM   18  C2  UNL     1      12.649  -2.611  10.864  1.00  0.00     0.013 C 
HETATM   19  C1  UNL     1      11.197  -2.261  11.009  1.00  0.00     0.015 C 
HETATM   20  C3  UNL     1      12.794  -4.033  10.392  1.00  0.00     0.015 C 
ENDBRANCH  14  18
BRANCH  15  21
HETATM   21  O3  UNL     1      14.181  -0.462  11.750  1.00  0.00    -0.360 OA
ATOM     22  H3  UNL     1      14.792   0.194  12.067  1.00  0.00     0.217 HD
ENDBRANCH  15  21
BRANCH  17  23
HETATM   23  O2  UNL     1      15.360   0.869   7.310  1.00  0.00    -0.360 OA
ATOM     24  H2  UNL     1      16.206   1.238   7.538  1.00  0.00     0.217 HD
ENDBRANCH  17  23
ENDBRANCH   1  12
BRANCH   8  25
HETATM   25  C13 UNL     1       8.878   0.356   1.095  1.00  0.00     0.311 C 
BRANCH  25  26
HETATM   26  N2  UNL     1       8.102  -0.845   1.097  1.00  0.00     0.096 N 
HETATM   27  C14 UNL     1       7.317  -0.995  -0.120  1.00  0.00     0.303 C 
HETATM   28  C15 UNL     1       6.620  -2.329  -0.050  1.00  0.00     0.302 C 
HETATM   29  N3  UNL     1       5.635  -2.327   0.990  1.00  0.00     0.087 N 
HETATM   30  C16 UNL     1       5.671  -3.560   1.767  1.00  0.00     0.310 C 
HETATM   31  C17 UNL     1       5.771  -1.161   1.841  1.00  0.00     0.302 C 
HETATM   32  C18 UNL     1       7.212  -0.942   2.236  1.00  0.00     0.303 C 
ENDBRANCH  25  26
ENDBRANCH   8  25
TORSDOF 6
ENDMDL
