MODEL 7
REMARK VINA RESULT: -7.376573737      6.185     10.206
REMARK  6 active torsions:
REMARK  status: ('A' for Active; 'I' for Inactive)
REMARK    1  A    between atoms: C2_2  and  C4_4 
REMARK    2  A    between atoms: C6_6  and  C7_7 
REMARK       I    between atoms: C7_7  and  N1_9 
REMARK    3  A    between atoms: C12_14  and  C13_15 
REMARK    4  A    between atoms: C13_15  and  N2_16 
REMARK    5  A    between atoms: C22_26  and  O2_27 
REMARK    6  A    between atoms: C24_30  and  O3_31 
ROOT
HETATM    1  C7  UNL     1      10.968   1.551   4.307  1.00  0.00     0.257 C 
HETATM    2  O1  UNL     1      10.258   2.500   4.815  1.00  0.00    -0.267 OA
HETATM    3  N1  UNL     1      12.086   1.091   5.024  1.00  0.00    -0.339 N 
HETATM    4  C8  UNL     1      13.030   0.043   4.766  1.00  0.00     0.165 C 
HETATM    5  C9  UNL     1      13.441  -0.363   6.174  1.00  0.00    -0.032 A 
HETATM    6  C10 UNL     1      14.047  -1.527   6.608  1.00  0.00     0.010 A 
HETATM    7  C11 UNL     1      14.347  -1.744   7.938  1.00  0.00     0.009 A 
HETATM    8  C12 UNL     1      14.017  -0.744   8.828  1.00  0.00    -0.030 A 
HETATM    9  C19 UNL     1      13.414   0.411   8.380  1.00  0.00     0.018 A 
HETATM   10  C20 UNL     1      13.106   0.638   7.039  1.00  0.00    -0.032 A 
HETATM   11  C21 UNL     1      12.487   1.745   6.298  1.00  0.00     0.165 C 
ENDROOT
BRANCH   1  12
HETATM   12  C6  UNL     1      10.524   1.050   3.029  1.00  0.00     0.066 A 
HETATM   13  C5  UNL     1      11.259   1.294   1.873  1.00  0.00     0.030 A 
HETATM   14  C4  UNL     1      10.862   0.919   0.603  1.00  0.00    -0.020 A 
HETATM   15  C24 UNL     1       9.657   0.265   0.514  1.00  0.00     0.075 A 
HETATM   16  C23 UNL     1       8.904   0.007   1.622  1.00  0.00     0.074 A 
HETATM   17  C22 UNL     1       9.310   0.387   2.907  1.00  0.00     0.084 A 
BRANCH  14  18
HETATM   18  C2  UNL     1      11.679   1.199  -0.600  1.00  0.00     0.013 C 
HETATM   19  C1  UNL     1      12.228   2.595  -0.601  1.00  0.00     0.015 C 
HETATM   20  C3  UNL     1      12.803   0.200  -0.683  1.00  0.00     0.015 C 
ENDBRANCH  14  18
BRANCH  15  21
HETATM   21  O3  UNL     1       9.233  -0.122  -0.753  1.00  0.00    -0.360 OA
ATOM     22  H3  UNL     1       8.299  -0.094  -0.928  1.00  0.00     0.217 HD
ENDBRANCH  15  21
BRANCH  17  23
HETATM   23  O2  UNL     1       8.520   0.097   3.971  1.00  0.00    -0.360 OA
ATOM     24  H2  UNL     1       7.907  -0.629   3.974  1.00  0.00     0.217 HD
ENDBRANCH  17  23
ENDBRANCH   1  12
BRANCH   8  25
HETATM   25  C13 UNL     1      14.301  -0.893  10.259  1.00  0.00     0.311 C 
BRANCH  25  26
HETATM   26  N2  UNL     1      13.425  -1.779  10.959  1.00  0.00     0.096 N 
HETATM   27  C14 UNL     1      13.228  -3.034  10.247  1.00  0.00     0.303 C 
HETATM   28  C15 UNL     1      12.373  -3.920  11.116  1.00  0.00     0.302 C 
HETATM   29  N3  UNL     1      11.050  -3.384  11.231  1.00  0.00     0.087 N 
HETATM   30  C16 UNL     1      10.558  -3.456  12.601  1.00  0.00     0.310 C 
HETATM   31  C17 UNL     1      10.984  -2.031  10.715  1.00  0.00     0.302 C 
HETATM   32  C18 UNL     1      12.129  -1.195  11.235  1.00  0.00     0.303 C 
ENDBRANCH  25  26
ENDBRANCH   8  25
TORSDOF 6
ENDMDL
