MODEL 2
REMARK VINA RESULT: -10.118275776      2.785      3.868
REMARK  6 active torsions:
REMARK  status: ('A' for Active; 'I' for Inactive)
REMARK    1  A    between atoms: C2_2  and  C4_15 
REMARK    2  A    between atoms: N1_3  and  N2_5 
REMARK       I    between atoms: N2_5  and  C3_7 
REMARK       I    between atoms: C3_7  and  N4_11 
REMARK    3  A    between atoms: N4_11  and  O1_13 
REMARK    4  A    between atoms: C7_18  and  N5_19 
REMARK       I    between atoms: N5_19  and  C8_21 
REMARK    5  A    between atoms: C8_21  and  C9_23 
REMARK    6  A    between atoms: C15_29  and  N6_30 
ROOT
HETATM    1  C4  UNL     1     -47.535  12.375 -13.159  1.00  0.00    -0.012 A 
HETATM    2  C5  UNL     1     -48.501  12.310 -12.142  1.00  0.00     0.015 A 
HETATM    3  C6  UNL     1     -48.426  13.157 -11.054  1.00  0.00     0.030 A 
HETATM    4  C7  UNL     1     -47.440  14.082 -10.903  1.00  0.00     0.035 A 
HETATM    5  C17 UNL     1     -46.498  14.131 -11.914  1.00  0.00     0.030 A 
HETATM    6  C18 UNL     1     -46.535  13.293 -13.033  1.00  0.00     0.015 A 
ENDROOT
BRANCH   4   7
HETATM    7  N5  UNL     1     -47.296  14.980  -9.821  1.00  0.00    -0.322 N 
HETATM    8  C8  UNL     1     -47.957  14.930  -8.584  1.00  0.00     0.272 C 
HETATM    9  O2  UNL     1     -48.777  14.013  -8.349  1.00  0.00    -0.266 OA
ATOM     10  H5  UNL     1     -46.639  15.748  -9.954  1.00  0.00     0.169 HD
BRANCH   8  11
HETATM   11  C9  UNL     1     -47.683  15.964  -7.551  1.00  0.00     0.102 A 
HETATM   12  C10 UNL     1     -46.768  16.985  -7.691  1.00  0.00     0.049 A 
HETATM   13  C11 UNL     1     -46.768  17.765  -6.538  1.00  0.00    -0.005 A 
HETATM   14  C12 UNL     1     -46.077  18.886  -6.129  1.00  0.00     0.014 A 
HETATM   15  C16 UNL     1     -47.716  17.167  -5.716  1.00  0.00     0.076 A 
HETATM   16  C13 UNL     1     -46.302  19.449  -4.892  1.00  0.00     0.003 A 
HETATM   17  C14 UNL     1     -47.244  18.868  -4.054  1.00  0.00     0.038 A 
HETATM   18  C15 UNL     1     -47.926  17.748  -4.482  1.00  0.00     0.130 A 
HETATM   19  N7  UNL     1     -48.241  16.094  -6.357  1.00  0.00    -0.349 N 
ATOM     20  H7  UNL     1     -48.958  15.478  -5.975  1.00  0.00     0.166 HD
BRANCH  18  21
HETATM   21  N6  UNL     1     -48.888  17.169  -3.604  1.00  0.00    -0.113 N 
HETATM   22  O3  UNL     1     -49.196  17.748  -2.545  1.00  0.00    -0.532 OA
HETATM   23  O4  UNL     1     -49.504  15.964  -3.894  1.00  0.00    -0.532 OA
ENDBRANCH  18  21
ENDBRANCH   8  11
ENDBRANCH   4   7
BRANCH   1  24
HETATM   24  C2  UNL     1     -47.625  11.485 -14.291  1.00  0.00     0.032 C 
HETATM   25  C1  UNL     1     -48.181  10.097 -14.003  1.00  0.00     0.070 C 
HETATM   26  N1  UNL     1     -47.310  11.691 -15.484  1.00  0.00    -0.290 N 
ATOM     27  H1  UNL     1     -47.479  10.886 -16.086  1.00  0.00     0.187 HD
BRANCH  26  28
HETATM   28  N2  UNL     1     -46.792  12.755 -16.154  1.00  0.00    -0.131 N 
HETATM   29  C3  UNL     1     -46.645  12.774 -17.583  1.00  0.00     0.710 C 
HETATM   30  N3  UNL     1     -46.600  11.650 -18.204  1.00  0.00    -0.232 N 
HETATM   31  N4  UNL     1     -46.552  14.000 -18.298  1.00  0.00    -0.098 N 
ATOM     32  H32 UNL     1     -46.667  10.770 -17.692  1.00  0.00     0.174 HD
ATOM     33  H31 UNL     1     -46.496  11.664 -19.219  1.00  0.00     0.174 HD
ATOM     34  H4  UNL     1     -46.380  14.878 -17.808  1.00  0.00     0.213 HD
ATOM     35  H2  UNL     1     -46.495  13.571 -15.620  1.00  0.00     0.205 HD
BRANCH  31  36
HETATM   36  O1  UNL     1     -46.696  13.974 -19.635  1.00  0.00    -0.276 OA
ATOM     37  H1  UNL     1     -46.088  14.475 -20.164  1.00  0.00     0.245 HD
ENDBRANCH  31  36
ENDBRANCH  26  28
ENDBRANCH   1  24
TORSDOF 6
ENDMDL
