MODEL 6
REMARK VINA RESULT: -9.991237715      3.069      4.102
REMARK  6 active torsions:
REMARK  status: ('A' for Active; 'I' for Inactive)
REMARK    1  A    between atoms: C2_2  and  C4_15 
REMARK    2  A    between atoms: N1_3  and  N2_5 
REMARK       I    between atoms: N2_5  and  C3_7 
REMARK       I    between atoms: C3_7  and  N4_11 
REMARK    3  A    between atoms: N4_11  and  O1_13 
REMARK    4  A    between atoms: C7_18  and  N5_19 
REMARK       I    between atoms: N5_19  and  C8_21 
REMARK    5  A    between atoms: C8_21  and  C9_23 
REMARK    6  A    between atoms: C15_29  and  N6_30 
ROOT
HETATM    1  C4  UNL     1     -46.186  14.875 -10.481  1.00  0.00    -0.012 A 
HETATM    2  C5  UNL     1     -47.279  14.403  -9.738  1.00  0.00     0.015 A 
HETATM    3  C6  UNL     1     -47.628  15.009  -8.547  1.00  0.00     0.030 A 
HETATM    4  C7  UNL     1     -46.953  16.073  -8.034  1.00  0.00     0.035 A 
HETATM    5  C17 UNL     1     -45.879  16.524  -8.779  1.00  0.00     0.030 A 
HETATM    6  C18 UNL     1     -45.491  15.940  -9.989  1.00  0.00     0.015 A 
ENDROOT
BRANCH   4   7
HETATM    7  N5  UNL     1     -47.248  16.744  -6.825  1.00  0.00    -0.322 N 
HETATM    8  C8  UNL     1     -47.752  16.180  -5.643  1.00  0.00     0.272 C 
HETATM    9  O2  UNL     1     -47.987  14.951  -5.587  1.00  0.00    -0.266 OA
ATOM     10  H5  UNL     1     -47.075  17.749  -6.811  1.00  0.00     0.169 HD
BRANCH   8  11
HETATM   11  C9  UNL     1     -48.006  17.040  -4.457  1.00  0.00     0.102 A 
HETATM   12  C10 UNL     1     -49.106  16.931  -3.634  1.00  0.00     0.049 A 
HETATM   13  C11 UNL     1     -49.025  17.889  -2.627  1.00  0.00    -0.005 A 
HETATM   14  C12 UNL     1     -49.819  18.234  -1.554  1.00  0.00     0.014 A 
HETATM   15  C16 UNL     1     -47.838  18.565  -2.887  1.00  0.00     0.076 A 
HETATM   16  C13 UNL     1     -49.465  19.260  -0.706  1.00  0.00     0.003 A 
HETATM   17  C14 UNL     1     -48.283  19.949  -0.947  1.00  0.00     0.038 A 
HETATM   18  C15 UNL     1     -47.502  19.588  -2.024  1.00  0.00     0.130 A 
HETATM   19  N7  UNL     1     -47.258  18.028  -3.988  1.00  0.00    -0.349 N 
ATOM     20  H7  UNL     1     -46.377  18.339  -4.396  1.00  0.00     0.166 HD
BRANCH  18  21
HETATM   21  N6  UNL     1     -46.294  20.309  -2.252  1.00  0.00    -0.113 N 
HETATM   22  O3  UNL     1     -45.530  20.565  -1.301  1.00  0.00    -0.532 OA
HETATM   23  O4  UNL     1     -45.933  20.744  -3.515  1.00  0.00    -0.532 OA
ENDBRANCH  18  21
ENDBRANCH   8  11
ENDBRANCH   4   7
BRANCH   1  24
HETATM   24  C2  UNL     1     -45.832  14.233 -11.724  1.00  0.00     0.032 C 
HETATM   25  C1  UNL     1     -46.940  13.436 -12.398  1.00  0.00     0.070 C 
HETATM   26  N1  UNL     1     -44.739  14.238 -12.331  1.00  0.00    -0.290 N 
ATOM     27  H1  UNL     1     -44.762  13.700 -13.197  1.00  0.00     0.187 HD
BRANCH  26  28
HETATM   28  N2  UNL     1     -43.526  14.803 -12.090  1.00  0.00    -0.131 N 
HETATM   29  C3  UNL     1     -43.107  16.031 -12.707  1.00  0.00     0.710 C 
HETATM   30  N3  UNL     1     -43.679  16.387 -13.802  1.00  0.00    -0.232 N 
HETATM   31  N4  UNL     1     -42.088  16.837 -12.128  1.00  0.00    -0.098 N 
ATOM     32  H32 UNL     1     -44.410  15.810 -14.217  1.00  0.00     0.174 HD
ATOM     33  H31 UNL     1     -43.381  17.260 -14.239  1.00  0.00     0.174 HD
ATOM     34  H4  UNL     1     -41.492  16.470 -11.386  1.00  0.00     0.213 HD
ATOM     35  H2  UNL     1     -42.889  14.337 -11.446  1.00  0.00     0.205 HD
BRANCH  31  36
HETATM   36  O1  UNL     1     -41.930  18.093 -12.582  1.00  0.00    -0.276 OA
ATOM     37  H1  UNL     1     -41.687  18.770 -11.962  1.00  0.00     0.245 HD
ENDBRANCH  31  36
ENDBRANCH  26  28
ENDBRANCH   1  24
TORSDOF 6
ENDMDL
