MODEL 8
REMARK VINA RESULT: -9.950079420      3.269     10.949
REMARK  6 active torsions:
REMARK  status: ('A' for Active; 'I' for Inactive)
REMARK    1  A    between atoms: C2_2  and  C4_15 
REMARK    2  A    between atoms: N1_3  and  N2_5 
REMARK       I    between atoms: N2_5  and  C3_7 
REMARK       I    between atoms: C3_7  and  N4_11 
REMARK    3  A    between atoms: N4_11  and  O1_13 
REMARK    4  A    between atoms: C7_18  and  N5_19 
REMARK       I    between atoms: N5_19  and  C8_21 
REMARK    5  A    between atoms: C8_21  and  C9_23 
REMARK    6  A    between atoms: C15_29  and  N6_30 
ROOT
HETATM    1  C4  UNL     1     -47.639  19.388  -2.555  1.00  0.00    -0.012 A 
HETATM    2  C5  UNL     1     -48.504  18.295  -2.716  1.00  0.00     0.015 A 
HETATM    3  C6  UNL     1     -48.520  17.586  -3.901  1.00  0.00     0.030 A 
HETATM    4  C7  UNL     1     -47.719  17.892  -4.957  1.00  0.00     0.035 A 
HETATM    5  C17 UNL     1     -46.873  18.972  -4.780  1.00  0.00     0.030 A 
HETATM    6  C18 UNL     1     -46.825  19.718  -3.598  1.00  0.00     0.015 A 
ENDROOT
BRANCH   4   7
HETATM    7  N5  UNL     1     -47.678  17.217  -6.198  1.00  0.00    -0.322 N 
HETATM    8  C8  UNL     1     -47.290  15.888  -6.428  1.00  0.00     0.272 C 
HETATM    9  O2  UNL     1     -46.930  15.166  -5.469  1.00  0.00    -0.266 OA
ATOM     10  H5  UNL     1     -47.962  17.755  -7.016  1.00  0.00     0.169 HD
BRANCH   8  11
HETATM   11  C9  UNL     1     -47.307  15.335  -7.808  1.00  0.00     0.102 A 
HETATM   12  C10 UNL     1     -48.232  14.425  -8.274  1.00  0.00     0.049 A 
HETATM   13  C11 UNL     1     -47.952  14.124  -9.604  1.00  0.00    -0.005 A 
HETATM   14  C12 UNL     1     -48.526  13.303 -10.551  1.00  0.00     0.014 A 
HETATM   15  C16 UNL     1     -46.829  14.888  -9.903  1.00  0.00     0.076 A 
HETATM   16  C13 UNL     1     -48.006  13.212 -11.824  1.00  0.00     0.003 A 
HETATM   17  C14 UNL     1     -46.886  13.966 -12.144  1.00  0.00     0.038 A 
HETATM   18  C15 UNL     1     -46.326  14.782 -11.183  1.00  0.00     0.130 A 
HETATM   19  N7  UNL     1     -46.474  15.598  -8.804  1.00  0.00    -0.349 N 
ATOM     20  H7  UNL     1     -45.683  16.240  -8.752  1.00  0.00     0.166 HD
BRANCH  18  21
HETATM   21  N6  UNL     1     -45.177  15.546 -11.536  1.00  0.00    -0.113 N 
HETATM   22  O3  UNL     1     -44.172  15.542 -10.798  1.00  0.00    -0.532 OA
HETATM   23  O4  UNL     1     -45.135  16.307 -12.691  1.00  0.00    -0.532 OA
ENDBRANCH  18  21
ENDBRANCH   8  11
ENDBRANCH   4   7
BRANCH   1  24
HETATM   24  C2  UNL     1     -47.631  20.120  -1.312  1.00  0.00     0.032 C 
HETATM   25  C1  UNL     1     -48.863  19.950  -0.433  1.00  0.00     0.070 C 
HETATM   26  N1  UNL     1     -46.752  20.881  -0.849  1.00  0.00    -0.290 N 
ATOM     27  H1  UNL     1     -47.002  21.272   0.059  1.00  0.00     0.187 HD
BRANCH  26  28
HETATM   28  N2  UNL     1     -45.537  21.299  -1.291  1.00  0.00    -0.131 N 
HETATM   29  C3  UNL     1     -44.304  20.723  -0.831  1.00  0.00     0.710 C 
HETATM   30  N3  UNL     1     -44.304  20.112   0.300  1.00  0.00    -0.232 N 
HETATM   31  N4  UNL     1     -43.112  20.823  -1.600  1.00  0.00    -0.098 N 
ATOM     32  H32 UNL     1     -45.159  20.040   0.851  1.00  0.00     0.174 HD
ATOM     33  H31 UNL     1     -43.428  19.702   0.626  1.00  0.00     0.174 HD
ATOM     34  H4  UNL     1     -43.049  21.472  -2.384  1.00  0.00     0.213 HD
ATOM     35  H2  UNL     1     -45.499  22.053  -1.977  1.00  0.00     0.205 HD
BRANCH  31  36
HETATM   36  O1  UNL     1     -42.069  20.041  -1.268  1.00  0.00    -0.276 OA
ATOM     37  H1  UNL     1     -41.957  19.218  -1.729  1.00  0.00     0.245 HD
ENDBRANCH  31  36
ENDBRANCH  26  28
ENDBRANCH   1  24
TORSDOF 6
ENDMDL
