MODEL 4
REMARK VINA RESULT: -10.020321449      3.421     11.428
REMARK  6 active torsions:
REMARK  status: ('A' for Active; 'I' for Inactive)
REMARK    1  A    between atoms: C2_2  and  C4_15 
REMARK    2  A    between atoms: N1_3  and  N2_5 
REMARK       I    between atoms: N2_5  and  C3_7 
REMARK       I    between atoms: C3_7  and  N4_11 
REMARK    3  A    between atoms: N4_11  and  O1_13 
REMARK    4  A    between atoms: C7_18  and  N5_19 
REMARK       I    between atoms: N5_19  and  C8_21 
REMARK    5  A    between atoms: C8_21  and  C9_23 
REMARK    6  A    between atoms: C15_29  and  N6_30 
ROOT
HETATM    1  C4  UNL     1     -47.463  19.872  -2.054  1.00  0.00    -0.012 A 
HETATM    2  C5  UNL     1     -48.309  18.754  -2.097  1.00  0.00     0.015 A 
HETATM    3  C6  UNL     1     -48.411  17.999  -3.249  1.00  0.00     0.030 A 
HETATM    4  C7  UNL     1     -47.716  18.284  -4.383  1.00  0.00     0.035 A 
HETATM    5  C17 UNL     1     -46.888  19.389  -4.322  1.00  0.00     0.030 A 
HETATM    6  C18 UNL     1     -46.755  20.182  -3.177  1.00  0.00     0.015 A 
ENDROOT
BRANCH   4   7
HETATM    7  N5  UNL     1     -47.768  17.563  -5.597  1.00  0.00    -0.322 N 
HETATM    8  C8  UNL     1     -47.001  16.441  -5.951  1.00  0.00     0.272 C 
HETATM    9  O2  UNL     1     -46.163  15.977  -5.144  1.00  0.00    -0.266 OA
ATOM     10  H5  UNL     1     -48.435  17.894  -6.294  1.00  0.00     0.169 HD
BRANCH   8  11
HETATM   11  C9  UNL     1     -47.186  15.801  -7.280  1.00  0.00     0.102 A 
HETATM   12  C10 UNL     1     -48.214  14.940  -7.597  1.00  0.00     0.049 A 
HETATM   13  C11 UNL     1     -48.081  14.531  -8.921  1.00  0.00    -0.005 A 
HETATM   14  C12 UNL     1     -48.799  13.698  -9.753  1.00  0.00     0.014 A 
HETATM   15  C16 UNL     1     -46.937  15.181  -9.370  1.00  0.00     0.076 A 
HETATM   16  C13 UNL     1     -48.406  13.482 -11.056  1.00  0.00     0.003 A 
HETATM   17  C14 UNL     1     -47.267  14.121 -11.526  1.00  0.00     0.038 A 
HETATM   18  C15 UNL     1     -46.563  14.951 -10.679  1.00  0.00     0.130 A 
HETATM   19  N7  UNL     1     -46.431  15.931  -8.361  1.00  0.00    -0.349 N 
ATOM     20  H7  UNL     1     -45.593  16.509  -8.424  1.00  0.00     0.166 HD
BRANCH  18  21
HETATM   21  N6  UNL     1     -45.397  15.596 -11.184  1.00  0.00    -0.113 N 
HETATM   22  O3  UNL     1     -44.328  15.543 -10.546  1.00  0.00    -0.532 OA
HETATM   23  O4  UNL     1     -45.411  16.291 -12.380  1.00  0.00    -0.532 OA
ENDBRANCH  18  21
ENDBRANCH   8  11
ENDBRANCH   4   7
BRANCH   1  24
HETATM   24  C2  UNL     1     -47.365  20.652  -0.843  1.00  0.00     0.032 C 
HETATM   25  C1  UNL     1     -48.662  21.280  -0.352  1.00  0.00     0.070 C 
HETATM   26  N1  UNL     1     -46.361  20.887  -0.135  1.00  0.00    -0.290 N 
ATOM     27  H1  UNL     1     -46.572  21.471   0.674  1.00  0.00     0.187 HD
BRANCH  26  28
HETATM   28  N2  UNL     1     -45.050  20.535  -0.208  1.00  0.00    -0.131 N 
HETATM   29  C3  UNL     1     -44.122  20.777   0.861  1.00  0.00     0.710 C 
HETATM   30  N3  UNL     1     -44.404  21.698   1.714  1.00  0.00    -0.232 N 
HETATM   31  N4  UNL     1     -42.921  20.025   0.980  1.00  0.00    -0.098 N 
ATOM     32  H32 UNL     1     -45.265  22.237   1.629  1.00  0.00     0.174 HD
ATOM     33  H31 UNL     1     -43.745  21.869   2.473  1.00  0.00     0.174 HD
ATOM     34  H4  UNL     1     -42.589  19.446   0.208  1.00  0.00     0.213 HD
ATOM     35  H2  UNL     1     -44.712  20.080  -1.056  1.00  0.00     0.205 HD
BRANCH  31  36
HETATM   36  O1  UNL     1     -42.234  20.095   2.134  1.00  0.00    -0.276 OA
ATOM     37  H1  UNL     1     -41.659  19.373   2.361  1.00  0.00     0.245 HD
ENDBRANCH  31  36
ENDBRANCH  26  28
ENDBRANCH   1  24
TORSDOF 6
ENDMDL
