MODEL 1
REMARK VINA RESULT: -6.848884133      0.000      0.000
REMARK  5 active torsions:
REMARK  status: ('A' for Active; 'I' for Inactive)
REMARK       I    between atoms: C2_2  and  N1_4 
REMARK    1  A    between atoms: N1_4  and  C3_6 
REMARK    2  A    between atoms: C5_11  and  C6_12 
REMARK    3  A    between atoms: C6_12  and  O3_13 
REMARK    4  A    between atoms: C7_15  and  O4_16 
REMARK    5  A    between atoms: C8_18  and  O5_19 
ROOT
HETATM    1  C3  UNL     1       5.532 -13.628   1.823  1.00  0.00     0.207 C 
HETATM    2  C4  UNL     1       6.495 -14.059   2.877  1.00  0.00     0.243 C 
HETATM    3  O2  UNL     1       6.297 -15.130   3.511  1.00  0.00    -0.271 OA
HETATM    4  N2  UNL     1       7.620 -13.240   3.138  1.00  0.00    -0.350 N 
ATOM      5  H2  UNL     1       8.483 -13.644   3.501  1.00  0.00     0.163 HD
HETATM    6  C5  UNL     1       7.524 -11.824   2.882  1.00  0.00     0.139 C 
HETATM    7  C7  UNL     1       6.058 -11.452   2.964  1.00  0.00     0.174 C 
HETATM    8  C8  UNL     1       5.235 -12.148   1.919  1.00  0.00     0.180 C 
ENDROOT
BRANCH   1   9
HETATM    9  N1  UNL     1       6.183 -13.848   0.550  1.00  0.00    -0.346 N 
HETATM   10  C2  UNL     1       5.897 -15.010  -0.212  1.00  0.00     0.214 C 
HETATM   11  C1  UNL     1       6.575 -15.215  -1.512  1.00  0.00     0.117 C 
HETATM   12  O1  UNL     1       5.062 -15.842   0.254  1.00  0.00    -0.274 OA
ATOM     13  H1  UNL     1       6.852 -13.164   0.198  1.00  0.00     0.163 HD
ENDBRANCH   1   9
BRANCH   8  14
HETATM   14  O5  UNL     1       3.887 -12.000   2.299  1.00  0.00    -0.390 OA
ATOM     15  H5  UNL     1       3.575 -11.172   1.955  1.00  0.00     0.210 HD
ENDBRANCH   8  14
BRANCH   7  16
HETATM   16  O4  UNL     1       5.915 -10.080   2.775  1.00  0.00    -0.391 OA
ATOM     17  H4  UNL     1       4.992  -9.860   2.736  1.00  0.00     0.210 HD
ENDBRANCH   7  16
BRANCH   6  18
HETATM   18  C6  UNL     1       8.227 -11.021   3.980  1.00  0.00     0.191 C 
BRANCH  18  19
HETATM   19  O3  UNL     1       8.214 -11.733   5.176  1.00  0.00    -0.399 OA
ATOM     20  H3  UNL     1       9.040 -11.621   5.632  1.00  0.00     0.209 HD
ENDBRANCH  18  19
ENDBRANCH   6  18
TORSDOF 5
ENDMDL
