MODEL 2
REMARK VINA RESULT: -6.755307543      1.851      2.335
REMARK  5 active torsions:
REMARK  status: ('A' for Active; 'I' for Inactive)
REMARK       I    between atoms: C2_2  and  N1_4 
REMARK    1  A    between atoms: N1_4  and  C3_6 
REMARK    2  A    between atoms: C5_11  and  C6_12 
REMARK    3  A    between atoms: C6_12  and  O3_13 
REMARK    4  A    between atoms: C7_15  and  O4_16 
REMARK    5  A    between atoms: C8_18  and  O5_19 
ROOT
HETATM    1  C3  UNL     1       6.131 -12.150   1.628  1.00  0.00     0.207 C 
HETATM    2  C4  UNL     1       5.274 -12.156   2.849  1.00  0.00     0.243 C 
HETATM    3  O2  UNL     1       4.019 -12.186   2.738  1.00  0.00    -0.271 OA
HETATM    4  N2  UNL     1       5.906 -12.127   4.116  1.00  0.00    -0.350 N 
ATOM      5  H2  UNL     1       5.451 -12.537   4.932  1.00  0.00     0.163 HD
HETATM    6  C5  UNL     1       7.204 -11.509   4.233  1.00  0.00     0.139 C 
HETATM    7  C7  UNL     1       7.324 -10.504   3.106  1.00  0.00     0.174 C 
HETATM    8  C8  UNL     1       7.263 -11.156   1.755  1.00  0.00     0.180 C 
ENDROOT
BRANCH   1   9
HETATM    9  N1  UNL     1       6.728 -13.464   1.534  1.00  0.00    -0.346 N 
HETATM   10  C2  UNL     1       6.044 -14.518   0.875  1.00  0.00     0.214 C 
HETATM   11  C1  UNL     1       6.674 -15.855   0.789  1.00  0.00     0.117 C 
HETATM   12  O1  UNL     1       4.905 -14.275   0.378  1.00  0.00    -0.274 OA
ATOM     13  H1  UNL     1       7.646 -13.634   1.943  1.00  0.00     0.163 HD
ENDBRANCH   1   9
BRANCH   8  14
HETATM   14  O5  UNL     1       7.044 -10.127   0.818  1.00  0.00    -0.390 OA
ATOM     15  H5  UNL     1       7.888  -9.763   0.580  1.00  0.00     0.210 HD
ENDBRANCH   8  14
BRANCH   7  16
HETATM   16  O4  UNL     1       8.544  -9.840   3.204  1.00  0.00    -0.391 OA
ATOM     17  H4  UNL     1       9.200 -10.304   2.697  1.00  0.00     0.210 HD
ENDBRANCH   7  16
BRANCH   6  18
HETATM   18  C6  UNL     1       7.311 -10.705   5.531  1.00  0.00     0.191 C 
BRANCH  18  19
HETATM   19  O3  UNL     1       6.087 -10.111   5.828  1.00  0.00    -0.399 OA
ATOM     20  H3  UNL     1       5.891 -10.213   6.752  1.00  0.00     0.209 HD
ENDBRANCH  18  19
ENDBRANCH   6  18
TORSDOF 5
ENDMDL
