MODEL 4
REMARK VINA RESULT: -6.585736653      2.510      5.208
REMARK  5 active torsions:
REMARK  status: ('A' for Active; 'I' for Inactive)
REMARK       I    between atoms: C2_2  and  N1_4 
REMARK    1  A    between atoms: N1_4  and  C3_6 
REMARK    2  A    between atoms: C5_11  and  C6_12 
REMARK    3  A    between atoms: C6_12  and  O3_13 
REMARK    4  A    between atoms: C7_15  and  O4_16 
REMARK    5  A    between atoms: C8_18  and  O5_19 
ROOT
HETATM    1  C3  UNL     1       7.372 -11.290   3.855  1.00  0.00     0.207 C 
HETATM    2  C4  UNL     1       6.454 -12.460   3.746  1.00  0.00     0.243 C 
HETATM    3  O2  UNL     1       6.819 -13.588   4.171  1.00  0.00    -0.271 OA
HETATM    4  N2  UNL     1       5.180 -12.265   3.158  1.00  0.00    -0.350 N 
ATOM      5  H2  UNL     1       4.392 -12.857   3.419  1.00  0.00     0.163 HD
HETATM    6  C5  UNL     1       5.017 -11.214   2.184  1.00  0.00     0.139 C 
HETATM    7  C7  UNL     1       6.378 -10.955   1.571  1.00  0.00     0.174 C 
HETATM    8  C8  UNL     1       7.374 -10.470   2.584  1.00  0.00     0.180 C 
ENDROOT
BRANCH   1   9
HETATM    9  N1  UNL     1       6.844 -10.445   4.905  1.00  0.00    -0.346 N 
HETATM   10  C2  UNL     1       7.350 -10.541   6.226  1.00  0.00     0.214 C 
HETATM   11  C1  UNL     1       6.796  -9.666   7.284  1.00  0.00     0.117 C 
HETATM   12  O1  UNL     1       8.268 -11.383   6.457  1.00  0.00    -0.274 OA
ATOM     13  H1  UNL     1       6.105  -9.776   4.692  1.00  0.00     0.163 HD
ENDBRANCH   1   9
BRANCH   8  14
HETATM   14  O5  UNL     1       8.647 -10.591   1.992  1.00  0.00    -0.390 OA
ATOM     15  H5  UNL     1       8.751 -11.490   1.705  1.00  0.00     0.210 HD
ENDBRANCH   8  14
BRANCH   7  16
HETATM   16  O4  UNL     1       6.265  -9.981   0.583  1.00  0.00    -0.391 OA
ATOM     17  H4  UNL     1       6.950  -9.332   0.698  1.00  0.00     0.210 HD
ENDBRANCH   7  16
BRANCH   6  18
HETATM   18  C6  UNL     1       4.115 -11.670   1.034  1.00  0.00     0.191 C 
BRANCH  18  19
HETATM   19  O3  UNL     1       4.371 -13.005   0.726  1.00  0.00    -0.399 OA
ATOM     20  H3  UNL     1       3.625 -13.384   0.276  1.00  0.00     0.209 HD
ENDBRANCH  18  19
ENDBRANCH   6  18
TORSDOF 5
ENDMDL
