MODEL 3
REMARK VINA RESULT: -6.638593933      1.167      1.222
REMARK  5 active torsions:
REMARK  status: ('A' for Active; 'I' for Inactive)
REMARK       I    between atoms: C2_2  and  N1_4 
REMARK    1  A    between atoms: N1_4  and  C3_6 
REMARK    2  A    between atoms: C5_11  and  C6_12 
REMARK    3  A    between atoms: C6_12  and  O3_13 
REMARK    4  A    between atoms: C7_15  and  O4_16 
REMARK    5  A    between atoms: C8_18  and  O5_19 
ROOT
HETATM    1  C3  UNL     1       5.742 -14.121   1.830  1.00  0.00     0.207 C 
HETATM    2  C4  UNL     1       6.619 -13.836   3.002  1.00  0.00     0.243 C 
HETATM    3  O2  UNL     1       6.692 -14.663   3.950  1.00  0.00    -0.271 OA
HETATM    4  N2  UNL     1       7.353 -12.625   3.015  1.00  0.00    -0.350 N 
ATOM      5  H2  UNL     1       8.235 -12.559   3.524  1.00  0.00     0.163 HD
HETATM    6  C5  UNL     1       6.834 -11.488   2.297  1.00  0.00     0.139 C 
HETATM    7  C7  UNL     1       5.333 -11.669   2.196  1.00  0.00     0.174 C 
HETATM    8  C8  UNL     1       4.959 -12.895   1.415  1.00  0.00     0.180 C 
ENDROOT
BRANCH   1   9
HETATM    9  N1  UNL     1       6.617 -14.460   0.729  1.00  0.00    -0.346 N 
HETATM   10  C2  UNL     1       6.264 -15.492  -0.177  1.00  0.00     0.214 C 
HETATM   11  C1  UNL     1       7.174 -15.822  -1.298  1.00  0.00     0.117 C 
HETATM   12  O1  UNL     1       5.170 -16.103   0.006  1.00  0.00    -0.274 OA
ATOM     13  H1  UNL     1       7.492 -13.953   0.604  1.00  0.00     0.163 HD
ENDBRANCH   1   9
BRANCH   8  14
HETATM   14  O5  UNL     1       3.597 -13.141   1.674  1.00  0.00    -0.390 OA
ATOM     15  H5  UNL     1       3.230 -13.579   0.916  1.00  0.00     0.210 HD
ENDBRANCH   8  14
BRANCH   7  16
HETATM   16  O4  UNL     1       4.775 -10.567   1.554  1.00  0.00    -0.391 OA
ATOM     17  H4  UNL     1       5.423 -10.172   0.982  1.00  0.00     0.210 HD
ENDBRANCH   7  16
BRANCH   6  18
HETATM   18  C6  UNL     1       7.054 -10.195   3.087  1.00  0.00     0.191 C 
BRANCH  18  19
HETATM   19  O3  UNL     1       6.086 -10.073   4.082  1.00  0.00    -0.399 OA
ATOM     20  H3  UNL     1       6.434 -10.374   4.913  1.00  0.00     0.209 HD
ENDBRANCH  18  19
ENDBRANCH   6  18
TORSDOF 5
ENDMDL
