MODEL 2
REMARK VINA RESULT: -7.883249347      1.742      4.648
REMARK  6 active torsions:
REMARK  status: ('A' for Active; 'I' for Inactive)
REMARK       I    between atoms: C2_2  and  N1_4 
REMARK    1  A    between atoms: N1_4  and  C3_6 
REMARK    2  A    between atoms: N2_8  and  O2_10 
REMARK    3  A    between atoms: C5_13  and  C6_14 
REMARK    4  A    between atoms: C6_14  and  O4_15 
REMARK    5  A    between atoms: C7_17  and  O5_18 
REMARK    6  A    between atoms: C8_20  and  O6_21 
ROOT
HETATM    1  C3  UNL     1       6.233 -12.781   1.694  1.00  0.00     0.192 C 
HETATM    2  C4  UNL     1       6.873 -13.424   2.871  1.00  0.00     0.164 C 
HETATM    3  N2  UNL     1       6.654 -14.666   3.106  1.00  0.00    -0.249 N 
ATOM      4  H2  UNL     1       6.046 -15.198   2.485  1.00  0.00     0.196 HD
HETATM    5  O3  UNL     1       7.686 -12.625   3.666  1.00  0.00    -0.326 OA
HETATM    6  C5  UNL     1       7.367 -11.285   3.988  1.00  0.00     0.185 C 
HETATM    7  C7  UNL     1       6.300 -10.783   3.045  1.00  0.00     0.180 C 
HETATM    8  C8  UNL     1       6.643 -11.355   1.665  1.00  0.00     0.180 C 
ENDROOT
BRANCH   1   9
HETATM    9  N1  UNL     1       6.477 -13.500   0.474  1.00  0.00    -0.347 N 
HETATM   10  C2  UNL     1       5.722 -14.627   0.050  1.00  0.00     0.214 C 
HETATM   11  C1  UNL     1       6.016 -15.343  -1.230  1.00  0.00     0.117 C 
HETATM   12  O1  UNL     1       4.790 -14.989   0.814  1.00  0.00    -0.274 OA
ATOM     13  H1  UNL     1       7.239 -13.182  -0.125  1.00  0.00     0.163 HD
ENDBRANCH   1   9
BRANCH   8  14
HETATM   14  O6  UNL     1       5.955 -10.575   0.748  1.00  0.00    -0.390 OA
ATOM     15  H6  UNL     1       6.491 -10.227   0.046  1.00  0.00     0.210 HD
ENDBRANCH   8  14
BRANCH   3  16
HETATM   16  O2  UNL     1       7.232 -15.285   4.187  1.00  0.00    -0.288 OA
ATOM     17  H2  UNL     1       8.042 -14.955   4.559  1.00  0.00     0.244 HD
ENDBRANCH   3  16
BRANCH   7  18
HETATM   18  O5  UNL     1       6.192  -9.416   3.006  1.00  0.00    -0.390 OA
ATOM     19  H5  UNL     1       5.362  -9.106   2.663  1.00  0.00     0.210 HD
ENDBRANCH   7  18
BRANCH   6  20
HETATM   20  C6  UNL     1       6.878 -11.221   5.441  1.00  0.00     0.199 C 
BRANCH  20  21
HETATM   21  O4  UNL     1       6.068 -10.100   5.559  1.00  0.00    -0.398 OA
ATOM     22  H4  UNL     1       5.249 -10.380   5.950  1.00  0.00     0.209 HD
ENDBRANCH  20  21
ENDBRANCH   6  20
TORSDOF 6
ENDMDL
