MODEL 1
REMARK VINA RESULT: -8.353195159      0.000      0.000
REMARK  6 active torsions:
REMARK  status: ('A' for Active; 'I' for Inactive)
REMARK       I    between atoms: C2_2  and  N1_4 
REMARK    1  A    between atoms: N1_4  and  C3_6 
REMARK    2  A    between atoms: N2_8  and  O2_10 
REMARK    3  A    between atoms: C5_13  and  C6_14 
REMARK    4  A    between atoms: C6_14  and  O4_15 
REMARK    5  A    between atoms: C7_17  and  O5_18 
REMARK    6  A    between atoms: C8_20  and  O6_21 
ROOT
HETATM    1  C3  UNL     1       7.467 -11.459   3.627  1.00  0.00     0.192 C 
HETATM    2  C4  UNL     1       6.723 -12.742   3.732  1.00  0.00     0.164 C 
HETATM    3  N2  UNL     1       7.280 -13.747   4.300  1.00  0.00    -0.249 N 
ATOM      4  H2  UNL     1       8.225 -13.657   4.674  1.00  0.00     0.196 HD
HETATM    5  O3  UNL     1       5.442 -12.779   3.195  1.00  0.00    -0.326 OA
HETATM    6  C5  UNL     1       5.103 -12.146   1.975  1.00  0.00     0.185 C 
HETATM    7  C7  UNL     1       6.176 -11.149   1.612  1.00  0.00     0.180 C 
HETATM    8  C8  UNL     1       6.602 -10.479   2.923  1.00  0.00     0.180 C 
ENDROOT
BRANCH   1   9
HETATM    9  N1  UNL     1       7.973 -11.011   4.895  1.00  0.00    -0.347 N 
HETATM   10  C2  UNL     1       7.209 -10.274   5.841  1.00  0.00     0.214 C 
HETATM   11  C1  UNL     1       7.782  -9.830   7.149  1.00  0.00     0.117 C 
HETATM   12  O1  UNL     1       6.021 -10.019   5.515  1.00  0.00    -0.274 OA
ATOM     13  H1  UNL     1       8.940 -11.236   5.130  1.00  0.00     0.163 HD
ENDBRANCH   1   9
BRANCH   8  14
HETATM   14  O6  UNL     1       7.240  -9.303   2.560  1.00  0.00    -0.390 OA
ATOM     15  H6  UNL     1       7.319  -9.170   1.623  1.00  0.00     0.210 HD
ENDBRANCH   8  14
BRANCH   3  16
HETATM   16  O2  UNL     1       6.617 -14.945   4.411  1.00  0.00    -0.288 OA
ATOM     17  H2  UNL     1       6.756 -15.508   5.163  1.00  0.00     0.244 HD
ENDBRANCH   3  16
BRANCH   7  18
HETATM   18  O5  UNL     1       5.779 -10.220   0.683  1.00  0.00    -0.390 OA
ATOM     19  H5  UNL     1       5.546  -9.378   1.057  1.00  0.00     0.210 HD
ENDBRANCH   7  18
BRANCH   6  20
HETATM   20  C6  UNL     1       4.961 -13.212   0.880  1.00  0.00     0.199 C 
BRANCH  20  21
HETATM   21  O4  UNL     1       6.193 -13.328   0.251  1.00  0.00    -0.398 OA
ATOM     22  H4  UNL     1       6.792 -13.730   0.869  1.00  0.00     0.209 HD
ENDBRANCH  20  21
ENDBRANCH   6  20
TORSDOF 6
ENDMDL
