MODEL 4
REMARK VINA RESULT: -6.717251856      2.440      5.648
REMARK  6 active torsions:
REMARK  status: ('A' for Active; 'I' for Inactive)
REMARK       I    between atoms: C2_2  and  N1_4 
REMARK    1  A    between atoms: N1_4  and  C3_6 
REMARK    2  A    between atoms: N2_8  and  O2_10 
REMARK    3  A    between atoms: C5_13  and  C6_14 
REMARK    4  A    between atoms: C6_14  and  O4_15 
REMARK    5  A    between atoms: C7_17  and  O5_18 
REMARK    6  A    between atoms: C8_20  and  O6_21 
ROOT
HETATM    1  C3  UNL     1       6.743 -13.420   1.377  1.00  0.00     0.192 C 
HETATM    2  C4  UNL     1       6.599 -11.961   1.622  1.00  0.00     0.164 C 
HETATM    3  N2  UNL     1       7.089 -11.130   0.777  1.00  0.00    -0.249 N 
ATOM      4  H2  UNL     1       7.571 -11.478  -0.052  1.00  0.00     0.196 HD
HETATM    5  O3  UNL     1       5.930 -11.575   2.777  1.00  0.00    -0.326 OA
HETATM    6  C5  UNL     1       6.092 -12.238   4.017  1.00  0.00     0.185 C 
HETATM    7  C7  UNL     1       6.731 -13.585   3.785  1.00  0.00     0.180 C 
HETATM    8  C8  UNL     1       6.102 -14.144   2.504  1.00  0.00     0.180 C 
ENDROOT
BRANCH   1   9
HETATM    9  N1  UNL     1       6.280 -13.808   0.074  1.00  0.00    -0.347 N 
HETATM   10  C2  UNL     1       6.736 -14.960  -0.623  1.00  0.00     0.214 C 
HETATM   11  C1  UNL     1       6.222 -15.321  -1.981  1.00  0.00     0.117 C 
HETATM   12  O1  UNL     1       7.597 -15.661  -0.030  1.00  0.00    -0.274 OA
ATOM     13  H1  UNL     1       5.580 -13.220  -0.380  1.00  0.00     0.163 HD
ENDBRANCH   1   9
BRANCH   8  14
HETATM   14  O6  UNL     1       6.344 -15.509   2.524  1.00  0.00    -0.390 OA
ATOM     15  H6  UNL     1       6.000 -15.960   3.286  1.00  0.00     0.210 HD
ENDBRANCH   8  14
BRANCH   3  16
HETATM   16  O2  UNL     1       6.971  -9.777   0.978  1.00  0.00    -0.288 OA
ATOM     17  H2  UNL     1       6.909  -9.182   0.240  1.00  0.00     0.244 HD
ENDBRANCH   3  16
BRANCH   7  18
HETATM   18  O5  UNL     1       6.584 -14.457   4.834  1.00  0.00    -0.390 OA
ATOM     19  H5  UNL     1       7.046 -15.279   4.718  1.00  0.00     0.210 HD
ENDBRANCH   7  18
BRANCH   6  20
HETATM   20  C6  UNL     1       6.967 -11.375   4.935  1.00  0.00     0.199 C 
BRANCH  20  21
HETATM   21  O4  UNL     1       8.231 -11.950   4.967  1.00  0.00    -0.398 OA
ATOM     22  H4  UNL     1       8.372 -12.375   4.129  1.00  0.00     0.209 HD
ENDBRANCH  20  21
ENDBRANCH   6  20
TORSDOF 6
ENDMDL
