MODEL 5
REMARK VINA RESULT: -6.670761708      2.282      5.334
REMARK  6 active torsions:
REMARK  status: ('A' for Active; 'I' for Inactive)
REMARK       I    between atoms: C2_2  and  N1_4 
REMARK    1  A    between atoms: N1_4  and  C3_6 
REMARK    2  A    between atoms: N2_8  and  O2_10 
REMARK    3  A    between atoms: C5_13  and  C6_14 
REMARK    4  A    between atoms: C6_14  and  O4_15 
REMARK    5  A    between atoms: C7_17  and  O5_18 
REMARK    6  A    between atoms: C8_20  and  O6_21 
ROOT
HETATM    1  C3  UNL     1       6.325 -13.490   2.169  1.00  0.00     0.192 C 
HETATM    2  C4  UNL     1       5.687 -12.166   1.944  1.00  0.00     0.164 C 
HETATM    3  N2  UNL     1       5.419 -11.793   0.747  1.00  0.00    -0.249 N 
ATOM      4  H2  UNL     1       5.647 -12.405  -0.036  1.00  0.00     0.196 HD
HETATM    5  O3  UNL     1       5.412 -11.395   3.067  1.00  0.00    -0.326 OA
HETATM    6  C5  UNL     1       6.296 -11.300   4.168  1.00  0.00     0.185 C 
HETATM    7  C7  UNL     1       7.300 -12.425   4.103  1.00  0.00     0.180 C 
HETATM    8  C8  UNL     1       6.529 -13.662   3.630  1.00  0.00     0.180 C 
ENDROOT
BRANCH   1   9
HETATM    9  N1  UNL     1       5.610 -14.561   1.533  1.00  0.00    -0.347 N 
HETATM   10  C2  UNL     1       6.235 -15.670   0.902  1.00  0.00     0.214 C 
HETATM   11  C1  UNL     1       5.446 -16.762   0.251  1.00  0.00     0.117 C 
HETATM   12  O1  UNL     1       7.493 -15.683   0.922  1.00  0.00    -0.274 OA
ATOM     13  H1  UNL     1       4.590 -14.524   1.534  1.00  0.00     0.163 HD
ENDBRANCH   1   9
BRANCH   8  14
HETATM   14  O6  UNL     1       7.311 -14.754   3.977  1.00  0.00    -0.390 OA
ATOM     15  H6  UNL     1       7.270 -14.991   4.896  1.00  0.00     0.210 HD
ENDBRANCH   8  14
BRANCH   3  16
HETATM   16  O2  UNL     1       4.830 -10.575   0.509  1.00  0.00    -0.288 OA
ATOM     17  H2  UNL     1       3.905 -10.518   0.299  1.00  0.00     0.244 HD
ENDBRANCH   3  16
BRANCH   7  18
HETATM   18  O5  UNL     1       7.945 -12.663   5.290  1.00  0.00    -0.390 OA
ATOM     19  H5  UNL     1       8.816 -13.030   5.188  1.00  0.00     0.210 HD
ENDBRANCH   7  18
BRANCH   6  20
HETATM   20  C6  UNL     1       7.005  -9.940   4.126  1.00  0.00     0.199 C 
BRANCH  20  21
HETATM   21  O4  UNL     1       8.348 -10.177   3.870  1.00  0.00    -0.398 OA
ATOM     22  H4  UNL     1       8.808 -10.137   4.700  1.00  0.00     0.209 HD
ENDBRANCH  20  21
ENDBRANCH   6  20
TORSDOF 6
ENDMDL
