MODEL 5
REMARK VINA RESULT: -8.494174208      2.398      3.453
REMARK  8 active torsions:
REMARK  status: ('A' for Active; 'I' for Inactive)
REMARK    1  A    between atoms: O1_2  and  C2_3 
REMARK    2  A    between atoms: C2_3  and  C3_4 
REMARK    3  A    between atoms: C3_4  and  N1_5 
REMARK    4  A    between atoms: N1_5  and  S1_7 
REMARK    5  A    between atoms: S1_7  and  C4_10 
REMARK    6  A    between atoms: C7_13  and  N2_14 
REMARK    7  A    between atoms: N2_14  and  C8_16 
REMARK    8  A    between atoms: C11_21  and  C12_22 
ROOT
HETATM    1  N2  UNL     1      22.861  26.856  26.418  1.00  0.00    -0.192 N 
ATOM      2  H2  UNL     1      22.176  27.361  25.857  1.00  0.00     0.184 HD
ENDROOT
BRANCH   1   3
HETATM    3  C7  UNL     1      22.471  26.436  27.693  1.00  0.00     0.049 A 
HETATM    4  C6  UNL     1      22.006  25.132  27.842  1.00  0.00     0.031 A 
HETATM    5  C5  UNL     1      21.587  24.644  29.053  1.00  0.00     0.027 A 
HETATM    6  C4  UNL     1      21.614  25.444  30.178  1.00  0.00     0.079 A 
HETATM    7  C18 UNL     1      22.075  26.724  30.010  1.00  0.00     0.027 A 
HETATM    8  C17 UNL     1      22.507  27.240  28.780  1.00  0.00     0.031 A 
BRANCH   6   9
HETATM    9  S1  UNL     1      21.091  24.867  31.745  1.00  0.00     0.258 S 
HETATM   10  O2  UNL     1      21.965  23.763  32.249  1.00  0.00    -0.201 OA
HETATM   11  O3  UNL     1      19.678  24.336  31.686  1.00  0.00    -0.201 OA
BRANCH   9  12
HETATM   12  N1  UNL     1      21.092  26.215  32.822  1.00  0.00    -0.313 N 
ATOM     13  H1  UNL     1      21.934  26.737  33.067  1.00  0.00     0.172 HD
BRANCH  12  14
HETATM   14  C3  UNL     1      19.796  26.529  33.335  1.00  0.00     0.158 C 
BRANCH  14  15
HETATM   15  C2  UNL     1      19.822  27.914  33.906  1.00  0.00     0.187 C 
BRANCH  15  16
HETATM   16  O1  UNL     1      19.898  27.956  35.277  1.00  0.00    -0.394 OA
HETATM   17  C1  UNL     1      19.312  26.887  35.909  1.00  0.00     0.201 C 
ENDBRANCH  15  16
ENDBRANCH  14  15
ENDBRANCH  12  14
ENDBRANCH   9  12
ENDBRANCH   6   9
ENDBRANCH   1   3
BRANCH   1  18
HETATM   18  C8  UNL     1      24.120  26.633  25.856  1.00  0.00     0.683 A 
HETATM   19  N3  UNL     1      24.556  25.474  25.395  1.00  0.00    -0.202 N 
HETATM   20  C9  UNL     1      25.765  25.248  24.851  1.00  0.00     0.108 A 
ATOM     21  H3  UNL     1      23.918  24.680  25.456  1.00  0.00     0.183 HD
HETATM   22  C10 UNL     1      26.614  26.363  24.782  1.00  0.00     0.049 A 
HETATM   23  C11 UNL     1      26.191  27.585  25.254  1.00  0.00     0.069 A 
HETATM   24  N5  UNL     1      24.973  27.716  25.778  1.00  0.00    -0.190 N 
ATOM     25  H5  UNL     1      24.667  28.626  26.125  1.00  0.00     0.184 HD
BRANCH  23  26
HETATM   26  C12 UNL     1      27.095  28.742  25.175  1.00  0.00     0.059 A 
HETATM   27  S2  UNL     1      28.226  29.155  23.959  1.00  0.00    -0.025 SA
HETATM   28  C13 UNL     1      28.814  30.593  24.650  1.00  0.00     0.291 A 
HETATM   29  O4  UNL     1      29.711  31.391  24.195  1.00  0.00    -0.259 OA
HETATM   30  N4  UNL     1      28.120  30.694  25.782  1.00  0.00    -0.316 N 
HETATM   31  C14 UNL     1      28.369  31.853  26.679  1.00  0.00     0.160 C 
HETATM   32  C15 UNL     1      27.247  29.773  26.068  1.00  0.00     0.030 A 
HETATM   33  C16 UNL     1      26.381  29.764  27.326  1.00  0.00     0.070 C 
ENDBRANCH  23  26
ENDBRANCH   1  18
TORSDOF 8
ENDMDL
