MODEL 6
REMARK VINA RESULT: -8.434352297      6.327      8.971
REMARK  8 active torsions:
REMARK  status: ('A' for Active; 'I' for Inactive)
REMARK    1  A    between atoms: O1_2  and  C2_3 
REMARK    2  A    between atoms: C2_3  and  C3_4 
REMARK    3  A    between atoms: C3_4  and  N1_5 
REMARK    4  A    between atoms: N1_5  and  S1_7 
REMARK    5  A    between atoms: S1_7  and  C4_10 
REMARK    6  A    between atoms: C7_13  and  N2_14 
REMARK    7  A    between atoms: N2_14  and  C8_16 
REMARK    8  A    between atoms: C11_21  and  C12_22 
ROOT
HETATM    1  N2  UNL     1      24.747  26.571  24.870  1.00  0.00    -0.192 N 
ATOM      2  H2  UNL     1      23.798  26.943  24.881  1.00  0.00     0.184 HD
ENDROOT
BRANCH   1   3
HETATM    3  C7  UNL     1      25.799  27.471  25.061  1.00  0.00     0.049 A 
HETATM    4  C6  UNL     1      26.033  28.425  24.074  1.00  0.00     0.031 A 
HETATM    5  C5  UNL     1      27.055  29.335  24.173  1.00  0.00     0.027 A 
HETATM    6  C4  UNL     1      27.894  29.330  25.269  1.00  0.00     0.079 A 
HETATM    7  C18 UNL     1      27.647  28.383  26.228  1.00  0.00     0.027 A 
HETATM    8  C17 UNL     1      26.608  27.445  26.145  1.00  0.00     0.031 A 
BRANCH   6   9
HETATM    9  S1  UNL     1      29.211  30.470  25.440  1.00  0.00     0.258 S 
HETATM   10  O2  UNL     1      29.443  31.241  24.179  1.00  0.00    -0.201 OA
HETATM   11  O3  UNL     1      30.502  29.764  25.784  1.00  0.00    -0.201 OA
BRANCH   9  12
HETATM   12  N1  UNL     1      28.825  31.516  26.757  1.00  0.00    -0.313 N 
ATOM     13  H1  UNL     1      29.348  31.530  27.633  1.00  0.00     0.172 HD
BRANCH  12  14
HETATM   14  C3  UNL     1      27.702  32.359  26.499  1.00  0.00     0.158 C 
BRANCH  14  15
HETATM   15  C2  UNL     1      26.766  32.294  27.666  1.00  0.00     0.187 C 
BRANCH  15  16
HETATM   16  O1  UNL     1      26.077  31.109  27.768  1.00  0.00    -0.394 OA
HETATM   17  C1  UNL     1      25.096  31.107  28.730  1.00  0.00     0.201 C 
ENDBRANCH  15  16
ENDBRANCH  14  15
ENDBRANCH  12  14
ENDBRANCH   9  12
ENDBRANCH   6   9
ENDBRANCH   1   3
BRANCH   1  18
HETATM   18  C8  UNL     1      24.900  25.197  24.666  1.00  0.00     0.683 A 
HETATM   19  N3  UNL     1      24.262  24.251  25.332  1.00  0.00    -0.202 N 
HETATM   20  C9  UNL     1      24.400  22.926  25.144  1.00  0.00     0.108 A 
ATOM     21  H3  UNL     1      23.606  24.552  26.053  1.00  0.00     0.183 HD
HETATM   22  C10 UNL     1      25.309  22.550  24.143  1.00  0.00     0.049 A 
HETATM   23  C11 UNL     1      25.990  23.511  23.430  1.00  0.00     0.069 A 
HETATM   24  N5  UNL     1      25.789  24.804  23.686  1.00  0.00    -0.190 N 
ATOM     25  H5  UNL     1      26.298  25.509  23.153  1.00  0.00     0.184 HD
BRANCH  23  26
HETATM   26  C12 UNL     1      26.940  23.098  22.386  1.00  0.00     0.059 A 
HETATM   27  S2  UNL     1      28.392  23.850  21.882  1.00  0.00    -0.025 SA
HETATM   28  C13 UNL     1      28.834  22.741  20.672  1.00  0.00     0.291 A 
HETATM   29  O4  UNL     1      29.865  22.760  19.907  1.00  0.00    -0.259 OA
HETATM   30  N4  UNL     1      27.850  21.844  20.705  1.00  0.00    -0.316 N 
HETATM   31  C14 UNL     1      27.890  20.696  19.761  1.00  0.00     0.160 C 
HETATM   32  C15 UNL     1      26.884  22.003  21.562  1.00  0.00     0.030 A 
HETATM   33  C16 UNL     1      25.698  21.053  21.712  1.00  0.00     0.070 C 
ENDBRANCH  23  26
ENDBRANCH   1  18
TORSDOF 8
ENDMDL
