MODEL 4
REMARK VINA RESULT: -8.497379562      5.106      9.918
REMARK  8 active torsions:
REMARK  status: ('A' for Active; 'I' for Inactive)
REMARK    1  A    between atoms: O1_2  and  C2_3 
REMARK    2  A    between atoms: C2_3  and  C3_4 
REMARK    3  A    between atoms: C3_4  and  N1_5 
REMARK    4  A    between atoms: N1_5  and  S1_7 
REMARK    5  A    between atoms: S1_7  and  C4_10 
REMARK    6  A    between atoms: C7_13  and  N2_14 
REMARK    7  A    between atoms: N2_14  and  C8_16 
REMARK    8  A    between atoms: C11_21  and  C12_22 
ROOT
HETATM    1  N2  UNL     1      26.934  26.469  22.826  1.00  0.00    -0.192 N 
ATOM      2  H2  UNL     1      26.423  26.878  22.044  1.00  0.00     0.184 HD
ENDROOT
BRANCH   1   3
HETATM    3  C7  UNL     1      26.967  25.074  22.921  1.00  0.00     0.049 A 
HETATM    4  C6  UNL     1      27.678  24.367  21.955  1.00  0.00     0.031 A 
HETATM    5  C5  UNL     1      27.747  22.997  21.963  1.00  0.00     0.027 A 
HETATM    6  C4  UNL     1      27.105  22.269  22.944  1.00  0.00     0.079 A 
HETATM    7  C18 UNL     1      26.412  22.984  23.885  1.00  0.00     0.027 A 
HETATM    8  C17 UNL     1      26.329  24.384  23.893  1.00  0.00     0.031 A 
BRANCH   6   9
HETATM    9  S1  UNL     1      27.164  20.520  22.996  1.00  0.00     0.258 S 
HETATM   10  O2  UNL     1      25.835  19.912  22.682  1.00  0.00    -0.201 OA
HETATM   11  O3  UNL     1      27.576  20.030  24.364  1.00  0.00    -0.201 OA
BRANCH   9  12
HETATM   12  N1  UNL     1      28.373  20.008  21.877  1.00  0.00    -0.313 N 
ATOM     13  H1  UNL     1      29.367  19.967  22.105  1.00  0.00     0.172 HD
BRANCH  12  14
HETATM   14  C3  UNL     1      27.845  19.648  20.600  1.00  0.00     0.158 C 
BRANCH  14  15
HETATM   15  C2  UNL     1      28.763  20.158  19.532  1.00  0.00     0.187 C 
BRANCH  15  16
HETATM   16  O1  UNL     1      30.041  19.659  19.604  1.00  0.00    -0.394 OA
HETATM   17  C1  UNL     1      31.022  20.620  19.636  1.00  0.00     0.201 C 
ENDBRANCH  15  16
ENDBRANCH  14  15
ENDBRANCH  12  14
ENDBRANCH   9  12
ENDBRANCH   6   9
ENDBRANCH   1   3
BRANCH   1  18
HETATM   18  C8  UNL     1      27.551  27.344  23.725  1.00  0.00     0.683 A 
HETATM   19  N3  UNL     1      28.830  27.674  23.712  1.00  0.00    -0.202 N 
HETATM   20  C9  UNL     1      29.434  28.515  24.570  1.00  0.00     0.108 A 
ATOM     21  H3  UNL     1      29.411  27.254  22.986  1.00  0.00     0.183 HD
HETATM   22  C10 UNL     1      28.604  29.074  25.553  1.00  0.00     0.049 A 
HETATM   23  C11 UNL     1      27.266  28.751  25.594  1.00  0.00     0.069 A 
HETATM   24  N5  UNL     1      26.752  27.906  24.701  1.00  0.00    -0.190 N 
ATOM     25  H5  UNL     1      25.760  27.671  24.739  1.00  0.00     0.184 HD
BRANCH  23  26
HETATM   26  C12 UNL     1      26.411  29.345  26.633  1.00  0.00     0.059 A 
HETATM   27  S2  UNL     1      26.555  30.855  27.425  1.00  0.00    -0.025 SA
HETATM   28  C13 UNL     1      25.195  30.731  28.437  1.00  0.00     0.291 A 
HETATM   29  O4  UNL     1      24.757  31.579  29.296  1.00  0.00    -0.259 OA
HETATM   30  N4  UNL     1      24.689  29.539  28.125  1.00  0.00    -0.316 N 
HETATM   31  C14 UNL     1      23.465  29.070  28.826  1.00  0.00     0.160 C 
HETATM   32  C15 UNL     1      25.285  28.822  27.218  1.00  0.00     0.030 A 
HETATM   33  C16 UNL     1      24.815  27.443  26.761  1.00  0.00     0.070 C 
ENDBRANCH  23  26
ENDBRANCH   1  18
TORSDOF 8
ENDMDL
