MODEL 1
REMARK VINA RESULT: -8.898721279      0.000      0.000
REMARK  3 active torsions:
REMARK  status: ('A' for Active; 'I' for Inactive)
REMARK    1  A    between atoms: C6_6  and  N1_7 
REMARK    2  A    between atoms: N1_7  and  C7_9 
REMARK    3  A    between atoms: C12_14  and  C13_15 
ROOT
HETATM    1  N1  UNL     1       9.433   6.232  23.299  1.00  0.00    -0.355 N 
ATOM      2  H1  UNL     1       8.682   6.279  22.611  1.00  0.00     0.166 HD
ENDROOT
BRANCH   1   3
HETATM    3  C6  UNL     1      10.744   6.033  22.809  1.00  0.00     0.039 A 
HETATM    4  C5  UNL     1      11.750   6.965  22.852  1.00  0.00     0.030 A 
HETATM    5  C4  UNL     1      13.004   6.712  22.280  1.00  0.00     0.003 A 
HETATM    6  C3  UNL     1      13.279   5.521  21.650  1.00  0.00     0.007 A 
HETATM    7  C2  UNL     1      12.287   4.578  21.596  1.00  0.00    -0.054 A 
HETATM    8  C1  UNL     1      12.607   3.289  20.906  1.00  0.00     0.049 C 
HETATM    9  C14 UNL     1      11.080   4.837  22.154  1.00  0.00    -0.029 A 
HETATM   10  C15 UNL     1      10.004   3.796  22.087  1.00  0.00     0.051 C 
ENDBRANCH   1   3
BRANCH   1  11
HETATM   11  C7  UNL     1       9.072   6.373  24.655  1.00  0.00     0.049 A 
HETATM   12  C8  UNL     1       9.535   5.444  25.602  1.00  0.00     0.030 A 
HETATM   13  C9  UNL     1       9.114   5.507  26.908  1.00  0.00     0.002 A 
HETATM   14  C10 UNL     1       8.229   6.487  27.282  1.00  0.00     0.001 A 
HETATM   15  C11 UNL     1       7.779   7.387  26.366  1.00  0.00     0.021 A 
HETATM   16  C12 UNL     1       8.177   7.371  25.022  1.00  0.00     0.067 A 
BRANCH  16  17
HETATM   17  C13 UNL     1       7.686   8.386  24.109  1.00  0.00     0.211 C 
HETATM   18  O1  UNL     1       6.439   8.679  24.187  1.00  0.00    -0.644 OA
HETATM   19  O2  UNL     1       8.377   9.083  23.166  1.00  0.00    -0.644 OA
ENDBRANCH  16  17
ENDBRANCH   1  11
TORSDOF 3
ENDMDL
