MODEL 3
REMARK VINA RESULT: -8.433190679      0.967      1.894
REMARK  3 active torsions:
REMARK  status: ('A' for Active; 'I' for Inactive)
REMARK    1  A    between atoms: C6_6  and  N1_7 
REMARK    2  A    between atoms: N1_7  and  C7_9 
REMARK    3  A    between atoms: C12_14  and  C13_15 
ROOT
HETATM    1  N1  UNL     1       9.734   6.988  23.244  1.00  0.00    -0.355 N 
ATOM      2  H1  UNL     1       9.842   7.971  22.997  1.00  0.00     0.166 HD
ENDROOT
BRANCH   1   3
HETATM    3  C6  UNL     1      10.035   6.035  22.242  1.00  0.00     0.039 A 
HETATM    4  C5  UNL     1       9.122   5.195  21.658  1.00  0.00     0.030 A 
HETATM    5  C4  UNL     1       9.514   4.229  20.721  1.00  0.00     0.003 A 
HETATM    6  C3  UNL     1      10.829   4.082  20.349  1.00  0.00     0.007 A 
HETATM    7  C2  UNL     1      11.757   4.912  20.923  1.00  0.00    -0.054 A 
HETATM    8  C1  UNL     1      13.183   4.735  20.506  1.00  0.00     0.049 C 
HETATM    9  C14 UNL     1      11.362   5.841  21.826  1.00  0.00    -0.029 A 
HETATM   10  C15 UNL     1      12.387   6.741  22.446  1.00  0.00     0.051 C 
ENDBRANCH   1   3
BRANCH   1  11
HETATM   11  C7  UNL     1       9.299   6.698  24.553  1.00  0.00     0.049 A 
HETATM   12  C8  UNL     1       9.929   5.682  25.292  1.00  0.00     0.030 A 
HETATM   13  C9  UNL     1       9.454   5.319  26.528  1.00  0.00     0.002 A 
HETATM   14  C10 UNL     1       8.351   5.956  27.038  1.00  0.00     0.001 A 
HETATM   15  C11 UNL     1       7.739   6.940  26.325  1.00  0.00     0.021 A 
HETATM   16  C12 UNL     1       8.181   7.352  25.060  1.00  0.00     0.067 A 
BRANCH  16  17
HETATM   17  C13 UNL     1       7.503   8.433  24.372  1.00  0.00     0.211 C 
HETATM   18  O1  UNL     1       6.284   8.657  24.707  1.00  0.00    -0.644 OA
HETATM   19  O2  UNL     1       7.988   9.259  23.405  1.00  0.00    -0.644 OA
ENDBRANCH  16  17
ENDBRANCH   1  11
TORSDOF 3
ENDMDL
