MODEL 2
REMARK VINA RESULT: -8.573086873      0.576      1.942
REMARK  3 active torsions:
REMARK  status: ('A' for Active; 'I' for Inactive)
REMARK    1  A    between atoms: C6_6  and  N1_7 
REMARK    2  A    between atoms: N1_7  and  C7_9 
REMARK    3  A    between atoms: C12_14  and  C13_15 
ROOT
HETATM    1  N1  UNL     1       9.196   6.297  23.173  1.00  0.00    -0.355 N 
ATOM      2  H1  UNL     1       8.659   6.913  22.563  1.00  0.00     0.166 HD
ENDROOT
BRANCH   1   3
HETATM    3  C6  UNL     1      10.111   5.415  22.554  1.00  0.00     0.039 A 
HETATM    4  C5  UNL     1       9.861   4.096  22.268  1.00  0.00     0.030 A 
HETATM    5  C4  UNL     1      10.848   3.269  21.716  1.00  0.00     0.003 A 
HETATM    6  C3  UNL     1      12.109   3.742  21.440  1.00  0.00     0.007 A 
HETATM    7  C2  UNL     1      12.379   5.056  21.721  1.00  0.00    -0.054 A 
HETATM    8  C1  UNL     1      13.758   5.551  21.413  1.00  0.00     0.049 C 
HETATM    9  C14 UNL     1      11.414   5.843  22.253  1.00  0.00    -0.029 A 
HETATM   10  C15 UNL     1      11.723   7.278  22.554  1.00  0.00     0.051 C 
ENDBRANCH   1   3
BRANCH   1  11
HETATM   11  C7  UNL     1       8.959   6.401  24.560  1.00  0.00     0.049 A 
HETATM   12  C8  UNL     1       9.516   5.456  25.437  1.00  0.00     0.030 A 
HETATM   13  C9  UNL     1       9.215   5.482  26.777  1.00  0.00     0.002 A 
HETATM   14  C10 UNL     1       8.359   6.442  27.254  1.00  0.00     0.001 A 
HETATM   15  C11 UNL     1       7.818   7.359  26.406  1.00  0.00     0.021 A 
HETATM   16  C12 UNL     1       8.091   7.379  25.031  1.00  0.00     0.067 A 
BRANCH  16  17
HETATM   17  C13 UNL     1       7.509   8.409  24.192  1.00  0.00     0.211 C 
HETATM   18  O1  UNL     1       8.323   9.106  23.485  1.00  0.00    -0.644 OA
HETATM   19  O2  UNL     1       6.198   8.744  24.046  1.00  0.00    -0.644 OA
ENDBRANCH  16  17
ENDBRANCH   1  11
TORSDOF 3
ENDMDL
