MODEL 6
REMARK VINA RESULT: -8.003518773      1.707      5.672
REMARK  3 active torsions:
REMARK  status: ('A' for Active; 'I' for Inactive)
REMARK    1  A    between atoms: C6_6  and  N1_7 
REMARK    2  A    between atoms: N1_7  and  C7_9 
REMARK    3  A    between atoms: C12_14  and  C13_15 
ROOT
HETATM    1  N1  UNL     1       9.686   6.136  22.885  1.00  0.00    -0.355 N 
ATOM      2  H1  UNL     1       9.203   6.803  22.284  1.00  0.00     0.166 HD
ENDROOT
BRANCH   1   3
HETATM    3  C6  UNL     1       9.386   6.179  24.266  1.00  0.00     0.039 A 
HETATM    4  C5  UNL     1       9.976   5.393  25.223  1.00  0.00     0.030 A 
HETATM    5  C4  UNL     1       9.572   5.448  26.564  1.00  0.00     0.003 A 
HETATM    6  C3  UNL     1       8.566   6.290  26.977  1.00  0.00     0.007 A 
HETATM    7  C2  UNL     1       7.964   7.083  26.035  1.00  0.00    -0.054 A 
HETATM    8  C1  UNL     1       6.872   7.992  26.504  1.00  0.00     0.049 C 
HETATM    9  C14 UNL     1       8.367   7.018  24.743  1.00  0.00    -0.029 A 
HETATM   10  C15 UNL     1       7.699   7.891  23.724  1.00  0.00     0.051 C 
ENDBRANCH   1   3
BRANCH   1  11
HETATM   11  C7  UNL     1      10.595   5.253  22.266  1.00  0.00     0.049 A 
HETATM   12  C8  UNL     1      10.203   3.935  21.976  1.00  0.00     0.030 A 
HETATM   13  C9  UNL     1      11.103   3.033  21.466  1.00  0.00     0.002 A 
HETATM   14  C10 UNL     1      12.398   3.430  21.242  1.00  0.00     0.001 A 
HETATM   15  C11 UNL     1      12.781   4.705  21.522  1.00  0.00     0.021 A 
HETATM   16  C12 UNL     1      11.903   5.667  22.042  1.00  0.00     0.067 A 
BRANCH  16  17
HETATM   17  C13 UNL     1      12.369   7.020  22.281  1.00  0.00     0.211 C 
HETATM   18  O1  UNL     1      13.640   7.195  22.314  1.00  0.00    -0.644 OA
HETATM   19  O2  UNL     1      11.634   8.149  22.476  1.00  0.00    -0.644 OA
ENDBRANCH  16  17
ENDBRANCH   1  11
TORSDOF 3
ENDMDL
