MODEL 4
REMARK VINA RESULT: -8.216319417      2.090      5.855
REMARK  3 active torsions:
REMARK  status: ('A' for Active; 'I' for Inactive)
REMARK    1  A    between atoms: C6_6  and  N1_7 
REMARK    2  A    between atoms: N1_7  and  C7_9 
REMARK    3  A    between atoms: C12_14  and  C13_15 
ROOT
HETATM    1  N1  UNL     1       9.876   6.418  23.070  1.00  0.00    -0.355 N 
ATOM      2  H1  UNL     1       9.195   6.767  22.397  1.00  0.00     0.166 HD
ENDROOT
BRANCH   1   3
HETATM    3  C6  UNL     1       9.464   6.333  24.420  1.00  0.00     0.039 A 
HETATM    4  C5  UNL     1       9.980   5.461  25.345  1.00  0.00     0.030 A 
HETATM    5  C4  UNL     1       9.467   5.392  26.647  1.00  0.00     0.003 A 
HETATM    6  C3  UNL     1       8.424   6.191  27.052  1.00  0.00     0.007 A 
HETATM    7  C2  UNL     1       7.894   7.067  26.141  1.00  0.00    -0.054 A 
HETATM    8  C1  UNL     1       6.760   7.928  26.601  1.00  0.00     0.049 C 
HETATM    9  C14 UNL     1       8.402   7.123  24.886  1.00  0.00    -0.029 A 
HETATM   10  C15 UNL     1       7.813   8.086  23.900  1.00  0.00     0.051 C 
ENDBRANCH   1   3
BRANCH   1  11
HETATM   11  C7  UNL     1      11.148   6.064  22.572  1.00  0.00     0.049 A 
HETATM   12  C8  UNL     1      12.245   6.914  22.787  1.00  0.00     0.030 A 
HETATM   13  C9  UNL     1      13.467   6.635  22.225  1.00  0.00     0.002 A 
HETATM   14  C10 UNL     1      13.607   5.515  21.445  1.00  0.00     0.001 A 
HETATM   15  C11 UNL     1      12.546   4.690  21.234  1.00  0.00     0.021 A 
HETATM   16  C12 UNL     1      11.278   4.925  21.784  1.00  0.00     0.067 A 
BRANCH  16  17
HETATM   17  C13 UNL     1      10.200   3.983  21.549  1.00  0.00     0.211 C 
HETATM   18  O1  UNL     1      10.028   3.592  20.339  1.00  0.00    -0.644 OA
HETATM   19  O2  UNL     1       9.332   3.446  22.450  1.00  0.00    -0.644 OA
ENDBRANCH  16  17
ENDBRANCH   1  11
TORSDOF 3
ENDMDL
