MODEL 8
REMARK VINA RESULT: -7.881368033      2.536      5.876
REMARK  3 active torsions:
REMARK  status: ('A' for Active; 'I' for Inactive)
REMARK    1  A    between atoms: C6_6  and  N1_7 
REMARK    2  A    between atoms: N1_7  and  C7_9 
REMARK    3  A    between atoms: C12_14  and  C13_15 
ROOT
HETATM    1  N1  UNL     1       9.836   5.386  22.783  1.00  0.00    -0.355 N 
ATOM      2  H1  UNL     1       9.406   4.483  22.584  1.00  0.00     0.166 HD
ENDROOT
BRANCH   1   3
HETATM    3  C6  UNL     1       9.014   6.376  23.369  1.00  0.00     0.039 A 
HETATM    4  C5  UNL     1       8.298   7.316  22.672  1.00  0.00     0.030 A 
HETATM    5  C4  UNL     1       7.561   8.308  23.332  1.00  0.00     0.003 A 
HETATM    6  C3  UNL     1       7.526   8.384  24.705  1.00  0.00     0.007 A 
HETATM    7  C2  UNL     1       8.237   7.455  25.418  1.00  0.00    -0.054 A 
HETATM    8  C1  UNL     1       8.186   7.555  26.911  1.00  0.00     0.049 C 
HETATM    9  C14 UNL     1       8.943   6.501  24.766  1.00  0.00    -0.029 A 
HETATM   10  C15 UNL     1       9.715   5.491  25.560  1.00  0.00     0.051 C 
ENDBRANCH   1   3
BRANCH   1  11
HETATM   11  C7  UNL     1      11.198   5.536  22.451  1.00  0.00     0.049 A 
HETATM   12  C8  UNL     1      11.901   6.675  22.877  1.00  0.00     0.030 A 
HETATM   13  C9  UNL     1      13.198   6.886  22.478  1.00  0.00     0.002 A 
HETATM   14  C10 UNL     1      13.805   5.972  21.654  1.00  0.00     0.001 A 
HETATM   15  C11 UNL     1      13.127   4.869  21.239  1.00  0.00     0.021 A 
HETATM   16  C12 UNL     1      11.802   4.602  21.616  1.00  0.00     0.067 A 
BRANCH  16  17
HETATM   17  C13 UNL     1      11.152   3.386  21.168  1.00  0.00     0.211 C 
HETATM   18  O1  UNL     1      10.450   2.753  22.036  1.00  0.00    -0.644 OA
HETATM   19  O2  UNL     1      11.182   2.813  19.933  1.00  0.00    -0.644 OA
ENDBRANCH  16  17
ENDBRANCH   1  11
TORSDOF 3
ENDMDL
