MODEL 1
REMARK VINA RESULT: -8.312693134      0.000      0.000
REMARK  6 active torsions:
REMARK  status: ('A' for Active; 'I' for Inactive)
REMARK    1  A    between atoms: N1_1  and  S1_4 
REMARK    2  A    between atoms: S1_4  and  C1_7 
REMARK    3  A    between atoms: C3_9  and  C4_10 
REMARK    4  A    between atoms: C5_13  and  N2_14 
REMARK    5  A    between atoms: N2_14  and  C6_16 
REMARK    6  A    between atoms: C6_16  and  C7_17 
ROOT
HETATM    1  C1  UNL     1     -11.134 -16.331   7.159  1.00  0.00     0.102 A 
HETATM    2  C2  UNL     1      -9.876 -16.752   7.475  1.00  0.00     0.047 A 
HETATM    3  C3  UNL     1      -8.696 -16.163   6.993  1.00  0.00     0.068 A 
HETATM    4  C5  UNL     1      -8.836 -15.091   6.146  1.00  0.00     0.047 A 
HETATM    5  C11 UNL     1     -10.118 -14.629   5.796  1.00  0.00     0.055 A 
HETATM    6  C12 UNL     1     -11.238 -15.241   6.296  1.00  0.00     0.059 A 
HETATM    7 CL1  UNL     1     -12.813 -14.640   5.840  1.00  0.00    -0.083 Cl
ENDROOT
BRANCH   4   8
HETATM    8  N2  UNL     1      -7.701 -14.439   5.635  1.00  0.00    -0.383 N 
ATOM      9  H2  UNL     1      -6.766 -14.750   5.901  1.00  0.00     0.160 HD
BRANCH   8  10
HETATM   10  C6  UNL     1      -7.871 -13.314   4.720  1.00  0.00     0.184 C 
BRANCH  10  11
HETATM   11  C7  UNL     1      -7.960 -13.860   3.340  1.00  0.00     0.070 A 
HETATM   12  C8  UNL     1      -7.975 -13.010   2.228  1.00  0.00     0.036 A 
HETATM   13  C9  UNL     1      -8.063 -13.838   1.135  1.00  0.00     0.027 A 
HETATM   14  C10 UNL     1      -8.096 -15.121   1.627  1.00  0.00     0.142 A 
HETATM   15  O5  UNL     1      -8.034 -15.106   2.935  1.00  0.00    -0.325 OA
ENDBRANCH  10  11
ENDBRANCH   8  10
ENDBRANCH   4   8
BRANCH   3  16
HETATM   16  C4  UNL     1      -7.457 -16.732   7.418  1.00  0.00     0.211 C 
HETATM   17  O3  UNL     1      -6.598 -15.989   8.018  1.00  0.00    -0.644 OA
HETATM   18  O4  UNL     1      -7.045 -18.034   7.263  1.00  0.00    -0.644 OA
ENDBRANCH   3  16
BRANCH   1  19
HETATM   19  S1  UNL     1     -12.574 -17.100   7.787  1.00  0.00     0.258 S 
HETATM   20  O1  UNL     1     -13.489 -17.377   6.614  1.00  0.00    -0.201 OA
HETATM   21  O2  UNL     1     -12.227 -18.377   8.510  1.00  0.00    -0.201 OA
BRANCH  19  22
HETATM   22  N1  UNL     1     -13.427 -16.058   8.865  1.00  0.00    -0.324 N 
ATOM     23  H12 UNL     1     -13.192 -15.085   9.062  1.00  0.00     0.169 HD
ATOM     24  H11 UNL     1     -14.198 -16.597   9.259  1.00  0.00     0.169 HD
ENDBRANCH  19  22
ENDBRANCH   1  19
TORSDOF 6
ENDMDL
