MODEL 5
REMARK VINA RESULT: -7.388492186      2.917      6.287
REMARK  6 active torsions:
REMARK  status: ('A' for Active; 'I' for Inactive)
REMARK    1  A    between atoms: N1_1  and  S1_4 
REMARK    2  A    between atoms: S1_4  and  C1_7 
REMARK    3  A    between atoms: C3_9  and  C4_10 
REMARK    4  A    between atoms: C5_13  and  N2_14 
REMARK    5  A    between atoms: N2_14  and  C6_16 
REMARK    6  A    between atoms: C6_16  and  C7_17 
ROOT
HETATM    1  C1  UNL     1      -8.103 -14.389   3.376  1.00  0.00     0.102 A 
HETATM    2  C2  UNL     1      -7.450 -14.042   4.522  1.00  0.00     0.047 A 
HETATM    3  C3  UNL     1      -7.888 -14.366   5.817  1.00  0.00     0.068 A 
HETATM    4  C5  UNL     1      -9.057 -15.081   5.918  1.00  0.00     0.047 A 
HETATM    5  C11 UNL     1      -9.759 -15.455   4.757  1.00  0.00     0.055 A 
HETATM    6  C12 UNL     1      -9.285 -15.113   3.517  1.00  0.00     0.059 A 
HETATM    7 CL1  UNL     1     -10.183 -15.596   2.099  1.00  0.00    -0.083 Cl
ENDROOT
BRANCH   4   8
HETATM    8  N2  UNL     1      -9.552 -15.455   7.178  1.00  0.00    -0.383 N 
ATOM      9  H2  UNL     1      -9.696 -14.752   7.904  1.00  0.00     0.160 HD
BRANCH   8  10
HETATM   10  C6  UNL     1      -9.857 -16.859   7.442  1.00  0.00     0.184 C 
BRANCH  10  11
HETATM   11  C7  UNL     1     -11.307 -16.958   7.751  1.00  0.00     0.070 A 
HETATM   12  C8  UNL     1     -12.170 -17.698   6.935  1.00  0.00     0.036 A 
HETATM   13  C9  UNL     1     -13.413 -17.575   7.507  1.00  0.00     0.027 A 
HETATM   14  C10 UNL     1     -13.247 -16.782   8.617  1.00  0.00     0.142 A 
HETATM   15  O5  UNL     1     -11.992 -16.430   8.740  1.00  0.00    -0.325 OA
ENDBRANCH  10  11
ENDBRANCH   8  10
ENDBRANCH   4   8
BRANCH   3  16
HETATM   16  C4  UNL     1      -7.088 -13.919   6.912  1.00  0.00     0.211 C 
HETATM   17  O3  UNL     1      -6.634 -14.781   7.750  1.00  0.00    -0.644 OA
HETATM   18  O4  UNL     1      -6.722 -12.626   7.200  1.00  0.00    -0.644 OA
ENDBRANCH   3  16
BRANCH   1  19
HETATM   19  S1  UNL     1      -7.514 -13.961   1.786  1.00  0.00     0.258 S 
HETATM   20  O1  UNL     1      -7.320 -15.246   1.012  1.00  0.00    -0.201 OA
HETATM   21  O2  UNL     1      -8.489 -13.051   1.081  1.00  0.00    -0.201 OA
BRANCH  19  22
HETATM   22  N1  UNL     1      -5.978 -13.179   1.872  1.00  0.00    -0.324 N 
ATOM     23  H12 UNL     1      -5.131 -13.575   2.281  1.00  0.00     0.169 HD
ATOM     24  H11 UNL     1      -6.082 -12.261   1.440  1.00  0.00     0.169 HD
ENDBRANCH  19  22
ENDBRANCH   1  19
TORSDOF 6
ENDMDL
