MODEL 8
REMARK VINA RESULT: -6.835838409      3.774      6.173
REMARK  6 active torsions:
REMARK  status: ('A' for Active; 'I' for Inactive)
REMARK    1  A    between atoms: N1_1  and  S1_4 
REMARK    2  A    between atoms: S1_4  and  C1_7 
REMARK    3  A    between atoms: C3_9  and  C4_10 
REMARK    4  A    between atoms: C5_13  and  N2_14 
REMARK    5  A    between atoms: N2_14  and  C6_16 
REMARK    6  A    between atoms: C6_16  and  C7_17 
ROOT
HETATM    1  C1  UNL     1      -6.307 -14.325   7.597  1.00  0.00     0.102 A 
HETATM    2  C2  UNL     1      -6.173 -15.640   7.929  1.00  0.00     0.047 A 
HETATM    3  C3  UNL     1      -7.108 -16.640   7.613  1.00  0.00     0.068 A 
HETATM    4  C5  UNL     1      -8.229 -16.249   6.923  1.00  0.00     0.047 A 
HETATM    5  C11 UNL     1      -8.402 -14.899   6.563  1.00  0.00     0.055 A 
HETATM    6  C12 UNL     1      -7.457 -13.963   6.897  1.00  0.00     0.059 A 
HETATM    7 CL1  UNL     1      -7.706 -12.298   6.434  1.00  0.00    -0.083 Cl
ENDROOT
BRANCH   4   8
HETATM    8  N2  UNL     1      -9.202 -17.194   6.557  1.00  0.00    -0.383 N 
ATOM      9  H2  UNL     1      -9.016 -18.191   6.664  1.00  0.00     0.160 HD
BRANCH   8  10
HETATM   10  C6  UNL     1     -10.482 -16.736   6.023  1.00  0.00     0.184 C 
BRANCH  10  11
HETATM   11  C7  UNL     1     -11.465 -16.737   7.138  1.00  0.00     0.070 A 
HETATM   12  C8  UNL     1     -12.822 -16.988   6.902  1.00  0.00     0.036 A 
HETATM   13  C9  UNL     1     -13.428 -16.913   8.133  1.00  0.00     0.027 A 
HETATM   14  C10 UNL     1     -12.431 -16.626   9.035  1.00  0.00     0.142 A 
HETATM   15  O5  UNL     1     -11.279 -16.528   8.420  1.00  0.00    -0.325 OA
ENDBRANCH  10  11
ENDBRANCH   8  10
ENDBRANCH   4   8
BRANCH   3  16
HETATM   16  C4  UNL     1      -6.817 -17.970   8.043  1.00  0.00     0.211 C 
HETATM   17  O3  UNL     1      -7.411 -18.438   9.082  1.00  0.00    -0.644 OA
HETATM   18  O4  UNL     1      -5.943 -18.858   7.462  1.00  0.00    -0.644 OA
ENDBRANCH   3  16
BRANCH   1  19
HETATM   19  S1  UNL     1      -5.113 -13.118   8.015  1.00  0.00     0.258 S 
HETATM   20  O1  UNL     1      -4.641 -12.480   6.726  1.00  0.00    -0.201 OA
HETATM   21  O2  UNL     1      -5.699 -12.083   8.942  1.00  0.00    -0.201 OA
BRANCH  19  22
HETATM   22  N1  UNL     1      -3.733 -13.829   8.767  1.00  0.00    -0.324 N 
ATOM     23  H12 UNL     1      -2.926 -14.221   8.281  1.00  0.00     0.169 HD
ATOM     24  H11 UNL     1      -3.881 -13.782   9.775  1.00  0.00     0.169 HD
ENDBRANCH  19  22
ENDBRANCH   1  19
TORSDOF 6
ENDMDL
