MODEL 7
REMARK VINA RESULT: -6.977944508      4.049      6.894
REMARK  6 active torsions:
REMARK  status: ('A' for Active; 'I' for Inactive)
REMARK    1  A    between atoms: N1_1  and  S1_4 
REMARK    2  A    between atoms: S1_4  and  C1_7 
REMARK    3  A    between atoms: C3_9  and  C4_10 
REMARK    4  A    between atoms: C5_13  and  N2_14 
REMARK    5  A    between atoms: N2_14  and  C6_16 
REMARK    6  A    between atoms: C6_16  and  C7_17 
ROOT
HETATM    1  C1  UNL     1      -5.827 -14.554   7.711  1.00  0.00     0.102 A 
HETATM    2  C2  UNL     1      -6.934 -14.175   7.011  1.00  0.00     0.047 A 
HETATM    3  C3  UNL     1      -8.078 -14.972   6.841  1.00  0.00     0.068 A 
HETATM    4  C5  UNL     1      -8.064 -16.216   7.424  1.00  0.00     0.047 A 
HETATM    5  C11 UNL     1      -6.938 -16.641   8.153  1.00  0.00     0.055 A 
HETATM    6  C12 UNL     1      -5.847 -15.822   8.289  1.00  0.00     0.059 A 
HETATM    7 CL1  UNL     1      -4.468 -16.385   9.200  1.00  0.00    -0.083 Cl
ENDROOT
BRANCH   4   8
HETATM    8  N2  UNL     1      -9.178 -17.064   7.310  1.00  0.00    -0.383 N 
ATOM      9  H2  UNL     1      -9.469 -17.411   6.396  1.00  0.00     0.160 HD
BRANCH   8  10
HETATM   10  C6  UNL     1      -9.915 -17.446   8.512  1.00  0.00     0.184 C 
BRANCH  10  11
HETATM   11  C7  UNL     1     -11.366 -17.330   8.210  1.00  0.00     0.070 A 
HETATM   12  C8  UNL     1     -11.874 -17.704   6.960  1.00  0.00     0.036 A 
HETATM   13  C9  UNL     1     -13.226 -17.469   7.029  1.00  0.00     0.027 A 
HETATM   14  C10 UNL     1     -13.466 -16.975   8.290  1.00  0.00     0.142 A 
HETATM   15  O5  UNL     1     -12.348 -16.903   8.968  1.00  0.00    -0.325 OA
ENDBRANCH  10  11
ENDBRANCH   8  10
ENDBRANCH   4   8
BRANCH   3  16
HETATM   16  C4  UNL     1      -9.150 -14.425   6.072  1.00  0.00     0.211 C 
HETATM   17  O3  UNL     1      -8.891 -13.858   4.948  1.00  0.00    -0.644 OA
HETATM   18  O4  UNL     1     -10.487 -14.427   6.392  1.00  0.00    -0.644 OA
ENDBRANCH   3  16
BRANCH   1  19
HETATM   19  S1  UNL     1      -4.426 -13.523   7.894  1.00  0.00     0.258 S 
HETATM   20  O1  UNL     1      -4.660 -12.286   7.055  1.00  0.00    -0.201 OA
HETATM   21  O2  UNL     1      -4.216 -13.157   9.343  1.00  0.00    -0.201 OA
BRANCH  19  22
HETATM   22  N1  UNL     1      -2.999 -14.284   7.295  1.00  0.00    -0.324 N 
ATOM     23  H12 UNL     1      -2.361 -13.891   6.602  1.00  0.00     0.169 HD
ATOM     24  H11 UNL     1      -2.920 -15.188   7.760  1.00  0.00     0.169 HD
ENDBRANCH  19  22
ENDBRANCH   1  19
TORSDOF 6
ENDMDL
