MODEL 2
REMARK VINA RESULT: -7.775918586      0.861      1.322
REMARK  6 active torsions:
REMARK  status: ('A' for Active; 'I' for Inactive)
REMARK    1  A    between atoms: N1_1  and  S1_4 
REMARK    2  A    between atoms: S1_4  and  C1_7 
REMARK    3  A    between atoms: C3_9  and  C4_10 
REMARK    4  A    between atoms: C5_13  and  N2_14 
REMARK    5  A    between atoms: N2_14  and  C6_16 
REMARK    6  A    between atoms: C6_16  and  C7_17 
ROOT
HETATM    1  C1  UNL     1     -11.064 -16.143   7.386  1.00  0.00     0.102 A 
HETATM    2  C2  UNL     1      -9.801 -16.527   7.729  1.00  0.00     0.047 A 
HETATM    3  C3  UNL     1      -8.629 -16.016   7.148  1.00  0.00     0.068 A 
HETATM    4  C5  UNL     1      -8.782 -15.064   6.169  1.00  0.00     0.047 A 
HETATM    5  C11 UNL     1     -10.070 -14.644   5.788  1.00  0.00     0.055 A 
HETATM    6  C12 UNL     1     -11.182 -15.176   6.389  1.00  0.00     0.059 A 
HETATM    7 CL1  UNL     1     -12.763 -14.629   5.890  1.00  0.00    -0.083 Cl
ENDROOT
BRANCH   4   8
HETATM    8  N2  UNL     1      -7.656 -14.494   5.552  1.00  0.00    -0.383 N 
ATOM      9  H2  UNL     1      -6.725 -14.872   5.732  1.00  0.00     0.160 HD
BRANCH   8  10
HETATM   10  C6  UNL     1      -7.829 -13.357   4.652  1.00  0.00     0.184 C 
BRANCH  10  11
HETATM   11  C7  UNL     1      -7.938 -13.887   3.268  1.00  0.00     0.070 A 
HETATM   12  C8  UNL     1      -7.976 -13.024   2.166  1.00  0.00     0.036 A 
HETATM   13  C9  UNL     1      -8.078 -13.839   1.065  1.00  0.00     0.027 A 
HETATM   14  C10 UNL     1      -8.096 -15.128   1.542  1.00  0.00     0.142 A 
HETATM   15  O5  UNL     1      -8.012 -15.129   2.848  1.00  0.00    -0.325 OA
ENDBRANCH  10  11
ENDBRANCH   8  10
ENDBRANCH   4   8
BRANCH   3  16
HETATM   16  C4  UNL     1      -7.384 -16.533   7.619  1.00  0.00     0.211 C 
HETATM   17  O3  UNL     1      -7.121 -17.781   7.458  1.00  0.00    -0.644 OA
HETATM   18  O4  UNL     1      -6.381 -15.837   8.251  1.00  0.00    -0.644 OA
ENDBRANCH   3  16
BRANCH   1  19
HETATM   19  S1  UNL     1     -12.493 -16.811   8.140  1.00  0.00     0.258 S 
HETATM   20  O1  UNL     1     -12.502 -16.352   9.582  1.00  0.00    -0.201 OA
HETATM   21  O2  UNL     1     -13.740 -16.356   7.423  1.00  0.00    -0.201 OA
BRANCH  19  22
HETATM   22  N1  UNL     1     -12.451 -18.536   8.154  1.00  0.00    -0.324 N 
ATOM     23  H12 UNL     1     -13.180 -19.146   8.525  1.00  0.00     0.169 HD
ATOM     24  H11 UNL     1     -11.570 -18.820   7.725  1.00  0.00     0.169 HD
ENDBRANCH  19  22
ENDBRANCH   1  19
TORSDOF 6
ENDMDL
