MODEL 4
REMARK VINA RESULT: -7.412420070      1.570      1.822
REMARK  6 active torsions:
REMARK  status: ('A' for Active; 'I' for Inactive)
REMARK    1  A    between atoms: N1_1  and  S1_4 
REMARK    2  A    between atoms: S1_4  and  C1_7 
REMARK    3  A    between atoms: C3_9  and  C4_10 
REMARK    4  A    between atoms: C5_13  and  N2_14 
REMARK    5  A    between atoms: N2_14  and  C6_16 
REMARK    6  A    between atoms: C6_16  and  C7_17 
ROOT
HETATM    1  C1  UNL     1     -11.147 -16.358   7.729  1.00  0.00     0.102 A 
HETATM    2  C2  UNL     1      -9.803 -16.137   7.672  1.00  0.00     0.047 A 
HETATM    3  C3  UNL     1      -9.152 -15.460   6.628  1.00  0.00     0.068 A 
HETATM    4  C5  UNL     1      -9.938 -14.994   5.602  1.00  0.00     0.047 A 
HETATM    5  C11 UNL     1     -11.330 -15.205   5.627  1.00  0.00     0.055 A 
HETATM    6  C12 UNL     1     -11.914 -15.873   6.671  1.00  0.00     0.059 A 
HETATM    7 CL1  UNL     1     -13.643 -16.114   6.668  1.00  0.00    -0.083 Cl
ENDROOT
BRANCH   4   8
HETATM    8  N2  UNL     1      -9.362 -14.293   4.529  1.00  0.00    -0.383 N 
ATOM      9  H2  UNL     1      -9.097 -13.314   4.638  1.00  0.00     0.160 HD
BRANCH   8  10
HETATM   10  C6  UNL     1      -9.145 -14.978   3.258  1.00  0.00     0.184 C 
BRANCH  10  11
HETATM   11  C7  UNL     1      -7.919 -14.409   2.639  1.00  0.00     0.070 A 
HETATM   12  C8  UNL     1      -7.527 -13.090   2.898  1.00  0.00     0.036 A 
HETATM   13  C9  UNL     1      -6.373 -12.903   2.176  1.00  0.00     0.027 A 
HETATM   14  C10 UNL     1      -6.128 -14.091   1.529  1.00  0.00     0.142 A 
HETATM   15  O5  UNL     1      -7.058 -14.965   1.820  1.00  0.00    -0.325 OA
ENDBRANCH  10  11
ENDBRANCH   8  10
ENDBRANCH   4   8
BRANCH   3  16
HETATM   16  C4  UNL     1      -7.734 -15.320   6.719  1.00  0.00     0.211 C 
HETATM   17  O3  UNL     1      -7.186 -14.218   6.348  1.00  0.00    -0.644 OA
HETATM   18  O4  UNL     1      -6.835 -16.255   7.174  1.00  0.00    -0.644 OA
ENDBRANCH   3  16
BRANCH   1  19
HETATM   19  S1  UNL     1     -11.909 -17.209   9.054  1.00  0.00     0.258 S 
HETATM   20  O1  UNL     1     -12.953 -16.287   9.645  1.00  0.00    -0.201 OA
HETATM   21  O2  UNL     1     -12.537 -18.494   8.574  1.00  0.00    -0.201 OA
BRANCH  19  22
HETATM   22  N1  UNL     1     -10.779 -17.570  10.306  1.00  0.00    -0.324 N 
ATOM     23  H12 UNL     1     -10.830 -18.366  10.941  1.00  0.00     0.169 HD
ATOM     24  H11 UNL     1     -10.063 -16.843  10.286  1.00  0.00     0.169 HD
ENDBRANCH  19  22
ENDBRANCH   1  19
TORSDOF 6
ENDMDL
