MODEL 5
REMARK VINA RESULT: -9.501185079      3.855      6.298
REMARK  4 active torsions:
REMARK  status: ('A' for Active; 'I' for Inactive)
REMARK    1  A    between atoms: C3_3  and  C4_4 
REMARK    2  A    between atoms: C7_9  and  N2_10 
REMARK    3  A    between atoms: N2_10  and  C8_12 
REMARK    4  A    between atoms: C11_15  and  N3_16 
ROOT
HETATM    1  C4  UNL     1      27.632  28.682  24.935  1.00  0.00     0.069 A 
HETATM    2  C5  UNL     1      28.999  28.705  24.837  1.00  0.00     0.049 A 
HETATM    3  C6  UNL     1      29.670  27.832  23.999  1.00  0.00     0.108 A 
HETATM    4  N1  UNL     1      28.938  26.965  23.289  1.00  0.00    -0.202 N 
ATOM      5  H1  UNL     1      29.414  26.312  22.666  1.00  0.00     0.183 HD
HETATM    6  C7  UNL     1      27.616  26.928  23.371  1.00  0.00     0.683 A 
HETATM    7  N5  UNL     1      26.947  27.800  24.208  1.00  0.00    -0.190 N 
ATOM      8  H5  UNL     1      25.929  27.770  24.268  1.00  0.00     0.184 HD
ENDROOT
BRANCH   6   9
HETATM    9  N2  UNL     1      26.842  26.017  22.624  1.00  0.00    -0.192 N 
ATOM     10  H2  UNL     1      26.509  26.338  21.716  1.00  0.00     0.184 HD
BRANCH   9  11
HETATM   11  C8  UNL     1      26.480  24.708  23.002  1.00  0.00     0.049 A 
HETATM   12  C9  UNL     1      25.779  24.523  24.195  1.00  0.00     0.032 A 
HETATM   13  C10 UNL     1      25.404  23.276  24.635  1.00  0.00     0.031 A 
HETATM   14  C11 UNL     1      25.697  22.135  23.926  1.00  0.00     0.030 A 
HETATM   15  C16 UNL     1      26.389  22.317  22.748  1.00  0.00     0.031 A 
HETATM   16  C17 UNL     1      26.779  23.582  22.288  1.00  0.00     0.032 A 
BRANCH  14  17
HETATM   17  N3  UNL     1      25.317  20.851  24.359  1.00  0.00    -0.378 N 
HETATM   18  C12 UNL     1      25.088  19.746  23.432  1.00  0.00     0.150 C 
HETATM   19  C13 UNL     1      25.406  18.489  24.225  1.00  0.00     0.252 C 
HETATM   20  N4  UNL     1      26.560  18.702  25.104  1.00  0.00    -0.072 N 
HETATM   21  C14 UNL     1      26.237  19.614  26.186  1.00  0.00     0.252 C 
ATOM     22  H42 UNL     1      26.931  17.820  25.457  1.00  0.00     0.277 HD
ATOM     23  H41 UNL     1      27.377  19.017  24.581  1.00  0.00     0.277 HD
HETATM   24  C15 UNL     1      25.124  20.544  25.755  1.00  0.00     0.150 C 
ENDBRANCH  14  17
ENDBRANCH   9  11
ENDBRANCH   6   9
BRANCH   1  25
HETATM   25  C3  UNL     1      26.933  29.623  25.834  1.00  0.00     0.059 A 
HETATM   26  C2  UNL     1      26.032  29.339  26.822  1.00  0.00     0.030 A 
HETATM   27  C1  UNL     1      25.649  27.890  27.088  1.00  0.00     0.070 C 
HETATM   28  N6  UNL     1      25.535  30.341  27.499  1.00  0.00    -0.316 N 
HETATM   29  C18 UNL     1      25.935  31.576  27.188  1.00  0.00     0.291 A 
HETATM   30  C19 UNL     1      24.541  30.177  28.600  1.00  0.00     0.160 C 
HETATM   31  S1  UNL     1      27.035  31.325  25.915  1.00  0.00    -0.025 SA
HETATM   32  O1  UNL     1      25.565  32.681  27.733  1.00  0.00    -0.259 OA
ENDBRANCH   1  25
TORSDOF 4
ENDMDL
