MODEL 1
REMARK VINA RESULT: -10.415903491      0.000      0.000
REMARK  4 active torsions:
REMARK  status: ('A' for Active; 'I' for Inactive)
REMARK    1  A    between atoms: C3_3  and  C4_4 
REMARK    2  A    between atoms: C7_9  and  N2_10 
REMARK    3  A    between atoms: N2_10  and  C8_12 
REMARK    4  A    between atoms: C11_15  and  N3_16 
ROOT
HETATM    1  C4  UNL     1      26.372  30.678  26.779  1.00  0.00     0.069 A 
HETATM    2  C5  UNL     1      26.117  32.019  26.656  1.00  0.00     0.049 A 
HETATM    3  C6  UNL     1      25.127  32.630  27.407  1.00  0.00     0.108 A 
HETATM    4  N1  UNL     1      24.429  31.866  28.255  1.00  0.00    -0.202 N 
ATOM      5  H1  UNL     1      23.695  32.296  28.817  1.00  0.00     0.183 HD
HETATM    6  C7  UNL     1      24.662  30.568  28.388  1.00  0.00     0.683 A 
HETATM    7  N5  UNL     1      25.650  29.959  27.638  1.00  0.00    -0.190 N 
ATOM      8  H5  UNL     1      25.828  28.960  27.742  1.00  0.00     0.184 HD
ENDROOT
BRANCH   6   9
HETATM    9  N2  UNL     1      23.930  29.761  29.281  1.00  0.00    -0.192 N 
ATOM     10  H2  UNL     1      23.840  30.103  30.237  1.00  0.00     0.184 HD
BRANCH   9  11
HETATM   11  C8  UNL     1      23.308  28.529  28.991  1.00  0.00     0.049 A 
HETATM   12  C9  UNL     1      22.261  28.097  29.806  1.00  0.00     0.032 A 
HETATM   13  C10 UNL     1      21.616  26.902  29.593  1.00  0.00     0.031 A 
HETATM   14  C11 UNL     1      21.964  26.059  28.564  1.00  0.00     0.030 A 
HETATM   15  C16 UNL     1      22.997  26.486  27.758  1.00  0.00     0.031 A 
HETATM   16  C17 UNL     1      23.665  27.702  27.963  1.00  0.00     0.032 A 
BRANCH  14  17
HETATM   17  N3  UNL     1      21.312  24.835  28.329  1.00  0.00    -0.378 N 
HETATM   18  C12 UNL     1      19.931  24.758  27.859  1.00  0.00     0.150 C 
HETATM   19  C13 UNL     1      19.845  23.453  27.085  1.00  0.00     0.252 C 
HETATM   20  N4  UNL     1      21.072  23.219  26.316  1.00  0.00    -0.072 N 
HETATM   21  C14 UNL     1      22.193  22.927  27.190  1.00  0.00     0.252 C 
ATOM     22  H42 UNL     1      20.942  22.488  25.617  1.00  0.00     0.277 HD
ATOM     23  H41 UNL     1      21.277  23.998  25.691  1.00  0.00     0.277 HD
HETATM   24  C15 UNL     1      21.969  23.569  28.542  1.00  0.00     0.150 C 
ENDBRANCH  14  17
ENDBRANCH   9  11
ENDBRANCH   6   9
BRANCH   1  25
HETATM   25  C3  UNL     1      27.434  30.044  25.971  1.00  0.00     0.059 A 
HETATM   26  C2  UNL     1      27.329  28.977  25.123  1.00  0.00     0.030 A 
HETATM   27  C1  UNL     1      25.977  28.302  24.938  1.00  0.00     0.070 C 
HETATM   28  N6  UNL     1      28.411  28.582  24.505  1.00  0.00    -0.316 N 
HETATM   29  C18 UNL     1      29.549  29.241  24.737  1.00  0.00     0.291 A 
HETATM   30  C19 UNL     1      28.442  27.430  23.557  1.00  0.00     0.160 C 
HETATM   31  S1  UNL     1      29.089  30.444  25.847  1.00  0.00    -0.025 SA
HETATM   32  O1  UNL     1      30.708  29.006  24.230  1.00  0.00    -0.259 OA
ENDBRANCH   1  25
TORSDOF 4
ENDMDL
