MODEL 2
REMARK VINA RESULT: -10.260941480      0.878      1.086
REMARK  4 active torsions:
REMARK  status: ('A' for Active; 'I' for Inactive)
REMARK    1  A    between atoms: C3_3  and  C4_4 
REMARK    2  A    between atoms: C7_9  and  N2_10 
REMARK    3  A    between atoms: N2_10  and  C8_12 
REMARK    4  A    between atoms: C11_15  and  N3_16 
ROOT
HETATM    1  C4  UNL     1      26.436  30.740  26.725  1.00  0.00     0.069 A 
HETATM    2  C5  UNL     1      26.271  32.097  26.632  1.00  0.00     0.049 A 
HETATM    3  C6  UNL     1      25.307  32.752  27.378  1.00  0.00     0.108 A 
HETATM    4  N1  UNL     1      24.543  32.016  28.193  1.00  0.00    -0.202 N 
ATOM      5  H1  UNL     1      23.826  32.479  28.751  1.00  0.00     0.183 HD
HETATM    6  C7  UNL     1      24.688  30.702  28.297  1.00  0.00     0.683 A 
HETATM    7  N5  UNL     1      25.651  30.049  27.552  1.00  0.00    -0.190 N 
ATOM      8  H5  UNL     1      25.762  29.038  27.634  1.00  0.00     0.184 HD
ENDROOT
BRANCH   6   9
HETATM    9  N2  UNL     1      23.886  29.923  29.154  1.00  0.00    -0.192 N 
ATOM     10  H2  UNL     1      23.609  30.354  30.036  1.00  0.00     0.184 HD
BRANCH   9  11
HETATM   11  C8  UNL     1      23.428  28.611  28.921  1.00  0.00     0.049 A 
HETATM   12  C9  UNL     1      22.506  28.054  29.809  1.00  0.00     0.032 A 
HETATM   13  C10 UNL     1      22.024  26.776  29.654  1.00  0.00     0.031 A 
HETATM   14  C11 UNL     1      22.421  25.969  28.614  1.00  0.00     0.030 A 
HETATM   15  C16 UNL     1      23.331  26.518  27.737  1.00  0.00     0.031 A 
HETATM   16  C17 UNL     1      23.832  27.820  27.883  1.00  0.00     0.032 A 
BRANCH  14  17
HETATM   17  N3  UNL     1      21.935  24.661  28.438  1.00  0.00    -0.378 N 
HETATM   18  C12 UNL     1      22.016  23.958  27.159  1.00  0.00     0.150 C 
HETATM   19  C13 UNL     1      22.080  22.483  27.519  1.00  0.00     0.252 C 
HETATM   20  N4  UNL     1      22.900  22.270  28.716  1.00  0.00    -0.072 N 
HETATM   21  C14 UNL     1      22.247  22.796  29.901  1.00  0.00     0.252 C 
ATOM     22  H42 UNL     1      23.149  21.288  28.830  1.00  0.00     0.277 HD
ATOM     23  H41 UNL     1      23.837  22.657  28.603  1.00  0.00     0.277 HD
HETATM   24  C15 UNL     1      21.317  23.925  29.514  1.00  0.00     0.150 C 
ENDBRANCH  14  17
ENDBRANCH   9  11
ENDBRANCH   6   9
BRANCH   1  25
HETATM   25  C3  UNL     1      27.471  30.057  25.923  1.00  0.00     0.059 A 
HETATM   26  C2  UNL     1      27.326  28.984  25.089  1.00  0.00     0.030 A 
HETATM   27  C1  UNL     1      25.949  28.357  24.916  1.00  0.00     0.070 C 
HETATM   28  N6  UNL     1      28.391  28.542  24.473  1.00  0.00    -0.316 N 
HETATM   29  C18 UNL     1      29.552  29.162  24.693  1.00  0.00     0.291 A 
HETATM   30  C19 UNL     1      28.377  27.378  23.539  1.00  0.00     0.160 C 
HETATM   31  S1  UNL     1      29.140  30.395  25.790  1.00  0.00    -0.025 SA
HETATM   32  O1  UNL     1      30.700  28.880  24.186  1.00  0.00    -0.259 OA
ENDBRANCH   1  25
TORSDOF 4
ENDMDL
