MODEL 3
REMARK VINA RESULT: -9.786491767      1.072      1.442
REMARK  4 active torsions:
REMARK  status: ('A' for Active; 'I' for Inactive)
REMARK    1  A    between atoms: C3_3  and  C4_4 
REMARK    2  A    between atoms: C7_9  and  N2_10 
REMARK    3  A    between atoms: N2_10  and  C8_12 
REMARK    4  A    between atoms: C11_15  and  N3_16 
ROOT
HETATM    1  C4  UNL     1      26.076  30.277  26.856  1.00  0.00     0.069 A 
HETATM    2  C5  UNL     1      26.066  31.645  26.934  1.00  0.00     0.049 A 
HETATM    3  C6  UNL     1      25.225  32.305  27.814  1.00  0.00     0.108 A 
HETATM    4  N1  UNL     1      24.423  31.561  28.584  1.00  0.00    -0.202 N 
ATOM      5  H1  UNL     1      23.795  32.028  29.239  1.00  0.00     0.183 HD
HETATM    6  C7  UNL     1      24.418  30.237  28.523  1.00  0.00     0.683 A 
HETATM    7  N5  UNL     1      25.258  29.580  27.645  1.00  0.00    -0.190 N 
ATOM      8  H5  UNL     1      25.254  28.561  27.600  1.00  0.00     0.184 HD
ENDROOT
BRANCH   6   9
HETATM    9  N2  UNL     1      23.576  29.451  29.333  1.00  0.00    -0.192 N 
ATOM     10  H2  UNL     1      23.355  29.821  30.257  1.00  0.00     0.184 HD
BRANCH   9  11
HETATM   11  C8  UNL     1      23.006  28.205  29.000  1.00  0.00     0.049 A 
HETATM   12  C9  UNL     1      22.118  27.611  29.899  1.00  0.00     0.032 A 
HETATM   13  C10 UNL     1      21.534  26.392  29.649  1.00  0.00     0.031 A 
HETATM   14  C11 UNL     1      21.789  25.684  28.498  1.00  0.00     0.030 A 
HETATM   15  C16 UNL     1      22.666  26.270  27.611  1.00  0.00     0.031 A 
HETATM   16  C17 UNL     1      23.270  27.512  27.852  1.00  0.00     0.032 A 
BRANCH  14  17
HETATM   17  N3  UNL     1      21.197  24.438  28.224  1.00  0.00    -0.378 N 
HETATM   18  C12 UNL     1      19.806  24.306  27.798  1.00  0.00     0.150 C 
HETATM   19  C13 UNL     1      19.764  23.037  26.963  1.00  0.00     0.252 C 
HETATM   20  N4  UNL     1      20.973  22.908  26.143  1.00  0.00    -0.072 N 
HETATM   21  C14 UNL     1      22.139  22.638  26.963  1.00  0.00     0.252 C 
ATOM     22  H42 UNL     1      20.858  22.206  25.413  1.00  0.00     0.277 HD
ATOM     23  H41 UNL     1      21.113  23.727  25.551  1.00  0.00     0.277 HD
HETATM   24  C15 UNL     1      21.929  23.202  28.352  1.00  0.00     0.150 C 
ENDBRANCH  14  17
ENDBRANCH   9  11
ENDBRANCH   6   9
BRANCH   1  25
HETATM   25  C3  UNL     1      26.981  29.591  25.913  1.00  0.00     0.059 A 
HETATM   26  C2  UNL     1      28.313  29.816  25.701  1.00  0.00     0.030 A 
HETATM   27  C1  UNL     1      29.022  30.899  26.502  1.00  0.00     0.070 C 
HETATM   28  N6  UNL     1      28.920  29.080  24.807  1.00  0.00    -0.316 N 
HETATM   29  C18 UNL     1      28.208  28.157  24.157  1.00  0.00     0.291 A 
HETATM   30  C19 UNL     1      30.367  29.222  24.472  1.00  0.00     0.160 C 
HETATM   31  S1  UNL     1      26.649  28.324  24.817  1.00  0.00    -0.025 SA
HETATM   32  O1  UNL     1      28.621  27.343  23.251  1.00  0.00    -0.259 OA
ENDBRANCH   1  25
TORSDOF 4
ENDMDL
