MODEL 12
REMARK VINA RESULT: -8.988522847      1.506      1.710
REMARK  4 active torsions:
REMARK  status: ('A' for Active; 'I' for Inactive)
REMARK    1  A    between atoms: C3_3  and  C4_4 
REMARK    2  A    between atoms: C7_9  and  N2_10 
REMARK    3  A    between atoms: N2_10  and  C8_12 
REMARK    4  A    between atoms: C11_15  and  N3_16 
ROOT
HETATM    1  C4  UNL     1      25.931  29.800  27.178  1.00  0.00     0.069 A 
HETATM    2  C5  UNL     1      26.147  31.114  27.504  1.00  0.00     0.049 A 
HETATM    3  C6  UNL     1      25.268  31.799  28.326  1.00  0.00     0.108 A 
HETATM    4  N1  UNL     1      24.202  31.135  28.789  1.00  0.00    -0.202 N 
ATOM      5  H1  UNL     1      23.543  31.622  29.395  1.00  0.00     0.183 HD
HETATM    6  C7  UNL     1      23.978  29.865  28.484  1.00  0.00     0.683 A 
HETATM    7  N5  UNL     1      24.856  29.182  27.664  1.00  0.00    -0.190 N 
ATOM      8  H5  UNL     1      24.681  28.204  27.432  1.00  0.00     0.184 HD
ENDROOT
BRANCH   6   9
HETATM    9  N2  UNL     1      22.857  29.163  28.970  1.00  0.00    -0.192 N 
ATOM     10  H2  UNL     1      22.170  29.705  29.492  1.00  0.00     0.184 HD
BRANCH   9  11
HETATM   11  C8  UNL     1      22.587  27.788  28.811  1.00  0.00     0.049 A 
HETATM   12  C9  UNL     1      22.444  26.995  29.951  1.00  0.00     0.032 A 
HETATM   13  C10 UNL     1      22.194  25.647  29.874  1.00  0.00     0.031 A 
HETATM   14  C11 UNL     1      22.069  24.996  28.670  1.00  0.00     0.030 A 
HETATM   15  C16 UNL     1      22.210  25.778  27.544  1.00  0.00     0.031 A 
HETATM   16  C17 UNL     1      22.466  27.155  27.606  1.00  0.00     0.032 A 
BRANCH  14  17
HETATM   17  N3  UNL     1      21.809  23.617  28.573  1.00  0.00    -0.378 N 
HETATM   18  C12 UNL     1      21.579  22.949  27.294  1.00  0.00     0.150 C 
HETATM   19  C13 UNL     1      22.040  21.516  27.505  1.00  0.00     0.252 C 
HETATM   20  N4  UNL     1      23.244  21.470  28.341  1.00  0.00    -0.072 N 
HETATM   21  C14 UNL     1      22.948  21.849  29.710  1.00  0.00     0.252 C 
ATOM     22  H42 UNL     1      23.698  20.558  28.295  1.00  0.00     0.277 HD
ATOM     23  H41 UNL     1      23.995  22.038  27.949  1.00  0.00     0.277 HD
HETATM   24  C15 UNL     1      21.746  22.769  29.738  1.00  0.00     0.150 C 
ENDBRANCH  14  17
ENDBRANCH   9  11
ENDBRANCH   6   9
BRANCH   1  25
HETATM   25  C3  UNL     1      26.881  29.085  26.302  1.00  0.00     0.059 A 
HETATM   26  C2  UNL     1      26.997  27.737  26.101  1.00  0.00     0.030 A 
HETATM   27  C1  UNL     1      26.065  26.790  26.844  1.00  0.00     0.070 C 
HETATM   28  N6  UNL     1      27.918  27.323  25.271  1.00  0.00    -0.316 N 
HETATM   29  C18 UNL     1      28.686  28.234  24.671  1.00  0.00     0.291 A 
HETATM   30  C19 UNL     1      28.159  25.883  24.963  1.00  0.00     0.160 C 
HETATM   31  S1  UNL     1      28.101  29.709  25.284  1.00  0.00    -0.025 SA
HETATM   32  O1  UNL     1      29.637  28.027  23.829  1.00  0.00    -0.259 OA
ENDBRANCH   1  25
TORSDOF 4
ENDMDL
