MODEL 8
REMARK VINA RESULT: -9.283325678      3.118      5.711
REMARK  4 active torsions:
REMARK  status: ('A' for Active; 'I' for Inactive)
REMARK    1  A    between atoms: C3_3  and  C4_4 
REMARK    2  A    between atoms: C7_9  and  N2_10 
REMARK    3  A    between atoms: N2_10  and  C8_12 
REMARK    4  A    between atoms: C11_15  and  N3_16 
ROOT
HETATM    1  C4  UNL     1      27.597  28.567  24.912  1.00  0.00     0.069 A 
HETATM    2  C5  UNL     1      28.954  28.634  24.729  1.00  0.00     0.049 A 
HETATM    3  C6  UNL     1      29.606  27.749  23.888  1.00  0.00     0.108 A 
HETATM    4  N1  UNL     1      28.867  26.826  23.263  1.00  0.00    -0.202 N 
ATOM      5  H1  UNL     1      29.328  26.164  22.639  1.00  0.00     0.183 HD
HETATM    6  C7  UNL     1      27.554  26.746  23.427  1.00  0.00     0.683 A 
HETATM    7  N5  UNL     1      26.904  27.631  24.266  1.00  0.00    -0.190 N 
ATOM      8  H5  UNL     1      25.893  27.567  24.390  1.00  0.00     0.184 HD
ENDROOT
BRANCH   6   9
HETATM    9  N2  UNL     1      26.772  25.776  22.769  1.00  0.00    -0.192 N 
ATOM     10  H2  UNL     1      26.579  25.939  21.781  1.00  0.00     0.184 HD
BRANCH   9  11
HETATM   11  C8  UNL     1      26.229  24.604  23.333  1.00  0.00     0.049 A 
HETATM   12  C9  UNL     1      25.186  24.722  24.253  1.00  0.00     0.032 A 
HETATM   13  C10 UNL     1      24.616  23.626  24.853  1.00  0.00     0.031 A 
HETATM   14  C11 UNL     1      25.038  22.345  24.585  1.00  0.00     0.030 A 
HETATM   15  C16 UNL     1      26.067  22.228  23.676  1.00  0.00     0.031 A 
HETATM   16  C17 UNL     1      26.660  23.337  23.056  1.00  0.00     0.032 A 
BRANCH  14  17
HETATM   17  N3  UNL     1      24.463  21.212  25.187  1.00  0.00    -0.378 N 
HETATM   18  C12 UNL     1      24.994  20.617  26.411  1.00  0.00     0.150 C 
HETATM   19  C13 UNL     1      23.801  19.964  27.087  1.00  0.00     0.252 C 
HETATM   20  N4  UNL     1      22.597  20.786  26.936  1.00  0.00    -0.072 N 
HETATM   21  C14 UNL     1      22.137  20.798  25.559  1.00  0.00     0.252 C 
ATOM     22  H42 UNL     1      21.858  20.491  27.574  1.00  0.00     0.277 HD
ATOM     23  H41 UNL     1      22.741  21.732  27.290  1.00  0.00     0.277 HD
HETATM   24  C15 UNL     1      23.306  20.556  24.628  1.00  0.00     0.150 C 
ENDBRANCH  14  17
ENDBRANCH   9  11
ENDBRANCH   6   9
BRANCH   1  25
HETATM   25  C3  UNL     1      26.918  29.522  25.812  1.00  0.00     0.059 A 
HETATM   26  C2  UNL     1      26.008  29.257  26.797  1.00  0.00     0.030 A 
HETATM   27  C1  UNL     1      25.592  27.816  27.058  1.00  0.00     0.070 C 
HETATM   28  N6  UNL     1      25.533  30.268  27.476  1.00  0.00    -0.316 N 
HETATM   29  C18 UNL     1      25.963  31.494  27.168  1.00  0.00     0.291 A 
HETATM   30  C19 UNL     1      24.533  30.124  28.573  1.00  0.00     0.160 C 
HETATM   31  S1  UNL     1      27.060  31.221  25.898  1.00  0.00    -0.025 SA
HETATM   32  O1  UNL     1      25.618  32.606  27.716  1.00  0.00    -0.259 OA
ENDBRANCH   1  25
TORSDOF 4
ENDMDL
