MODEL 4
REMARK VINA RESULT: -9.518815856      3.074      5.825
REMARK  4 active torsions:
REMARK  status: ('A' for Active; 'I' for Inactive)
REMARK    1  A    between atoms: C3_3  and  C4_4 
REMARK    2  A    between atoms: C7_9  and  N2_10 
REMARK    3  A    between atoms: N2_10  and  C8_12 
REMARK    4  A    between atoms: C11_15  and  N3_16 
ROOT
HETATM    1  C4  UNL     1      28.059  29.739  25.529  1.00  0.00     0.069 A 
HETATM    2  C5  UNL     1      29.386  30.053  25.667  1.00  0.00     0.049 A 
HETATM    3  C6  UNL     1      30.351  29.432  24.893  1.00  0.00     0.108 A 
HETATM    4  N1  UNL     1      29.944  28.514  24.009  1.00  0.00    -0.202 N 
ATOM      5  H1  UNL     1      30.640  28.044  23.430  1.00  0.00     0.183 HD
HETATM    6  C7  UNL     1      28.665  28.198  23.861  1.00  0.00     0.683 A 
HETATM    7  N5  UNL     1      27.703  28.819  24.633  1.00  0.00    -0.190 N 
ATOM      8  H5  UNL     1      26.719  28.574  24.517  1.00  0.00     0.184 HD
ENDROOT
BRANCH   6   9
HETATM    9  N2  UNL     1      28.233  27.233  22.930  1.00  0.00    -0.192 N 
ATOM     10  H2  UNL     1      28.480  27.398  21.954  1.00  0.00     0.184 HD
BRANCH   9  11
HETATM   11  C8  UNL     1      27.495  26.064  23.205  1.00  0.00     0.049 A 
HETATM   12  C9  UNL     1      27.067  25.833  24.514  1.00  0.00     0.032 A 
HETATM   13  C10 UNL     1      26.355  24.710  24.861  1.00  0.00     0.031 A 
HETATM   14  C11 UNL     1      26.020  23.746  23.939  1.00  0.00     0.030 A 
HETATM   15  C16 UNL     1      26.442  23.974  22.647  1.00  0.00     0.031 A 
HETATM   16  C17 UNL     1      27.170  25.114  22.279  1.00  0.00     0.032 A 
BRANCH  14  17
HETATM   17  N3  UNL     1      25.288  22.592  24.276  1.00  0.00    -0.378 N 
HETATM   18  C12 UNL     1      25.931  21.345  24.683  1.00  0.00     0.150 C 
HETATM   19  C13 UNL     1      24.925  20.657  25.591  1.00  0.00     0.252 C 
HETATM   20  N4  UNL     1      24.232  21.632  26.440  1.00  0.00    -0.072 N 
HETATM   21  C14 UNL     1      23.342  22.471  25.659  1.00  0.00     0.252 C 
ATOM     22  H42 UNL     1      23.739  21.177  27.208  1.00  0.00     0.277 HD
ATOM     23  H41 UNL     1      24.890  22.190  26.985  1.00  0.00     0.277 HD
HETATM   24  C15 UNL     1      23.847  22.566  24.235  1.00  0.00     0.150 C 
ENDBRANCH  14  17
ENDBRANCH   9  11
ENDBRANCH   6   9
BRANCH   1  25
HETATM   25  C3  UNL     1      27.043  30.415  26.361  1.00  0.00     0.059 A 
HETATM   26  C2  UNL     1      26.106  29.848  27.180  1.00  0.00     0.030 A 
HETATM   27  C1  UNL     1      26.040  28.331  27.299  1.00  0.00     0.070 C 
HETATM   28  N6  UNL     1      25.300  30.647  27.829  1.00  0.00    -0.316 N 
HETATM   29  C18 UNL     1      25.440  31.963  27.655  1.00  0.00     0.291 A 
HETATM   30  C19 UNL     1      24.231  30.165  28.751  1.00  0.00     0.160 C 
HETATM   31  S1  UNL     1      26.732  32.082  26.556  1.00  0.00    -0.025 SA
HETATM   32  O1  UNL     1      24.751  32.903  28.200  1.00  0.00    -0.259 OA
ENDBRANCH   1  25
TORSDOF 4
ENDMDL
