MODEL 3
REMARK VINA RESULT: -8.196219257      3.056     11.117
REMARK  13 active torsions:
REMARK  status: ('A' for Active; 'I' for Inactive)
REMARK    1  A    between atoms: N5_13  and  C6_14 
REMARK    2  A    between atoms: C7_16  and  C8_17 
REMARK    3  A    between atoms: C8_17  and  O2_18 
REMARK    4  A    between atoms: C8_17  and  N6_20 
REMARK    5  A    between atoms: N6_20  and  S1_22 
REMARK    6  A    between atoms: S1_22  and  C9_25 
REMARK    7  A    between atoms: C9_25  and  C10_26 
REMARK    8  A    between atoms: C11_27  and  C12_28 
REMARK    9  A    between atoms: C12_28  and  O5_29 
REMARK   10  A    between atoms: C13_32  and  N7_33 
REMARK   11  A    between atoms: C18_42  and  O9_43 
REMARK   12  A    between atoms: C19_45  and  O10_46 
REMARK   13  A    between atoms: C20_48  and  O11_49 
ROOT
HETATM    1  C8  UNL     1      41.682   2.839  13.358  1.00  0.00     0.259 C 
ENDROOT
BRANCH   1   2
HETATM    2  C7  UNL     1      42.289   2.988  11.980  1.00  0.00     0.204 C 
HETATM    3  O1  UNL     1      41.474   3.738  11.136  1.00  0.00    -0.351 OA
HETATM    4  C6  UNL     1      42.351   4.265  10.211  1.00  0.00     0.262 C 
HETATM    5  C20 UNL     1      43.434   4.844  11.137  1.00  0.00     0.198 C 
HETATM    6  C19 UNL     1      43.658   3.586  11.995  1.00  0.00     0.184 C 
BRANCH   4   7
HETATM    7  N5  UNL     1      41.766   5.292   9.398  1.00  0.00    -0.297 N 
HETATM    8  C3  UNL     1      42.161   5.630   8.151  1.00  0.00     0.142 A 
HETATM    9  N3  UNL     1      43.118   5.188   7.327  1.00  0.00    -0.336 N 
HETATM   10  C4  UNL     1      41.342   6.672   7.700  1.00  0.00     0.119 A 
HETATM   11  C2  UNL     1      43.314   5.699   6.110  1.00  0.00     0.183 A 
ATOM     12  H3  UNL     1      43.722   4.430   7.642  1.00  0.00     0.168 HD
HETATM   13  N2  UNL     1      42.514   6.700   5.701  1.00  0.00    -0.339 N 
HETATM   14  C1  UNL     1      41.526   7.216   6.446  1.00  0.00     0.148 A 
ATOM     15  H2  UNL     1      42.668   7.089   4.770  1.00  0.00     0.167 HD
HETATM   16  N1  UNL     1      40.701   8.268   5.990  1.00  0.00    -0.080 NA
HETATM   17  N4  UNL     1      40.483   6.933   8.676  1.00  0.00    -0.346 N 
HETATM   18  C5  UNL     1      40.749   6.089   9.701  1.00  0.00     0.188 A 
ATOM     19  H4  UNL     1      39.752   7.644   8.659  1.00  0.00     0.167 HD
ENDBRANCH   4   7
BRANCH   5  20
HETATM   20  O11 UNL     1      44.559   5.219  10.456  1.00  0.00    -0.388 OA
ATOM     21  H11 UNL     1      44.945   6.015  10.802  1.00  0.00     0.210 HD
ENDBRANCH   5  20
BRANCH   6  22
HETATM   22  O10 UNL     1      44.504   2.781  11.204  1.00  0.00    -0.390 OA
ATOM     23  H10 UNL     1      44.509   1.903  11.567  1.00  0.00     0.210 HD
ENDBRANCH   6  22
ENDBRANCH   1   2
BRANCH   1  24
HETATM   24  O2  UNL     1      40.642   3.825  13.392  1.00  0.00    -0.373 OA
ATOM     25  H2  UNL     1      40.054   3.568  12.692  1.00  0.00     0.212 HD
ENDBRANCH   1  24
BRANCH   1  26
HETATM   26  N6  UNL     1      41.143   1.548  13.546  1.00  0.00    -0.290 N 
ATOM     27  H6  UNL     1      41.762   0.748  13.683  1.00  0.00     0.174 HD
BRANCH  26  28
HETATM   28  S1  UNL     1      39.477   1.335  13.546  1.00  0.00     0.229 S 
HETATM   29  O3  UNL     1      38.964   2.027  12.260  1.00  0.00    -0.206 OA
HETATM   30  O4  UNL     1      38.822   2.145  14.646  1.00  0.00    -0.206 OA
BRANCH  28  31
HETATM   31  C9  UNL     1      38.883  -0.292  13.473  1.00  0.00     0.173 C 
BRANCH  31  32
HETATM   32  C10 UNL     1      38.123  -0.741  12.287  1.00  0.00     0.065 C 
HETATM   33  C11 UNL     1      36.683  -0.222  12.504  1.00  0.00     0.155 C 
HETATM   34  O6  UNL     1      36.033  -1.141  13.273  1.00  0.00    -0.356 OA
HETATM   35  C13 UNL     1      36.791  -2.300  13.371  1.00  0.00     0.261 C 
HETATM   36  C18 UNL     1      37.812  -2.222  12.248  1.00  0.00     0.175 C 
BRANCH  33  37
HETATM   37  C12 UNL     1      36.037  -0.031  11.159  1.00  0.00     0.196 C 
BRANCH  37  38
HETATM   38  O5  UNL     1      36.665   0.924  10.395  1.00  0.00    -0.398 OA
ATOM     39  H5  UNL     1      36.220   1.091   9.573  1.00  0.00     0.209 HD
ENDBRANCH  37  38
ENDBRANCH  33  37
BRANCH  35  40
HETATM   40  N7  UNL     1      35.930  -3.444  13.245  1.00  0.00    -0.280 N 
HETATM   41  C14 UNL     1      34.742  -3.390  12.579  1.00  0.00     0.104 A 
HETATM   42  C15 UNL     1      33.946  -4.509  12.482  1.00  0.00     0.092 A 
HETATM   43  C16 UNL     1      34.315  -5.705  13.045  1.00  0.00     0.250 A 
HETATM   44  O7  UNL     1      33.599  -6.724  12.961  1.00  0.00    -0.268 OA
HETATM   45  N8  UNL     1      35.487  -5.738  13.696  1.00  0.00    -0.275 N 
HETATM   46  C17 UNL     1      36.267  -4.629  13.788  1.00  0.00     0.331 A 
ATOM     47  H8  UNL     1      35.796  -6.608  14.128  1.00  0.00     0.173 HD
HETATM   48  O8  UNL     1      37.353  -4.756  14.420  1.00  0.00    -0.246 OA
ENDBRANCH  35  40
BRANCH  36  49
HETATM   49  O9  UNL     1      38.885  -3.049  12.396  1.00  0.00    -0.391 OA
ATOM     50  H9  UNL     1      38.696  -3.978  12.332  1.00  0.00     0.210 HD
ENDBRANCH  36  49
ENDBRANCH  31  32
ENDBRANCH  28  31
ENDBRANCH  26  28
ENDBRANCH   1  26
TORSDOF 13
ENDMDL
