MODEL 1
REMARK VINA RESULT: -8.457810320      0.000      0.000
REMARK  13 active torsions:
REMARK  status: ('A' for Active; 'I' for Inactive)
REMARK    1  A    between atoms: N5_13  and  C6_14 
REMARK    2  A    between atoms: C7_16  and  C8_17 
REMARK    3  A    between atoms: C8_17  and  O2_18 
REMARK    4  A    between atoms: C8_17  and  N6_20 
REMARK    5  A    between atoms: N6_20  and  S1_22 
REMARK    6  A    between atoms: S1_22  and  C9_25 
REMARK    7  A    between atoms: C9_25  and  C10_26 
REMARK    8  A    between atoms: C11_27  and  C12_28 
REMARK    9  A    between atoms: C12_28  and  O5_29 
REMARK   10  A    between atoms: C13_32  and  N7_33 
REMARK   11  A    between atoms: C18_42  and  O9_43 
REMARK   12  A    between atoms: C19_45  and  O10_46 
REMARK   13  A    between atoms: C20_48  and  O11_49 
ROOT
HETATM    1  C8  UNL     1      40.545   3.949  12.982  1.00  0.00     0.259 C 
ENDROOT
BRANCH   1   2
HETATM    2  C7  UNL     1      39.250   3.372  12.454  1.00  0.00     0.204 C 
HETATM    3  O1  UNL     1      39.135   2.015  12.742  1.00  0.00    -0.351 OA
HETATM    4  C6  UNL     1      37.775   1.792  12.753  1.00  0.00     0.262 C 
HETATM    5  C20 UNL     1      37.303   2.933  13.670  1.00  0.00     0.198 C 
HETATM    6  C19 UNL     1      38.035   4.082  12.955  1.00  0.00     0.184 C 
BRANCH   4   7
HETATM    7  N5  UNL     1      37.415   0.514  13.294  1.00  0.00    -0.297 N 
HETATM    8  C3  UNL     1      36.719  -0.448  12.649  1.00  0.00     0.142 A 
HETATM    9  N3  UNL     1      36.181  -0.546  11.428  1.00  0.00    -0.336 N 
HETATM   10  C4  UNL     1      36.575  -1.540  13.513  1.00  0.00     0.119 A 
HETATM   11  C2  UNL     1      35.524  -1.630  11.014  1.00  0.00     0.183 A 
ATOM     12  H3  UNL     1      36.278   0.242  10.787  1.00  0.00     0.168 HD
HETATM   13  N2  UNL     1      35.399  -2.664  11.864  1.00  0.00    -0.339 N 
HETATM   14  C1  UNL     1      35.899  -2.671  13.108  1.00  0.00     0.148 A 
ATOM     15  H2  UNL     1      34.894  -3.491  11.544  1.00  0.00     0.167 HD
HETATM   16  N1  UNL     1      35.753  -3.773  13.979  1.00  0.00    -0.080 NA
HETATM   17  N4  UNL     1      37.181  -1.212  14.647  1.00  0.00    -0.346 N 
HETATM   18  C5  UNL     1      37.687   0.035  14.502  1.00  0.00     0.188 A 
ATOM     19  H4  UNL     1      37.253  -1.796  15.480  1.00  0.00     0.167 HD
ENDBRANCH   4   7
BRANCH   5  20
HETATM   20  O11 UNL     1      35.944   3.089  13.656  1.00  0.00    -0.388 OA
ATOM     21  H11 UNL     1      35.516   2.613  14.358  1.00  0.00     0.210 HD
ENDBRANCH   5  20
BRANCH   6  22
HETATM   22  O10 UNL     1      37.206   4.378  11.853  1.00  0.00    -0.390 OA
ATOM     23  H10 UNL     1      37.236   5.316  11.699  1.00  0.00     0.210 HD
ENDBRANCH   6  22
ENDBRANCH   1   2
BRANCH   1  24
HETATM   24  O2  UNL     1      41.372   2.802  13.215  1.00  0.00    -0.373 OA
ATOM     25  H2  UNL     1      41.649   2.894  14.119  1.00  0.00     0.212 HD
ENDBRANCH   1  24
BRANCH   1  26
HETATM   26  N6  UNL     1      41.149   4.809  12.038  1.00  0.00    -0.290 N 
ATOM     27  H6  UNL     1      40.737   5.720  11.836  1.00  0.00     0.174 HD
BRANCH  26  28
HETATM   28  S1  UNL     1      42.550   4.322  11.250  1.00  0.00     0.229 S 
HETATM   29  O3  UNL     1      42.224   2.948  10.618  1.00  0.00    -0.206 OA
HETATM   30  O4  UNL     1      43.645   3.983  12.241  1.00  0.00    -0.206 OA
BRANCH  28  31
HETATM   31  C9  UNL     1      43.116   5.316   9.948  1.00  0.00     0.173 C 
BRANCH  31  32
HETATM   32  C10 UNL     1      42.400   5.305   8.654  1.00  0.00     0.065 C 
HETATM   33  C11 UNL     1      43.412   5.856   7.623  1.00  0.00     0.155 C 
HETATM   34  O6  UNL     1      43.330   7.216   7.661  1.00  0.00    -0.356 OA
HETATM   35  C13 UNL     1      42.222   7.604   8.402  1.00  0.00     0.261 C 
HETATM   36  C18 UNL     1      41.338   6.373   8.500  1.00  0.00     0.175 C 
BRANCH  33  37
HETATM   37  C12 UNL     1      43.069   5.292   6.270  1.00  0.00     0.196 C 
BRANCH  37  38
HETATM   38  O5  UNL     1      43.414   6.131   5.238  1.00  0.00    -0.398 OA
ATOM     39  H5  UNL     1      44.098   5.775   4.685  1.00  0.00     0.209 HD
ENDBRANCH  37  38
ENDBRANCH  33  37
BRANCH  35  40
HETATM   40  N7  UNL     1      41.564   8.696   7.738  1.00  0.00    -0.280 N 
HETATM   41  C14 UNL     1      41.267   8.666   6.408  1.00  0.00     0.104 A 
HETATM   42  C15 UNL     1      40.636   9.733   5.811  1.00  0.00     0.092 A 
HETATM   43  C16 UNL     1      40.287  10.853   6.523  1.00  0.00     0.250 A 
HETATM   44  O7  UNL     1      39.714  11.825   5.988  1.00  0.00    -0.268 OA
HETATM   45  N8  UNL     1      40.587  10.864   7.830  1.00  0.00    -0.275 N 
HETATM   46  C17 UNL     1      41.210   9.806   8.413  1.00  0.00     0.331 A 
ATOM     47  H8  UNL     1      40.344  11.678   8.394  1.00  0.00     0.173 HD
HETATM   48  O8  UNL     1      41.453   9.907   9.648  1.00  0.00    -0.246 OA
ENDBRANCH  35  40
BRANCH  36  49
HETATM   49  O9  UNL     1      40.406   6.418   9.493  1.00  0.00    -0.391 OA
ATOM     50  H9  UNL     1      39.631   5.889   9.350  1.00  0.00     0.210 HD
ENDBRANCH  36  49
ENDBRANCH  31  32
ENDBRANCH  28  31
ENDBRANCH  26  28
ENDBRANCH   1  26
TORSDOF 13
ENDMDL
