MODEL 4
REMARK VINA RESULT: -6.868447459      0.140      2.775
REMARK  3 active torsions:
REMARK  status: ('A' for Active; 'I' for Inactive)
REMARK    1  A    between atoms: C1_2  and  C2_4 
REMARK    2  A    between atoms: C3_7  and  C4_8 
REMARK    3  A    between atoms: C10_16  and  C11_17 
ROOT
HETATM    1  C2  UNL     1     -42.394  18.682  15.273  1.00  0.00     0.145 A 
HETATM    2  N1  UNL     1     -41.216  18.238  15.788  1.00  0.00    -0.334 N 
ATOM      3  H1  UNL     1     -40.945  18.327  16.767  1.00  0.00     0.168 HD
HETATM    4  C3  UNL     1     -40.461  17.669  14.842  1.00  0.00     0.117 A 
HETATM    5  N2  UNL     1     -41.173  17.752  13.710  1.00  0.00    -0.334 N 
ATOM      6  H2  UNL     1     -40.863  17.402  12.804  1.00  0.00     0.168 HD
HETATM    7  C10 UNL     1     -42.372  18.372  13.936  1.00  0.00     0.145 A 
ENDROOT
BRANCH   4   8
HETATM    8  C4  UNL     1     -39.129  17.076  15.015  1.00  0.00     0.008 A 
HETATM    9  C5  UNL     1     -38.706  16.741  16.282  1.00  0.00     0.015 A 
HETATM   10  C6  UNL     1     -37.461  16.180  16.499  1.00  0.00     0.001 A 
HETATM   11  C7  UNL     1     -36.605  15.938  15.458  1.00  0.00     0.000 A 
HETATM   12  C8  UNL     1     -37.034  16.276  14.178  1.00  0.00     0.001 A 
HETATM   13  C9  UNL     1     -38.273  16.833  13.976  1.00  0.00     0.015 A 
ENDBRANCH   4   8
BRANCH   1  14
HETATM   14  C1  UNL     1     -43.435  19.350  16.056  1.00  0.00     0.229 C 
HETATM   15  O1  UNL     1     -43.224  20.570  16.389  1.00  0.00    -0.643 OA
HETATM   16  O2  UNL     1     -44.614  18.789  16.464  1.00  0.00    -0.643 OA
ENDBRANCH   1  14
BRANCH   7  17
HETATM   17  C11 UNL     1     -43.395  18.636  12.944  1.00  0.00     0.229 C 
HETATM   18  O3  UNL     1     -43.387  19.544  12.104  1.00  0.00    -0.643 OA
HETATM   19  O4  UNL     1     -44.518  17.784  12.922  1.00  0.00    -0.643 OA
ENDBRANCH   7  17
TORSDOF 3
ENDMDL
