MODEL 3
REMARK VINA RESULT: -6.914343868      0.082      2.420
REMARK  3 active torsions:
REMARK  status: ('A' for Active; 'I' for Inactive)
REMARK    1  A    between atoms: C1_2  and  C2_4 
REMARK    2  A    between atoms: C3_7  and  C4_8 
REMARK    3  A    between atoms: C10_16  and  C11_17 
ROOT
HETATM    1  C2  UNL     1     -42.354  18.738  15.275  1.00  0.00     0.145 A 
HETATM    2  N1  UNL     1     -41.190  18.286  15.814  1.00  0.00    -0.334 N 
ATOM      3  H1  UNL     1     -40.927  18.398  16.793  1.00  0.00     0.168 HD
HETATM    4  C3  UNL     1     -40.437  17.674  14.894  1.00  0.00     0.117 A 
HETATM    5  N2  UNL     1     -41.136  17.739  13.753  1.00  0.00    -0.334 N 
ATOM      6  H2  UNL     1     -40.824  17.356  12.860  1.00  0.00     0.168 HD
HETATM    7  C10 UNL     1     -42.324  18.388  13.947  1.00  0.00     0.145 A 
ENDROOT
BRANCH   4   8
HETATM    8  C4  UNL     1     -39.119  17.061  15.098  1.00  0.00     0.008 A 
HETATM    9  C5  UNL     1     -38.304  16.850  14.008  1.00  0.00     0.015 A 
HETATM   10  C6  UNL     1     -37.054  16.276  14.146  1.00  0.00     0.001 A 
HETATM   11  C7  UNL     1     -36.583  15.896  15.375  1.00  0.00     0.000 A 
HETATM   12  C8  UNL     1     -37.408  16.110  16.475  1.00  0.00     0.001 A 
HETATM   13  C9  UNL     1     -38.648  16.681  16.325  1.00  0.00     0.015 A 
ENDBRANCH   4   8
BRANCH   1  14
HETATM   14  C1  UNL     1     -43.389  19.449  16.027  1.00  0.00     0.229 C 
HETATM   15  O1  UNL     1     -44.474  18.813  16.274  1.00  0.00    -0.643 OA
HETATM   16  O2  UNL     1     -43.302  20.733  16.491  1.00  0.00    -0.643 OA
ENDBRANCH   1  14
BRANCH   7  17
HETATM   17  C11 UNL     1     -43.333  18.643  12.938  1.00  0.00     0.229 C 
HETATM   18  O3  UNL     1     -43.312  19.544  12.091  1.00  0.00    -0.643 OA
HETATM   19  O4  UNL     1     -44.453  17.789  12.904  1.00  0.00    -0.643 OA
ENDBRANCH   7  17
TORSDOF 3
ENDMDL
