MODEL 1
REMARK VINA RESULT: -6.994215859      0.000      0.000
REMARK  3 active torsions:
REMARK  status: ('A' for Active; 'I' for Inactive)
REMARK    1  A    between atoms: C1_2  and  C2_4 
REMARK    2  A    between atoms: C3_7  and  C4_8 
REMARK    3  A    between atoms: C10_16  and  C11_17 
ROOT
HETATM    1  C2  UNL     1     -42.287  18.388  14.009  1.00  0.00     0.145 A 
HETATM    2  N1  UNL     1     -41.111  17.735  13.810  1.00  0.00    -0.334 N 
ATOM      3  H1  UNL     1     -40.813  17.344  12.917  1.00  0.00     0.168 HD
HETATM    4  C3  UNL     1     -40.395  17.676  14.938  1.00  0.00     0.117 A 
HETATM    5  N2  UNL     1     -41.130  18.302  15.867  1.00  0.00    -0.334 N 
ATOM      6  H2  UNL     1     -40.852  18.425  16.840  1.00  0.00     0.168 HD
HETATM    7  C10 UNL     1     -42.305  18.755  15.332  1.00  0.00     0.145 A 
ENDROOT
BRANCH   4   8
HETATM    8  C4  UNL     1     -39.078  17.053  15.115  1.00  0.00     0.008 A 
HETATM    9  C5  UNL     1     -38.275  16.863  14.013  1.00  0.00     0.015 A 
HETATM   10  C6  UNL     1     -37.026  16.281  14.126  1.00  0.00     0.001 A 
HETATM   11  C7  UNL     1     -36.545  15.873  15.341  1.00  0.00     0.000 A 
HETATM   12  C8  UNL     1     -37.357  16.065  16.454  1.00  0.00     0.001 A 
HETATM   13  C9  UNL     1     -38.596  16.645  16.329  1.00  0.00     0.015 A 
ENDBRANCH   4   8
BRANCH   1  14
HETATM   14  C1  UNL     1     -43.289  18.617  12.966  1.00  0.00     0.229 C 
HETATM   15  O1  UNL     1     -44.325  17.862  12.974  1.00  0.00    -0.643 OA
HETATM   16  O2  UNL     1     -43.219  19.565  11.983  1.00  0.00    -0.643 OA
ENDBRANCH   1  14
BRANCH   7  17
HETATM   17  C11 UNL     1     -43.343  19.476  16.041  1.00  0.00     0.229 C 
HETATM   18  O3  UNL     1     -43.278  20.642  16.451  1.00  0.00    -0.643 OA
HETATM   19  O4  UNL     1     -44.552  18.798  16.296  1.00  0.00    -0.643 OA
ENDBRANCH   7  17
TORSDOF 3
ENDMDL
