MODEL 18
REMARK VINA RESULT: -5.104363074      3.607      4.537
REMARK  3 active torsions:
REMARK  status: ('A' for Active; 'I' for Inactive)
REMARK    1  A    between atoms: C1_2  and  C2_4 
REMARK    2  A    between atoms: C3_7  and  C4_8 
REMARK    3  A    between atoms: C10_16  and  C11_17 
ROOT
HETATM    1  C2  UNL     1     -39.495  15.848  15.298  1.00  0.00     0.145 A 
HETATM    2  N1  UNL     1     -38.854  15.085  16.224  1.00  0.00    -0.334 N 
ATOM      3  H1  UNL     1     -38.136  14.395  16.005  1.00  0.00     0.168 HD
HETATM    4  C3  UNL     1     -39.288  15.360  17.459  1.00  0.00     0.117 A 
HETATM    5  N2  UNL     1     -40.218  16.313  17.313  1.00  0.00    -0.334 N 
ATOM      6  H2  UNL     1     -40.739  16.737  18.080  1.00  0.00     0.168 HD
HETATM    7  C10 UNL     1     -40.374  16.641  15.993  1.00  0.00     0.145 A 
ENDROOT
BRANCH   4   8
HETATM    8  C4  UNL     1     -38.835  14.742  18.711  1.00  0.00     0.008 A 
HETATM    9  C5  UNL     1     -37.918  13.716  18.657  1.00  0.00     0.015 A 
HETATM   10  C6  UNL     1     -37.459  13.100  19.806  1.00  0.00     0.001 A 
HETATM   11  C7  UNL     1     -37.903  13.492  21.041  1.00  0.00     0.000 A 
HETATM   12  C8  UNL     1     -38.829  14.529  21.095  1.00  0.00     0.001 A 
HETATM   13  C9  UNL     1     -39.277  15.132  19.946  1.00  0.00     0.015 A 
ENDBRANCH   4   8
BRANCH   1  14
HETATM   14  C1  UNL     1     -39.241  15.781  13.858  1.00  0.00     0.229 C 
HETATM   15  O1  UNL     1     -39.545  14.689  13.260  1.00  0.00    -0.643 OA
HETATM   16  O2  UNL     1     -38.708  16.781  13.091  1.00  0.00    -0.643 OA
ENDBRANCH   1  14
BRANCH   7  17
HETATM   17  C11 UNL     1     -41.291  17.630  15.463  1.00  0.00     0.229 C 
HETATM   18  O3  UNL     1     -41.133  18.857  15.473  1.00  0.00    -0.643 OA
HETATM   19  O4  UNL     1     -42.484  17.165  14.874  1.00  0.00    -0.643 OA
ENDBRANCH   7  17
TORSDOF 3
ENDMDL
