MODEL 5
REMARK VINA RESULT: -6.114415007      1.363      2.815
REMARK  3 active torsions:
REMARK  status: ('A' for Active; 'I' for Inactive)
REMARK    1  A    between atoms: C1_2  and  C2_4 
REMARK    2  A    between atoms: C3_7  and  C4_8 
REMARK    3  A    between atoms: C10_16  and  C11_17 
ROOT
HETATM    1  C2  UNL     1     -42.025  17.821  16.633  1.00  0.00     0.145 A 
HETATM    2  N1  UNL     1     -40.763  17.322  16.709  1.00  0.00    -0.334 N 
ATOM      3  H1  UNL     1     -40.270  17.130  17.580  1.00  0.00     0.168 HD
HETATM    4  C3  UNL     1     -40.252  17.114  15.490  1.00  0.00     0.117 A 
HETATM    5  N2  UNL     1     -41.208  17.487  14.628  1.00  0.00    -0.334 N 
ATOM      6  H2  UNL     1     -41.121  17.446  13.613  1.00  0.00     0.168 HD
HETATM    7  C10 UNL     1     -42.317  17.930  15.296  1.00  0.00     0.145 A 
ENDROOT
BRANCH   4   8
HETATM    8  C4  UNL     1     -38.921  16.585  15.169  1.00  0.00     0.008 A 
HETATM    9  C5  UNL     1     -38.607  16.316  13.856  1.00  0.00     0.015 A 
HETATM   10  C6  UNL     1     -37.367  15.817  13.501  1.00  0.00     0.001 A 
HETATM   11  C7  UNL     1     -36.407  15.574  14.447  1.00  0.00     0.000 A 
HETATM   12  C8  UNL     1     -36.725  15.847  15.774  1.00  0.00     0.001 A 
HETATM   13  C9  UNL     1     -37.961  16.343  16.113  1.00  0.00     0.015 A 
ENDBRANCH   4   8
BRANCH   1  14
HETATM   14  C1  UNL     1     -42.851  18.153  17.795  1.00  0.00     0.229 C 
HETATM   15  O1  UNL     1     -43.823  17.364  18.067  1.00  0.00    -0.643 OA
HETATM   16  O2  UNL     1     -42.676  19.232  18.619  1.00  0.00    -0.643 OA
ENDBRANCH   1  14
BRANCH   7  17
HETATM   17  C11 UNL     1     -43.542  18.411  14.689  1.00  0.00     0.229 C 
HETATM   18  O3  UNL     1     -44.275  19.306  15.126  1.00  0.00    -0.643 OA
HETATM   19  O4  UNL     1     -43.954  17.810  13.482  1.00  0.00    -0.643 OA
ENDBRANCH   7  17
TORSDOF 3
ENDMDL
