MODEL 16
REMARK VINA RESULT: -5.270710855      4.373      5.659
REMARK  3 active torsions:
REMARK  status: ('A' for Active; 'I' for Inactive)
REMARK    1  A    between atoms: C1_2  and  C2_4 
REMARK    2  A    between atoms: C3_7  and  C4_8 
REMARK    3  A    between atoms: C10_16  and  C11_17 
ROOT
HETATM    1  C2  UNL     1     -39.221  14.031  14.840  1.00  0.00     0.145 A 
HETATM    2  N1  UNL     1     -39.038  13.543  16.095  1.00  0.00    -0.334 N 
ATOM      3  H1  UNL     1     -38.995  12.551  16.327  1.00  0.00     0.168 HD
HETATM    4  C3  UNL     1     -38.921  14.534  16.986  1.00  0.00     0.117 A 
HETATM    5  N2  UNL     1     -39.030  15.668  16.282  1.00  0.00    -0.334 N 
ATOM      6  H2  UNL     1     -38.981  16.606  16.682  1.00  0.00     0.168 HD
HETATM    7  C10 UNL     1     -39.216  15.400  14.953  1.00  0.00     0.145 A 
ENDROOT
BRANCH   4   8
HETATM    8  C4  UNL     1     -38.714  14.399  18.433  1.00  0.00     0.008 A 
HETATM    9  C5  UNL     1     -37.829  13.452  18.897  1.00  0.00     0.015 A 
HETATM   10  C6  UNL     1     -37.598  13.285  20.250  1.00  0.00     0.001 A 
HETATM   11  C7  UNL     1     -38.245  14.059  21.176  1.00  0.00     0.000 A 
HETATM   12  C8  UNL     1     -39.140  15.015  20.706  1.00  0.00     0.001 A 
HETATM   13  C9  UNL     1     -39.360  15.172  19.360  1.00  0.00     0.015 A 
ENDBRANCH   4   8
BRANCH   1  14
HETATM   14  C1  UNL     1     -39.382  13.198  13.647  1.00  0.00     0.229 C 
HETATM   15  O1  UNL     1     -38.346  12.571  13.227  1.00  0.00    -0.643 OA
HETATM   16  O2  UNL     1     -40.541  13.027  12.940  1.00  0.00    -0.643 OA
ENDBRANCH   1  14
BRANCH   7  17
HETATM   17  C11 UNL     1     -39.374  16.381  13.899  1.00  0.00     0.229 C 
HETATM   18  O3  UNL     1     -38.554  16.642  13.010  1.00  0.00    -0.643 OA
HETATM   19  O4  UNL     1     -40.575  17.119  13.867  1.00  0.00    -0.643 OA
ENDBRANCH   7  17
TORSDOF 3
ENDMDL
