MODEL 2
REMARK VINA RESULT: -6.988591528      0.095      1.145
REMARK  3 active torsions:
REMARK  status: ('A' for Active; 'I' for Inactive)
REMARK    1  A    between atoms: C1_2  and  C2_4 
REMARK    2  A    between atoms: C3_7  and  C4_8 
REMARK    3  A    between atoms: C10_16  and  C11_17 
ROOT
HETATM    1  C2  UNL     1     -42.360  18.382  13.969  1.00  0.00     0.145 A 
HETATM    2  N1  UNL     1     -41.186  17.736  13.736  1.00  0.00    -0.334 N 
ATOM      3  H1  UNL     1     -40.912  17.345  12.835  1.00  0.00     0.168 HD
HETATM    4  C3  UNL     1     -40.437  17.683  14.843  1.00  0.00     0.117 A 
HETATM    5  N2  UNL     1     -41.148  18.306  15.792  1.00  0.00    -0.334 N 
ATOM      6  H2  UNL     1     -40.842  18.432  16.757  1.00  0.00     0.168 HD
HETATM    7  C10 UNL     1     -42.341  18.751  15.292  1.00  0.00     0.145 A 
ENDROOT
BRANCH   4   8
HETATM    8  C4  UNL     1     -39.111  17.069  14.983  1.00  0.00     0.008 A 
HETATM    9  C5  UNL     1     -38.662  16.725  16.238  1.00  0.00     0.015 A 
HETATM   10  C6  UNL     1     -37.422  16.144  16.424  1.00  0.00     0.001 A 
HETATM   11  C7  UNL     1     -36.595  15.890  15.362  1.00  0.00     0.000 A 
HETATM   12  C8  UNL     1     -37.050  16.237  14.093  1.00  0.00     0.001 A 
HETATM   13  C9  UNL     1     -38.285  16.814  13.922  1.00  0.00     0.015 A 
ENDBRANCH   4   8
BRANCH   1  14
HETATM   14  C1  UNL     1     -43.394  18.602  12.956  1.00  0.00     0.229 C 
HETATM   15  O1  UNL     1     -44.403  17.813  12.969  1.00  0.00    -0.643 OA
HETATM   16  O2  UNL     1     -43.379  19.577  11.996  1.00  0.00    -0.643 OA
ENDBRANCH   1  14
BRANCH   7  17
HETATM   17  C11 UNL     1     -43.363  19.467  16.030  1.00  0.00     0.229 C 
HETATM   18  O3  UNL     1     -43.293  20.633  16.436  1.00  0.00    -0.643 OA
HETATM   19  O4  UNL     1     -44.559  18.781  16.322  1.00  0.00    -0.643 OA
ENDBRANCH   7  17
TORSDOF 3
ENDMDL
