MODEL 17
REMARK VINA RESULT: -5.142308507      4.097      5.574
REMARK  3 active torsions:
REMARK  status: ('A' for Active; 'I' for Inactive)
REMARK    1  A    between atoms: C1_2  and  C2_4 
REMARK    2  A    between atoms: C3_7  and  C4_8 
REMARK    3  A    between atoms: C10_16  and  C11_17 
ROOT
HETATM    1  C2  UNL     1     -39.494  16.184  15.549  1.00  0.00     0.145 A 
HETATM    2  N1  UNL     1     -39.396  16.148  16.904  1.00  0.00    -0.334 N 
ATOM      3  H1  UNL     1     -39.653  16.917  17.522  1.00  0.00     0.168 HD
HETATM    4  C3  UNL     1     -38.919  14.970  17.322  1.00  0.00     0.117 A 
HETATM    5  N2  UNL     1     -38.713  14.248  16.213  1.00  0.00    -0.334 N 
ATOM      6  H2  UNL     1     -38.350  13.295  16.200  1.00  0.00     0.168 HD
HETATM    7  C10 UNL     1     -39.055  14.963  15.098  1.00  0.00     0.145 A 
ENDROOT
BRANCH   4   8
HETATM    8  C4  UNL     1     -38.675  14.559  18.710  1.00  0.00     0.008 A 
HETATM    9  C5  UNL     1     -37.790  13.533  18.958  1.00  0.00     0.015 A 
HETATM   10  C6  UNL     1     -37.525  13.108  20.247  1.00  0.00     0.001 A 
HETATM   11  C7  UNL     1     -38.136  13.695  21.323  1.00  0.00     0.000 A 
HETATM   12  C8  UNL     1     -39.029  14.732  21.071  1.00  0.00     0.001 A 
HETATM   13  C9  UNL     1     -39.284  15.146  19.786  1.00  0.00     0.015 A 
ENDBRANCH   4   8
BRANCH   1  14
HETATM   14  C1  UNL     1     -39.982  17.336  14.789  1.00  0.00     0.229 C 
HETATM   15  O1  UNL     1     -39.370  18.449  14.956  1.00  0.00    -0.643 OA
HETATM   16  O2  UNL     1     -41.035  17.330  13.915  1.00  0.00    -0.643 OA
ENDBRANCH   1  14
BRANCH   7  17
HETATM   17  C11 UNL     1     -38.965  14.502  13.727  1.00  0.00     0.229 C 
HETATM   18  O3  UNL     1     -39.845  13.906  13.093  1.00  0.00    -0.643 OA
HETATM   19  O4  UNL     1     -37.763  14.747  13.033  1.00  0.00    -0.643 OA
ENDBRANCH   7  17
TORSDOF 3
ENDMDL
