MODEL 11
REMARK VINA RESULT: -7.324193435      1.657      2.131
REMARK  10 active torsions:
REMARK  status: ('A' for Active; 'I' for Inactive)
REMARK    1  A    between atoms: C1_2  and  C2_3 
REMARK       I    between atoms: C1_2  and  N1_6 
REMARK    2  A    between atoms: C2_3  and  C3_4 
REMARK    3  A    between atoms: N1_6  and  C4_8 
REMARK    4  A    between atoms: C6_12  and  C7_13 
REMARK    5  A    between atoms: C7_13  and  C8_14 
REMARK    6  A    between atoms: C8_14  and  C9_15 
REMARK    7  A    between atoms: C16_23  and  C17_24 
REMARK    8  A    between atoms: C17_24  and  O2_25 
REMARK    9  A    between atoms: C18_27  and  O3_28 
REMARK   10  A    between atoms: C19_30  and  O4_31 
ROOT
HETATM    1  C4  UNL     1       2.233   0.812  16.878  1.00  0.00     0.183 C 
HETATM    2  C5  UNL     1       2.795   2.089  17.372  1.00  0.00     0.110 A 
HETATM    3  N2  UNL     1       3.258   2.375  18.596  1.00  0.00    -0.346 N 
ATOM      4  H2  UNL     1       3.284   1.723  19.380  1.00  0.00     0.167 HD
HETATM    5  C6  UNL     1       3.682   3.654  18.637  1.00  0.00     0.026 A 
HETATM    6  C15 UNL     1       3.470   4.168  17.387  1.00  0.00     0.118 A 
HETATM    7  N3  UNL     1       2.919   3.178  16.623  1.00  0.00    -0.334 N 
HETATM    8  C16 UNL     1       2.524   3.265  15.223  1.00  0.00     0.145 C 
HETATM    9  C18 UNL     1       2.549   1.900  14.635  1.00  0.00     0.174 C 
HETATM   10  C19 UNL     1       1.846   0.863  15.442  1.00  0.00     0.179 C 
ENDROOT
BRANCH   5  11
HETATM   11  C7  UNL     1       4.265   4.333  19.837  1.00  0.00     0.063 C 
BRANCH  11  12
HETATM   12  C8  UNL     1       3.212   4.345  20.936  1.00  0.00     0.044 C 
BRANCH  12  13
HETATM   13  C9  UNL     1       2.809   5.710  21.293  1.00  0.00    -0.058 A 
HETATM   14  C10 UNL     1       1.846   6.396  20.594  1.00  0.00     0.007 A 
HETATM   15  C11 UNL     1       1.486   7.699  20.961  1.00  0.00     0.001 A 
HETATM   16  C12 UNL     1       2.100   8.299  22.034  1.00  0.00     0.000 A 
HETATM   17  C13 UNL     1       3.065   7.624  22.744  1.00  0.00     0.001 A 
HETATM   18  C14 UNL     1       3.404   6.341  22.362  1.00  0.00     0.007 A 
ENDBRANCH  12  13
ENDBRANCH  11  12
ENDBRANCH   5  11
BRANCH   1  19
HETATM   19  N1  UNL     1       3.163  -0.283  17.158  1.00  0.00    -0.347 N 
HETATM   20  C1  UNL     1       3.423  -1.331  16.248  1.00  0.00     0.219 C 
HETATM   21  O1  UNL     1       2.817  -1.311  15.146  1.00  0.00    -0.274 OA
ATOM     22  H1  UNL     1       3.647  -0.290  18.056  1.00  0.00     0.163 HD
BRANCH  20  23
HETATM   23  C2  UNL     1       4.360  -2.440  16.525  1.00  0.00     0.114 C 
BRANCH  23  24
HETATM   24  C3  UNL     1       5.501  -2.454  15.513  1.00  0.00     0.095 C 
HETATM   25  S1  UNL     1       6.172  -4.121  15.315  1.00  0.00    -0.097 SA
ENDBRANCH  23  24
ENDBRANCH  20  23
ENDBRANCH   1  19
BRANCH   8  26
HETATM   26  C17 UNL     1       1.207   3.989  15.057  1.00  0.00     0.192 C 
BRANCH  26  27
HETATM   27  O2  UNL     1       0.615   3.465  13.895  1.00  0.00    -0.399 OA
ATOM     28  H2  UNL     1      -0.303   3.707  13.934  1.00  0.00     0.209 HD
ENDBRANCH  26  27
ENDBRANCH   8  26
BRANCH  10  29
HETATM   29  O4  UNL     1       0.460   1.027  15.284  1.00  0.00    -0.390 OA
ATOM     30  H4  UNL     1       0.211   1.045  14.368  1.00  0.00     0.210 HD
ENDBRANCH  10  29
BRANCH   9  31
HETATM   31  O3  UNL     1       3.869   1.560  14.340  1.00  0.00    -0.391 OA
ATOM     32  H3  UNL     1       3.871   0.898  13.659  1.00  0.00     0.210 HD
ENDBRANCH   9  31
TORSDOF 10
ENDMDL
