MODEL 1
REMARK VINA RESULT: -8.903520328      0.000      0.000
REMARK  10 active torsions:
REMARK  status: ('A' for Active; 'I' for Inactive)
REMARK    1  A    between atoms: C1_2  and  C2_3 
REMARK       I    between atoms: C1_2  and  N1_6 
REMARK    2  A    between atoms: C2_3  and  C3_4 
REMARK    3  A    between atoms: N1_6  and  C4_8 
REMARK    4  A    between atoms: C6_12  and  C7_13 
REMARK    5  A    between atoms: C7_13  and  C8_14 
REMARK    6  A    between atoms: C8_14  and  C9_15 
REMARK    7  A    between atoms: C16_23  and  C17_24 
REMARK    8  A    between atoms: C17_24  and  O2_25 
REMARK    9  A    between atoms: C18_27  and  O3_28 
REMARK   10  A    between atoms: C19_30  and  O4_31 
ROOT
HETATM    1  C4  UNL     1       2.894   2.398  16.456  1.00  0.00     0.183 C 
HETATM    2  C5  UNL     1       3.177   3.193  17.671  1.00  0.00     0.110 A 
HETATM    3  N2  UNL     1       3.454   2.754  18.906  1.00  0.00    -0.346 N 
ATOM      4  H2  UNL     1       3.507   1.774  19.182  1.00  0.00     0.167 HD
HETATM    5  C6  UNL     1       3.651   3.803  19.730  1.00  0.00     0.026 A 
HETATM    6  C15 UNL     1       3.488   4.927  18.967  1.00  0.00     0.118 A 
HETATM    7  N3  UNL     1       3.195   4.520  17.695  1.00  0.00    -0.334 N 
HETATM    8  C16 UNL     1       2.941   5.369  16.538  1.00  0.00     0.145 C 
HETATM    9  C18 UNL     1       3.257   4.602  15.305  1.00  0.00     0.174 C 
HETATM   10  C19 UNL     1       2.657   3.238  15.251  1.00  0.00     0.179 C 
ENDROOT
BRANCH   5  11
HETATM   11  C7  UNL     1       3.981   3.707  21.187  1.00  0.00     0.063 C 
BRANCH  11  12
HETATM   12  C8  UNL     1       2.712   3.982  21.982  1.00  0.00     0.044 C 
BRANCH  12  13
HETATM   13  C9  UNL     1       2.433   5.419  22.088  1.00  0.00    -0.058 A 
HETATM   14  C10 UNL     1       3.357   6.311  22.574  1.00  0.00     0.007 A 
HETATM   15  C11 UNL     1       3.058   7.676  22.663  1.00  0.00     0.001 A 
HETATM   16  C12 UNL     1       1.827   8.131  22.258  1.00  0.00     0.000 A 
HETATM   17  C13 UNL     1       0.892   7.251  21.768  1.00  0.00     0.001 A 
HETATM   18  C14 UNL     1       1.209   5.909  21.691  1.00  0.00     0.007 A 
ENDBRANCH  12  13
ENDBRANCH  11  12
ENDBRANCH   5  11
BRANCH   1  19
HETATM   19  N1  UNL     1       3.960   1.418  16.242  1.00  0.00    -0.347 N 
HETATM   20  C1  UNL     1       3.720   0.095  15.810  1.00  0.00     0.219 C 
HETATM   21  O1  UNL     1       2.527  -0.246  15.605  1.00  0.00    -0.274 OA
ATOM     22  H1  UNL     1       4.924   1.704  16.413  1.00  0.00     0.163 HD
BRANCH  20  23
HETATM   23  C2  UNL     1       4.791  -0.901  15.592  1.00  0.00     0.114 C 
BRANCH  23  24
HETATM   24  C3  UNL     1       4.315  -2.302  15.960  1.00  0.00     0.095 C 
HETATM   25  S1  UNL     1       5.541  -3.547  15.495  1.00  0.00    -0.097 SA
ENDBRANCH  23  24
ENDBRANCH  20  23
ENDBRANCH   1  19
BRANCH   8  26
HETATM   26  C17 UNL     1       1.546   5.952  16.567  1.00  0.00     0.192 C 
BRANCH  26  27
HETATM   27  O2  UNL     1       1.693   7.306  16.913  1.00  0.00    -0.399 OA
ATOM     28  H2  UNL     1       0.814   7.652  17.011  1.00  0.00     0.209 HD
ENDBRANCH  26  27
ENDBRANCH   8  26
BRANCH  10  29
HETATM   29  O4  UNL     1       1.288   3.355  14.961  1.00  0.00    -0.390 OA
ATOM     30  H4  UNL     1       1.131   3.967  14.252  1.00  0.00     0.210 HD
ENDBRANCH  10  29
BRANCH   9  31
HETATM   31  O3  UNL     1       4.639   4.598  15.118  1.00  0.00    -0.391 OA
ATOM     32  H3  UNL     1       4.938   3.698  15.054  1.00  0.00     0.210 HD
ENDBRANCH   9  31
TORSDOF 10
ENDMDL
