MODEL 6
REMARK VINA RESULT: -8.232613855      6.156      8.564
REMARK  10 active torsions:
REMARK  status: ('A' for Active; 'I' for Inactive)
REMARK    1  A    between atoms: C1_2  and  C2_3 
REMARK       I    between atoms: C1_2  and  N1_6 
REMARK    2  A    between atoms: C2_3  and  C3_4 
REMARK    3  A    between atoms: N1_6  and  C4_8 
REMARK    4  A    between atoms: C6_12  and  C7_13 
REMARK    5  A    between atoms: C7_13  and  C8_14 
REMARK    6  A    between atoms: C8_14  and  C9_15 
REMARK    7  A    between atoms: C16_23  and  C17_24 
REMARK    8  A    between atoms: C17_24  and  O2_25 
REMARK    9  A    between atoms: C18_27  and  O3_28 
REMARK   10  A    between atoms: C19_30  and  O4_31 
ROOT
HETATM    1  C4  UNL     1       7.097   1.241  24.430  1.00  0.00     0.183 C 
HETATM    2  C5  UNL     1       5.776   1.412  23.786  1.00  0.00     0.110 A 
HETATM    3  N2  UNL     1       5.296   2.486  23.146  1.00  0.00    -0.346 N 
ATOM      4  H2  UNL     1       5.799   3.363  23.013  1.00  0.00     0.167 HD
HETATM    5  C6  UNL     1       4.047   2.234  22.703  1.00  0.00     0.026 A 
HETATM    6  C15 UNL     1       3.755   0.954  23.088  1.00  0.00     0.118 A 
HETATM    7  N3  UNL     1       4.843   0.468  23.758  1.00  0.00    -0.334 N 
HETATM    8  C16 UNL     1       4.990  -0.854  24.352  1.00  0.00     0.145 C 
HETATM    9  C18 UNL     1       6.438  -1.183  24.432  1.00  0.00     0.174 C 
HETATM   10  C19 UNL     1       7.286  -0.110  25.023  1.00  0.00     0.179 C 
ENDROOT
BRANCH   5  11
HETATM   11  C7  UNL     1       3.189   3.196  21.941  1.00  0.00     0.063 C 
BRANCH  11  12
HETATM   12  C8  UNL     1       4.088   4.003  21.015  1.00  0.00     0.044 C 
BRANCH  12  13
HETATM   13  C9  UNL     1       3.318   4.705  19.981  1.00  0.00    -0.058 A 
HETATM   14  C10 UNL     1       2.445   5.723  20.281  1.00  0.00     0.007 A 
HETATM   15  C11 UNL     1       1.725   6.371  19.270  1.00  0.00     0.001 A 
HETATM   16  C12 UNL     1       1.893   5.987  17.961  1.00  0.00     0.000 A 
HETATM   17  C13 UNL     1       2.762   4.971  17.646  1.00  0.00     0.001 A 
HETATM   18  C14 UNL     1       3.461   4.346  18.659  1.00  0.00     0.007 A 
ENDBRANCH  12  13
ENDBRANCH  11  12
ENDBRANCH   5  11
BRANCH   1  19
HETATM   19  N1  UNL     1       8.161   1.582  23.484  1.00  0.00    -0.347 N 
HETATM   20  C1  UNL     1       8.911   2.775  23.560  1.00  0.00     0.219 C 
HETATM   21  O1  UNL     1       8.641   3.578  24.489  1.00  0.00    -0.274 OA
ATOM     22  H1  UNL     1       8.371   0.924  22.733  1.00  0.00     0.163 HD
BRANCH  20  23
HETATM   23  C2  UNL     1       9.987   3.126  22.608  1.00  0.00     0.114 C 
BRANCH  23  24
HETATM   24  C3  UNL     1      10.529   4.524  22.889  1.00  0.00     0.095 C 
HETATM   25  S1  UNL     1      10.811   5.431  21.351  1.00  0.00    -0.097 SA
ENDBRANCH  23  24
ENDBRANCH  20  23
ENDBRANCH   1  19
BRANCH   8  26
HETATM   26  C17 UNL     1       4.256  -0.961  25.669  1.00  0.00     0.192 C 
BRANCH  26  27
HETATM   27  O2  UNL     1       4.747  -2.117  26.300  1.00  0.00    -0.399 OA
ATOM     28  H2  UNL     1       4.555  -2.840  25.715  1.00  0.00     0.209 HD
ENDBRANCH  26  27
ENDBRANCH   8  26
BRANCH  10  29
HETATM   29  O4  UNL     1       7.099  -0.097  26.415  1.00  0.00    -0.390 OA
ATOM     30  H4  UNL     1       6.488  -0.770  26.692  1.00  0.00     0.210 HD
ENDBRANCH  10  29
BRANCH   9  31
HETATM   31  O3  UNL     1       6.876  -1.595  23.173  1.00  0.00    -0.391 OA
ATOM     32  H3  UNL     1       7.769  -1.911  23.248  1.00  0.00     0.210 HD
ENDBRANCH   9  31
TORSDOF 10
ENDMDL
