MODEL 5
REMARK VINA RESULT: -8.296226494      6.071      8.347
REMARK  10 active torsions:
REMARK  status: ('A' for Active; 'I' for Inactive)
REMARK    1  A    between atoms: C1_2  and  C2_3 
REMARK       I    between atoms: C1_2  and  N1_6 
REMARK    2  A    between atoms: C2_3  and  C3_4 
REMARK    3  A    between atoms: N1_6  and  C4_8 
REMARK    4  A    between atoms: C6_12  and  C7_13 
REMARK    5  A    between atoms: C7_13  and  C8_14 
REMARK    6  A    between atoms: C8_14  and  C9_15 
REMARK    7  A    between atoms: C16_23  and  C17_24 
REMARK    8  A    between atoms: C17_24  and  O2_25 
REMARK    9  A    between atoms: C18_27  and  O3_28 
REMARK   10  A    between atoms: C19_30  and  O4_31 
ROOT
HETATM    1  C4  UNL     1       7.216   1.282  24.197  1.00  0.00     0.183 C 
HETATM    2  C5  UNL     1       5.855   1.414  23.632  1.00  0.00     0.110 A 
HETATM    3  N2  UNL     1       5.281   2.496  23.091  1.00  0.00    -0.346 N 
ATOM      4  H2  UNL     1       5.725   3.409  22.993  1.00  0.00     0.167 HD
HETATM    5  C6  UNL     1       4.027   2.198  22.694  1.00  0.00     0.026 A 
HETATM    6  C15 UNL     1       3.829   0.881  23.006  1.00  0.00     0.118 A 
HETATM    7  N3  UNL     1       4.978   0.419  23.586  1.00  0.00    -0.334 N 
HETATM    8  C16 UNL     1       5.232  -0.928  24.081  1.00  0.00     0.145 C 
HETATM    9  C18 UNL     1       6.698  -1.173  24.066  1.00  0.00     0.174 C 
HETATM   10  C19 UNL     1       7.514  -0.091  24.686  1.00  0.00     0.179 C 
ENDROOT
BRANCH   5  11
HETATM   11  C7  UNL     1       3.076   3.154  22.044  1.00  0.00     0.063 C 
BRANCH  11  12
HETATM   12  C8  UNL     1       3.890   4.248  21.367  1.00  0.00     0.044 C 
BRANCH  12  13
HETATM   13  C9  UNL     1       3.221   5.552  21.440  1.00  0.00    -0.058 A 
HETATM   14  C10 UNL     1       2.308   5.961  20.499  1.00  0.00     0.007 A 
HETATM   15  C11 UNL     1       1.688   7.213  20.599  1.00  0.00     0.001 A 
HETATM   16  C12 UNL     1       1.995   8.043  21.650  1.00  0.00     0.000 A 
HETATM   17  C13 UNL     1       2.907   7.648  22.599  1.00  0.00     0.001 A 
HETATM   18  C14 UNL     1       3.506   6.409  22.479  1.00  0.00     0.007 A 
ENDBRANCH  12  13
ENDBRANCH  11  12
ENDBRANCH   5  11
BRANCH   1  19
HETATM   19  N1  UNL     1       8.207   1.747  23.225  1.00  0.00    -0.347 N 
HETATM   20  C1  UNL     1       9.017   2.886  23.428  1.00  0.00     0.219 C 
HETATM   21  O1  UNL     1       8.868   3.524  24.501  1.00  0.00    -0.274 OA
ATOM     22  H1  UNL     1       8.318   1.223  22.357  1.00  0.00     0.163 HD
BRANCH  20  23
HETATM   23  C2  UNL     1      10.019   3.361  22.451  1.00  0.00     0.114 C 
BRANCH  23  24
HETATM   24  C3  UNL     1      10.161   4.879  22.512  1.00  0.00     0.095 C 
HETATM   25  S1  UNL     1      11.158   5.493  21.134  1.00  0.00    -0.097 SA
ENDBRANCH  23  24
ENDBRANCH  20  23
ENDBRANCH   1  19
BRANCH   8  26
HETATM   26  C17 UNL     1       4.576  -1.164  25.422  1.00  0.00     0.192 C 
BRANCH  26  27
HETATM   27  O2  UNL     1       5.094  -2.379  25.903  1.00  0.00    -0.399 OA
ATOM     28  H2  UNL     1       5.164  -2.283  26.846  1.00  0.00     0.209 HD
ENDBRANCH  26  27
ENDBRANCH   8  26
BRANCH  10  29
HETATM   29  O4  UNL     1       7.401  -0.180  26.083  1.00  0.00    -0.390 OA
ATOM     30  H4  UNL     1       6.872  -0.924  26.345  1.00  0.00     0.210 HD
ENDBRANCH  10  29
BRANCH   9  31
HETATM   31  O3  UNL     1       7.091  -1.475  22.762  1.00  0.00    -0.391 OA
ATOM     32  H3  UNL     1       8.033  -1.597  22.746  1.00  0.00     0.210 HD
ENDBRANCH   9  31
TORSDOF 10
ENDMDL
