MODEL 3
REMARK VINA RESULT: -8.410199457      3.312      7.149
REMARK  10 active torsions:
REMARK  status: ('A' for Active; 'I' for Inactive)
REMARK    1  A    between atoms: C1_2  and  C2_3 
REMARK       I    between atoms: C1_2  and  N1_6 
REMARK    2  A    between atoms: C2_3  and  C3_4 
REMARK    3  A    between atoms: N1_6  and  C4_8 
REMARK    4  A    between atoms: C6_12  and  C7_13 
REMARK    5  A    between atoms: C7_13  and  C8_14 
REMARK    6  A    between atoms: C8_14  and  C9_15 
REMARK    7  A    between atoms: C16_23  and  C17_24 
REMARK    8  A    between atoms: C17_24  and  O2_25 
REMARK    9  A    between atoms: C18_27  and  O3_28 
REMARK   10  A    between atoms: C19_30  and  O4_31 
ROOT
HETATM    1  C4  UNL     1       3.051   4.270  21.293  1.00  0.00     0.183 C 
HETATM    2  C5  UNL     1       2.891   3.971  19.853  1.00  0.00     0.110 A 
HETATM    3  N2  UNL     1       3.549   3.068  19.113  1.00  0.00    -0.346 N 
ATOM      4  H2  UNL     1       4.276   2.443  19.461  1.00  0.00     0.167 HD
HETATM    5  C6  UNL     1       3.105   3.109  17.840  1.00  0.00     0.026 A 
HETATM    6  C15 UNL     1       2.138   4.076  17.803  1.00  0.00     0.118 A 
HETATM    7  N3  UNL     1       2.026   4.594  19.063  1.00  0.00    -0.334 N 
HETATM    8  C16 UNL     1       1.121   5.650  19.501  1.00  0.00     0.145 C 
HETATM    9  C18 UNL     1       0.885   5.499  20.961  1.00  0.00     0.174 C 
HETATM   10  C19 UNL     1       2.121   5.326  21.776  1.00  0.00     0.179 C 
ENDROOT
BRANCH   5  11
HETATM   11  C7  UNL     1       3.603   2.246  16.723  1.00  0.00     0.063 C 
BRANCH  11  12
HETATM   12  C8  UNL     1       2.844   0.926  16.768  1.00  0.00     0.044 C 
BRANCH  12  13
HETATM   13  C9  UNL     1       3.677  -0.199  16.326  1.00  0.00    -0.058 A 
HETATM   14  C10 UNL     1       4.896  -0.014  15.720  1.00  0.00     0.007 A 
HETATM   15  C11 UNL     1       5.666  -1.109  15.310  1.00  0.00     0.001 A 
HETATM   16  C12 UNL     1       5.198  -2.385  15.516  1.00  0.00     0.000 A 
HETATM   17  C13 UNL     1       3.981  -2.585  16.120  1.00  0.00     0.001 A 
HETATM   18  C14 UNL     1       3.240  -1.490  16.516  1.00  0.00     0.007 A 
ENDBRANCH  12  13
ENDBRANCH  11  12
ENDBRANCH   5  11
BRANCH   1  19
HETATM   19  N1  UNL     1       2.938   3.037  22.074  1.00  0.00    -0.347 N 
HETATM   20  C1  UNL     1       4.048   2.239  22.427  1.00  0.00     0.219 C 
HETATM   21  O1  UNL     1       5.184   2.616  22.043  1.00  0.00    -0.274 OA
ATOM     22  H1  UNL     1       2.011   2.740  22.379  1.00  0.00     0.163 HD
BRANCH  20  23
HETATM   23  C2  UNL     1       3.941   0.993  23.216  1.00  0.00     0.114 C 
BRANCH  23  24
HETATM   24  C3  UNL     1       5.140   0.833  24.145  1.00  0.00     0.095 C 
HETATM   25  S1  UNL     1       6.246  -0.471  23.556  1.00  0.00    -0.097 SA
ENDBRANCH  23  24
ENDBRANCH  20  23
ENDBRANCH   1  19
BRANCH   8  26
HETATM   26  C17 UNL     1       1.616   7.017  19.090  1.00  0.00     0.192 C 
BRANCH  26  27
HETATM   27  O2  UNL     1       0.925   7.942  19.891  1.00  0.00    -0.399 OA
ATOM     28  H2  UNL     1       0.358   7.431  20.458  1.00  0.00     0.209 HD
ENDBRANCH  26  27
ENDBRANCH   8  26
BRANCH  10  29
HETATM   29  O4  UNL     1       2.764   6.569  21.895  1.00  0.00    -0.390 OA
ATOM     30  H4  UNL     1       2.182   7.232  22.247  1.00  0.00     0.210 HD
ENDBRANCH  10  29
BRANCH   9  31
HETATM   31  O3  UNL     1      -0.049   4.483  21.164  1.00  0.00    -0.391 OA
ATOM     32  H3  UNL     1       0.216   3.718  20.667  1.00  0.00     0.210 HD
ENDBRANCH   9  31
TORSDOF 10
ENDMDL
