MODEL 4
REMARK VINA RESULT: -8.379635974      0.609      1.236
REMARK  10 active torsions:
REMARK  status: ('A' for Active; 'I' for Inactive)
REMARK    1  A    between atoms: C1_2  and  C2_3 
REMARK       I    between atoms: C1_2  and  N1_6 
REMARK    2  A    between atoms: C2_3  and  C3_4 
REMARK    3  A    between atoms: N1_6  and  C4_8 
REMARK    4  A    between atoms: C6_12  and  C7_13 
REMARK    5  A    between atoms: C7_13  and  C8_14 
REMARK    6  A    between atoms: C8_14  and  C9_15 
REMARK    7  A    between atoms: C16_23  and  C17_24 
REMARK    8  A    between atoms: C17_24  and  O2_25 
REMARK    9  A    between atoms: C18_27  and  O3_28 
REMARK   10  A    between atoms: C19_30  and  O4_31 
ROOT
HETATM    1  C4  UNL     1       2.915   2.542  16.521  1.00  0.00     0.183 C 
HETATM    2  C5  UNL     1       3.218   3.347  17.725  1.00  0.00     0.110 A 
HETATM    3  N2  UNL     1       3.474   2.918  18.968  1.00  0.00    -0.346 N 
ATOM      4  H2  UNL     1       3.495   1.941  19.259  1.00  0.00     0.167 HD
HETATM    5  C6  UNL     1       3.700   3.974  19.777  1.00  0.00     0.026 A 
HETATM    6  C15 UNL     1       3.577   5.089  18.996  1.00  0.00     0.118 A 
HETATM    7  N3  UNL     1       3.277   4.673  17.729  1.00  0.00    -0.334 N 
HETATM    8  C16 UNL     1       3.056   5.511  16.558  1.00  0.00     0.145 C 
HETATM    9  C18 UNL     1       3.353   4.715  15.338  1.00  0.00     0.174 C 
HETATM   10  C19 UNL     1       2.711   3.370  15.302  1.00  0.00     0.179 C 
ENDROOT
BRANCH   5  11
HETATM   11  C7  UNL     1       4.021   3.890  21.237  1.00  0.00     0.063 C 
BRANCH  11  12
HETATM   12  C8  UNL     1       2.712   3.768  22.005  1.00  0.00     0.044 C 
BRANCH  12  13
HETATM   13  C9  UNL     1       1.769   4.837  21.654  1.00  0.00    -0.058 A 
HETATM   14  C10 UNL     1       0.652   4.606  20.889  1.00  0.00     0.007 A 
HETATM   15  C11 UNL     1      -0.226   5.649  20.571  1.00  0.00     0.001 A 
HETATM   16  C12 UNL     1       0.030   6.919  21.030  1.00  0.00     0.000 A 
HETATM   17  C13 UNL     1       1.144   7.165  21.796  1.00  0.00     0.001 A 
HETATM   18  C14 UNL     1       1.995   6.121  22.096  1.00  0.00     0.007 A 
ENDBRANCH  12  13
ENDBRANCH  11  12
ENDBRANCH   5  11
BRANCH   1  19
HETATM   19  N1  UNL     1       3.950   1.525  16.328  1.00  0.00    -0.347 N 
HETATM   20  C1  UNL     1       3.679   0.228  15.841  1.00  0.00     0.219 C 
HETATM   21  O1  UNL     1       2.486  -0.056  15.565  1.00  0.00    -0.274 OA
ATOM     22  H1  UNL     1       4.915   1.765  16.556  1.00  0.00     0.163 HD
BRANCH  20  23
HETATM   23  C2  UNL     1       4.720  -0.805  15.643  1.00  0.00     0.114 C 
BRANCH  23  24
HETATM   24  C3  UNL     1       4.153  -2.201  15.882  1.00  0.00     0.095 C 
HETATM   25  S1  UNL     1       5.399  -3.470  15.559  1.00  0.00    -0.097 SA
ENDBRANCH  23  24
ENDBRANCH  20  23
ENDBRANCH   1  19
BRANCH   8  26
HETATM   26  C17 UNL     1       1.681   6.138  16.570  1.00  0.00     0.192 C 
BRANCH  26  27
HETATM   27  O2  UNL     1       1.782   7.291  17.368  1.00  0.00    -0.399 OA
ATOM     28  H2  UNL     1       0.891   7.573  17.540  1.00  0.00     0.209 HD
ENDBRANCH  26  27
ENDBRANCH   8  26
BRANCH  10  29
HETATM   29  O4  UNL     1       1.347   3.526  15.003  1.00  0.00    -0.390 OA
ATOM     30  H4  UNL     1       1.209   3.714  14.082  1.00  0.00     0.210 HD
ENDBRANCH  10  29
BRANCH   9  31
HETATM   31  O3  UNL     1       4.735   4.664  15.158  1.00  0.00    -0.391 OA
ATOM     32  H3  UNL     1       5.061   3.844  15.511  1.00  0.00     0.210 HD
ENDBRANCH   9  31
TORSDOF 10
ENDMDL
