MODEL 6
REMARK VINA RESULT: -5.563929724      2.444      5.326
REMARK  5 active torsions:
REMARK  status: ('A' for Active; 'I' for Inactive)
REMARK       I    between atoms: C2_2  and  N1_4 
REMARK    1  A    between atoms: N1_4  and  C3_6 
REMARK    2  A    between atoms: C5_10  and  C6_11 
REMARK    3  A    between atoms: C6_11  and  O4_12 
REMARK    4  A    between atoms: C7_14  and  O5_15 
REMARK    5  A    between atoms: C8_17  and  O6_18 
ROOT
HETATM    1  C3  UNL     1       7.310  17.498  31.122  1.00  0.00     0.215 C 
HETATM    2  C4  UNL     1       8.350  17.672  32.164  1.00  0.00     0.285 C 
HETATM    3  O2  UNL     1       8.419  18.778  32.765  1.00  0.00    -0.263 OA
HETATM    4  O3  UNL     1       9.200  16.642  32.445  1.00  0.00    -0.309 OA
HETATM    5  C5  UNL     1       9.205  15.387  31.848  1.00  0.00     0.186 C 
HETATM    6  C7  UNL     1       8.331  15.246  30.654  1.00  0.00     0.181 C 
HETATM    7  C8  UNL     1       7.775  16.504  30.108  1.00  0.00     0.182 C 
ENDROOT
BRANCH   1   8
HETATM    8  N1  UNL     1       6.090  17.117  31.790  1.00  0.00    -0.345 N 
HETATM    9  C2  UNL     1       5.092  18.071  32.131  1.00  0.00     0.214 C 
HETATM   10  C1  UNL     1       3.828  17.734  32.815  1.00  0.00     0.117 C 
HETATM   11  O1  UNL     1       5.355  19.278  31.803  1.00  0.00    -0.274 OA
ATOM     12  H1  UNL     1       5.939  16.136  32.025  1.00  0.00     0.163 HD
ENDBRANCH   1   8
BRANCH   7  13
HETATM   13  O6  UNL     1       8.770  17.124  29.328  1.00  0.00    -0.390 OA
ATOM     14  H6  UNL     1       9.003  16.524  28.629  1.00  0.00     0.210 HD
ENDBRANCH   7  13
BRANCH   6  15
HETATM   15  O5  UNL     1       7.292  14.308  30.861  1.00  0.00    -0.390 OA
ATOM     16  H5  UNL     1       6.830  14.461  31.677  1.00  0.00     0.210 HD
ENDBRANCH   6  15
BRANCH   5  17
HETATM   17  C6  UNL     1      10.666  15.037  31.542  1.00  0.00     0.199 C 
BRANCH  17  18
HETATM   18  O4  UNL     1      10.881  15.433  30.212  1.00  0.00    -0.398 OA
ATOM     19  H4  UNL     1      11.662  14.971  29.930  1.00  0.00     0.209 HD
ENDBRANCH  17  18
ENDBRANCH   5  17
TORSDOF 5
ENDMDL
