MODEL 7
REMARK VINA RESULT: -5.535362576      2.102      5.034
REMARK  5 active torsions:
REMARK  status: ('A' for Active; 'I' for Inactive)
REMARK       I    between atoms: C2_2  and  N1_4 
REMARK    1  A    between atoms: N1_4  and  C3_6 
REMARK    2  A    between atoms: C5_10  and  C6_11 
REMARK    3  A    between atoms: C6_11  and  O4_12 
REMARK    4  A    between atoms: C7_14  and  O5_15 
REMARK    5  A    between atoms: C8_17  and  O6_18 
ROOT
HETATM    1  C3  UNL     1       8.050  17.039  31.437  1.00  0.00     0.215 C 
HETATM    2  C4  UNL     1       8.900  17.169  32.645  1.00  0.00     0.285 C 
HETATM    3  O2  UNL     1       9.064  18.314  33.144  1.00  0.00    -0.263 OA
HETATM    4  O3  UNL     1       9.479  16.056  33.181  1.00  0.00    -0.309 OA
HETATM    5  C5  UNL     1       9.359  14.753  32.714  1.00  0.00     0.186 C 
HETATM    6  C7  UNL     1       8.704  14.609  31.388  1.00  0.00     0.181 C 
HETATM    7  C8  UNL     1       8.497  15.864  30.631  1.00  0.00     0.182 C 
ENDROOT
BRANCH   1   8
HETATM    8  N1  UNL     1       6.680  16.951  31.881  1.00  0.00    -0.345 N 
HETATM    9  C2  UNL     1       5.801  18.068  31.829  1.00  0.00     0.214 C 
HETATM   10  C1  UNL     1       4.394  18.030  32.271  1.00  0.00     0.117 C 
HETATM   11  O1  UNL     1       6.312  19.143  31.364  1.00  0.00    -0.274 OA
ATOM     12  H1  UNL     1       6.333  16.063  32.242  1.00  0.00     0.163 HD
ENDBRANCH   1   8
BRANCH   7  13
HETATM   13  O6  UNL     1       9.713  16.210  30.011  1.00  0.00    -0.390 OA
ATOM     14  H6  UNL     1       9.711  15.829  29.140  1.00  0.00     0.210 HD
ENDBRANCH   7  13
BRANCH   6  15
HETATM   15  O5  UNL     1       7.488  13.888  31.469  1.00  0.00    -0.390 OA
ATOM     16  H5  UNL     1       6.735  14.464  31.533  1.00  0.00     0.210 HD
ENDBRANCH   6  15
BRANCH   5  17
HETATM   17  C6  UNL     1      10.761  14.131  32.739  1.00  0.00     0.199 C 
BRANCH  17  18
HETATM   18  O4  UNL     1      11.582  15.020  32.026  1.00  0.00    -0.398 OA
ATOM     19  H4  UNL     1      12.471  14.817  32.293  1.00  0.00     0.209 HD
ENDBRANCH  17  18
ENDBRANCH   5  17
TORSDOF 5
ENDMDL
