MODEL 8
REMARK VINA RESULT: -5.447965714      2.028      4.866
REMARK  5 active torsions:
REMARK  status: ('A' for Active; 'I' for Inactive)
REMARK       I    between atoms: C2_2  and  N1_4 
REMARK    1  A    between atoms: N1_4  and  C3_6 
REMARK    2  A    between atoms: C5_10  and  C6_11 
REMARK    3  A    between atoms: C6_11  and  O4_12 
REMARK    4  A    between atoms: C7_14  and  O5_15 
REMARK    5  A    between atoms: C8_17  and  O6_18 
ROOT
HETATM    1  C3  UNL     1       8.269  16.299  31.384  1.00  0.00     0.215 C 
HETATM    2  C4  UNL     1       8.449  14.832  31.499  1.00  0.00     0.285 C 
HETATM    3  O2  UNL     1       7.427  14.096  31.458  1.00  0.00    -0.263 OA
HETATM    4  O3  UNL     1       9.705  14.319  31.647  1.00  0.00    -0.309 OA
HETATM    5  C5  UNL     1      10.892  15.039  31.699  1.00  0.00     0.186 C 
HETATM    6  C7  UNL     1      10.740  16.513  31.810  1.00  0.00     0.181 C 
HETATM    7  C8  UNL     1       9.373  17.000  32.104  1.00  0.00     0.182 C 
ENDROOT
BRANCH   1   8
HETATM    8  N1  UNL     1       8.199  16.616  29.979  1.00  0.00    -0.345 N 
HETATM    9  C2  UNL     1       7.363  17.654  29.484  1.00  0.00     0.214 C 
HETATM   10  C1  UNL     1       7.255  18.016  28.057  1.00  0.00     0.117 C 
HETATM   11  O1  UNL     1       6.685  18.279  30.370  1.00  0.00    -0.274 OA
ATOM     12  H1  UNL     1       8.766  16.080  29.322  1.00  0.00     0.163 HD
ENDBRANCH   1   8
BRANCH   7  13
HETATM   13  O6  UNL     1       9.142  16.855  33.485  1.00  0.00    -0.390 OA
ATOM     14  H6  UNL     1       8.300  16.427  33.593  1.00  0.00     0.210 HD
ENDBRANCH   7  13
BRANCH   6  15
HETATM   15  O5  UNL     1      11.262  17.189  30.682  1.00  0.00    -0.390 OA
ATOM     16  H5  UNL     1      10.691  17.892  30.391  1.00  0.00     0.210 HD
ENDBRANCH   6  15
BRANCH   5  17
HETATM   17  C6  UNL     1      11.727  14.454  32.845  1.00  0.00     0.199 C 
BRANCH  17  18
HETATM   18  O4  UNL     1      11.924  15.511  33.749  1.00  0.00    -0.398 OA
ATOM     19  H4  UNL     1      12.240  15.109  34.549  1.00  0.00     0.209 HD
ENDBRANCH  17  18
ENDBRANCH   5  17
TORSDOF 5
ENDMDL
