MODEL 2
REMARK VINA RESULT: -5.802312676      1.125      1.125
REMARK  5 active torsions:
REMARK  status: ('A' for Active; 'I' for Inactive)
REMARK       I    between atoms: C2_2  and  N1_4 
REMARK    1  A    between atoms: N1_4  and  C3_6 
REMARK    2  A    between atoms: C5_10  and  C6_11 
REMARK    3  A    between atoms: C6_11  and  O4_12 
REMARK    4  A    between atoms: C7_14  and  O5_15 
REMARK    5  A    between atoms: C8_17  and  O6_18 
ROOT
HETATM    1  C3  UNL     1      10.121  15.444  32.928  1.00  0.00     0.215 C 
HETATM    2  C4  UNL     1       9.403  16.737  33.036  1.00  0.00     0.285 C 
HETATM    3  O2  UNL     1       9.410  17.338  34.144  1.00  0.00    -0.263 OA
HETATM    4  O3  UNL     1       8.755  17.238  31.945  1.00  0.00    -0.309 OA
HETATM    5  C5  UNL     1       8.690  16.660  30.683  1.00  0.00     0.186 C 
HETATM    6  C7  UNL     1       9.204  15.269  30.592  1.00  0.00     0.181 C 
HETATM    7  C8  UNL     1       9.478  14.596  31.881  1.00  0.00     0.182 C 
ENDROOT
BRANCH   1   8
HETATM    8  N1  UNL     1      11.507  15.743  32.663  1.00  0.00    -0.345 N 
HETATM    9  C2  UNL     1      12.519  14.746  32.743  1.00  0.00     0.214 C 
HETATM   10  C1  UNL     1      13.949  15.000  32.482  1.00  0.00     0.117 C 
HETATM   11  O1  UNL     1      12.110  13.578  33.064  1.00  0.00    -0.274 OA
ATOM     12  H1  UNL     1      11.769  16.696  32.411  1.00  0.00     0.163 HD
ENDBRANCH   1   8
BRANCH   7  13
HETATM   13  O6  UNL     1       8.256  14.128  32.402  1.00  0.00    -0.390 OA
ATOM     14  H6  UNL     1       7.594  14.243  31.729  1.00  0.00     0.210 HD
ENDBRANCH   7  13
BRANCH   6  15
HETATM   15  O5  UNL     1      10.336  15.173  29.747  1.00  0.00    -0.390 OA
ATOM     16  H5  UNL     1      10.993  14.581  30.095  1.00  0.00     0.210 HD
ENDBRANCH   6  15
BRANCH   5  17
HETATM   17  C6  UNL     1       7.237  16.774  30.207  1.00  0.00     0.199 C 
BRANCH  17  18
HETATM   18  O4  UNL     1       7.138  15.936  29.084  1.00  0.00    -0.398 OA
ATOM     19  H4  UNL     1       6.347  15.427  29.212  1.00  0.00     0.209 HD
ENDBRANCH  17  18
ENDBRANCH   5  17
TORSDOF 5
ENDMDL
