MODEL 1
REMARK VINA RESULT: -6.257739191      0.000      0.000
REMARK  5 active torsions:
REMARK  status: ('A' for Active; 'I' for Inactive)
REMARK       I    between atoms: C2_2  and  N1_4 
REMARK    1  A    between atoms: N1_4  and  C3_6 
REMARK    2  A    between atoms: C5_10  and  C6_11 
REMARK    3  A    between atoms: C6_11  and  O4_12 
REMARK    4  A    between atoms: C7_14  and  O5_15 
REMARK    5  A    between atoms: C8_17  and  O6_18 
ROOT
HETATM    1  C3  UNL     1      10.432  14.992  32.476  1.00  0.00     0.215 C 
HETATM    2  C4  UNL     1       9.982  16.187  33.230  1.00  0.00     0.285 C 
HETATM    3  O2  UNL     1      10.529  16.441  34.336  1.00  0.00    -0.263 OA
HETATM    4  O3  UNL     1       8.994  16.974  32.713  1.00  0.00    -0.309 OA
HETATM    5  C5  UNL     1       8.332  16.786  31.506  1.00  0.00     0.186 C 
HETATM    6  C7  UNL     1       8.595  15.489  30.830  1.00  0.00     0.181 C 
HETATM    7  C8  UNL     1       9.312  14.475  31.636  1.00  0.00     0.182 C 
ENDROOT
BRANCH   1   8
HETATM    8  N1  UNL     1      11.598  15.376  31.718  1.00  0.00    -0.345 N 
HETATM    9  C2  UNL     1      12.891  14.867  32.021  1.00  0.00     0.214 C 
HETATM   10  C1  UNL     1      14.114  15.228  31.277  1.00  0.00     0.117 C 
HETATM   11  O1  UNL     1      12.941  14.052  33.004  1.00  0.00    -0.274 OA
ATOM     12  H1  UNL     1      11.491  16.030  30.943  1.00  0.00     0.163 HD
ENDBRANCH   1   8
BRANCH   7  13
HETATM   13  O6  UNL     1       8.383  13.858  32.495  1.00  0.00    -0.390 OA
ATOM     14  H6  UNL     1       7.675  13.519  31.959  1.00  0.00     0.210 HD
ENDBRANCH   7  13
BRANCH   6  15
HETATM   15  O5  UNL     1       9.240  15.659  29.582  1.00  0.00    -0.390 OA
ATOM     16  H5  UNL     1      10.179  15.772  29.677  1.00  0.00     0.210 HD
ENDBRANCH   6  15
BRANCH   5  17
HETATM   17  C6  UNL     1       6.838  17.011  31.768  1.00  0.00     0.199 C 
BRANCH  17  18
HETATM   18  O4  UNL     1       6.305  17.473  30.554  1.00  0.00    -0.398 OA
ATOM     19  H4  UNL     1       6.439  18.414  30.557  1.00  0.00     0.209 HD
ENDBRANCH  17  18
ENDBRANCH   5  17
TORSDOF 5
ENDMDL
