MODEL 4
REMARK VINA RESULT: -7.039135435      1.526      1.994
REMARK  4 active torsions:
REMARK  status: ('A' for Active; 'I' for Inactive)
REMARK    1  A    between atoms: C2_2  and  C4_4 
REMARK    2  A    between atoms: C6_9  and  C7_10 
REMARK    3  A    between atoms: C8_13  and  C9_14 
REMARK    4  A    between atoms: C9_14  and  C10_15 
ROOT
HETATM    1  C4  UNL     1      19.918 -33.279  -4.463  1.00  0.00     0.021 C 
HETATM    2  C5  UNL     1      19.612 -32.985  -5.917  1.00  0.00     0.238 C 
HETATM    3  N1  UNL     1      19.930 -34.306  -6.481  1.00  0.00    -0.060 N 
ATOM      4  H11 UNL     1      20.001 -34.313  -7.499  1.00  0.00     0.278 HD
ATOM      5  H12 UNL     1      19.165 -34.978  -6.412  1.00  0.00     0.278 HD
HETATM    6  C6  UNL     1      21.155 -34.733  -5.801  1.00  0.00     0.290 C 
HETATM    7  C8  UNL     1      21.236 -33.915  -4.511  1.00  0.00     0.043 C 
ENDROOT
BRANCH   7   8
HETATM    8  C9  UNL     1      22.427 -33.029  -4.638  1.00  0.00     0.121 C 
BRANCH   8   9
HETATM    9  C10 UNL     1      23.672 -33.848  -4.635  1.00  0.00     0.172 C 
HETATM   10  O3  UNL     1      24.515 -33.859  -5.571  1.00  0.00    -0.648 OA
HETATM   11  O4  UNL     1      23.981 -34.678  -3.550  1.00  0.00    -0.648 OA
ENDBRANCH   8   9
ENDBRANCH   7   8
BRANCH   1  12
HETATM   12  C2  UNL     1      19.644 -32.180  -3.538  1.00  0.00    -0.017 C 
HETATM   13  C1  UNL     1      19.234 -30.936  -4.334  1.00  0.00     0.010 C 
HETATM   14  C3  UNL     1      18.662 -32.364  -2.462  1.00  0.00     0.010 C 
ENDBRANCH   1  12
BRANCH   6  15
HETATM   15  C7  UNL     1      21.127 -36.171  -5.544  1.00  0.00     0.205 C 
HETATM   16  O1  UNL     1      20.052 -36.786  -5.501  1.00  0.00    -0.646 OA
HETATM   17  O2  UNL     1      22.328 -36.834  -5.350  1.00  0.00    -0.646 OA
ENDBRANCH   6  15
TORSDOF 4
ENDMDL
