MODEL 3
REMARK VINA RESULT: -5.922122848      0.066      1.143
REMARK  2 active torsions:
REMARK  status: ('A' for Active; 'I' for Inactive)
REMARK    1  A    between atoms: O1_1  and  C1_3 
REMARK    2  A    between atoms: C3_5  and  C4_6 
ROOT
HETATM    1  C1  UNL     1       8.786  26.790  20.460  1.00  0.00     0.080 A 
HETATM    2  C2  UNL     1      10.041  26.311  20.112  1.00  0.00     0.067 A 
HETATM    3  C3  UNL     1      11.152  27.113  20.055  1.00  0.00     0.045 A 
HETATM    4  N1  UNL     1      10.974  28.414  20.360  1.00  0.00    -0.355 N 
ATOM      5  H1  UNL     1      11.778  29.041  20.330  1.00  0.00     0.166 HD
HETATM    6  C10 UNL     1       9.773  28.916  20.702  1.00  0.00     0.045 A 
HETATM    7  C11 UNL     1       9.642  30.251  21.004  1.00  0.00     0.030 A 
HETATM    8  C12 UNL     1       8.436  30.810  21.360  1.00  0.00     0.002 A 
HETATM    9  C13 UNL     1       7.336  29.979  21.406  1.00  0.00     0.001 A 
HETATM   10  C14 UNL     1       7.409  28.646  21.117  1.00  0.00     0.016 A 
HETATM   11  C15 UNL     1       8.648  28.127  20.763  1.00  0.00     0.024 A 
ENDROOT
BRANCH   3  12
HETATM   12  C4  UNL     1      12.491  26.652  19.695  1.00  0.00    -0.009 A 
HETATM   13  C5  UNL     1      13.263  25.903  20.553  1.00  0.00     0.013 A 
HETATM   14  C6  UNL     1      14.545  25.471  20.186  1.00  0.00     0.001 A 
HETATM   15  C7  UNL     1      15.080  25.777  18.956  1.00  0.00     0.000 A 
HETATM   16  C8  UNL     1      14.308  26.527  18.095  1.00  0.00     0.001 A 
HETATM   17  C9  UNL     1      13.048  26.949  18.460  1.00  0.00     0.013 A 
ENDBRANCH   3  12
BRANCH   1  18
HETATM   18  O1  UNL     1       7.670  25.978  20.514  1.00  0.00    -0.360 OA
ATOM     19  H1  UNL     1       7.191  25.717  19.737  1.00  0.00     0.217 HD
ENDBRANCH   1  18
TORSDOF 2
ENDMDL
