MODEL 1
REMARK VINA RESULT: -5.955323890      0.000      0.000
REMARK  2 active torsions:
REMARK  status: ('A' for Active; 'I' for Inactive)
REMARK    1  A    between atoms: O1_1  and  C1_3 
REMARK    2  A    between atoms: C3_5  and  C4_6 
ROOT
HETATM    1  C1  UNL     1       8.780  26.729  20.459  1.00  0.00     0.080 A 
HETATM    2  C2  UNL     1      10.043  26.269  20.110  1.00  0.00     0.067 A 
HETATM    3  C3  UNL     1      11.139  27.090  20.044  1.00  0.00     0.045 A 
HETATM    4  N1  UNL     1      10.939  28.391  20.341  1.00  0.00    -0.355 N 
ATOM      5  H1  UNL     1      11.732  29.031  20.304  1.00  0.00     0.166 HD
HETATM    6  C10 UNL     1       9.730  28.874  20.683  1.00  0.00     0.045 A 
HETATM    7  C11 UNL     1       9.577  30.208  20.977  1.00  0.00     0.030 A 
HETATM    8  C12 UNL     1       8.362  30.748  21.333  1.00  0.00     0.002 A 
HETATM    9  C13 UNL     1       7.277  29.898  21.389  1.00  0.00     0.001 A 
HETATM   10  C14 UNL     1       7.373  28.564  21.108  1.00  0.00     0.016 A 
HETATM   11  C15 UNL     1       8.620  28.065  20.754  1.00  0.00     0.024 A 
ENDROOT
BRANCH   3  12
HETATM   12  C4  UNL     1      12.485  26.651  19.682  1.00  0.00    -0.009 A 
HETATM   13  C5  UNL     1      13.063  26.980  18.477  1.00  0.00     0.013 A 
HETATM   14  C6  UNL     1      14.356  26.547  18.151  1.00  0.00     0.001 A 
HETATM   15  C7  UNL     1      15.096  25.779  19.020  1.00  0.00     0.000 A 
HETATM   16  C8  UNL     1      14.518  25.449  20.227  1.00  0.00     0.001 A 
HETATM   17  C9  UNL     1      13.247  25.877  20.544  1.00  0.00     0.013 A 
ENDBRANCH   3  12
BRANCH   1  18
HETATM   18  O1  UNL     1       7.679  25.897  20.523  1.00  0.00    -0.360 OA
ATOM     19  H1  UNL     1       6.875  26.149  20.959  1.00  0.00     0.217 HD
ENDBRANCH   1  18
TORSDOF 2
ENDMDL
