MODEL 2
REMARK VINA RESULT: -5.952223467      1.540      6.104
REMARK  2 active torsions:
REMARK  status: ('A' for Active; 'I' for Inactive)
REMARK    1  A    between atoms: O1_1  and  C1_3 
REMARK    2  A    between atoms: C3_5  and  C4_6 
ROOT
HETATM    1  C1  UNL     1       8.164  27.028  20.666  1.00  0.00     0.080 A 
HETATM    2  C2  UNL     1       7.631  28.264  21.005  1.00  0.00     0.067 A 
HETATM    3  C3  UNL     1       8.386  29.407  21.065  1.00  0.00     0.045 A 
HETATM    4  N1  UNL     1       9.697  29.281  20.773  1.00  0.00    -0.355 N 
ATOM      5  H1  UNL     1      10.290  30.110  20.806  1.00  0.00     0.166 HD
HETATM    6  C10 UNL     1      10.251  28.100  20.440  1.00  0.00     0.045 A 
HETATM    7  C11 UNL     1      11.592  28.023  20.150  1.00  0.00     0.030 A 
HETATM    8  C12 UNL     1      12.202  26.839  19.805  1.00  0.00     0.002 A 
HETATM    9  C13 UNL     1      11.418  25.706  19.754  1.00  0.00     0.001 A 
HETATM   10  C14 UNL     1      10.080  25.725  20.031  1.00  0.00     0.016 A 
HETATM   11  C15 UNL     1       9.508  26.944  20.376  1.00  0.00     0.024 A 
ENDROOT
BRANCH   3  12
HETATM   12  C4  UNL     1       7.868  30.727  21.416  1.00  0.00    -0.009 A 
HETATM   13  C5  UNL     1       8.170  31.852  20.682  1.00  0.00     0.013 A 
HETATM   14  C6  UNL     1       7.661  33.108  21.038  1.00  0.00     0.001 A 
HETATM   15  C7  UNL     1       6.841  33.267  22.131  1.00  0.00     0.000 A 
HETATM   16  C8  UNL     1       6.538  32.142  22.868  1.00  0.00     0.001 A 
HETATM   17  C9  UNL     1       7.040  30.908  22.514  1.00  0.00     0.013 A 
ENDBRANCH   3  12
BRANCH   1  18
HETATM   18  O1  UNL     1       7.398  25.880  20.608  1.00  0.00    -0.360 OA
ATOM     19  H1  UNL     1       7.761  25.036  20.370  1.00  0.00     0.217 HD
ENDBRANCH   1  18
TORSDOF 2
ENDMDL
