MODEL 15
REMARK VINA RESULT: -4.957125666      1.598      5.770
REMARK  2 active torsions:
REMARK  status: ('A' for Active; 'I' for Inactive)
REMARK    1  A    between atoms: O1_1  and  C1_3 
REMARK    2  A    between atoms: C3_5  and  C4_6 
ROOT
HETATM    1  C1  UNL     1       8.214  27.513  20.759  1.00  0.00     0.080 A 
HETATM    2  C2  UNL     1       8.126  28.881  20.976  1.00  0.00     0.067 A 
HETATM    3  C3  UNL     1       9.208  29.718  20.881  1.00  0.00     0.045 A 
HETATM    4  N1  UNL     1      10.387  29.148  20.560  1.00  0.00    -0.355 N 
ATOM      5  H1  UNL     1      11.213  29.740  20.480  1.00  0.00     0.166 HD
HETATM    6  C10 UNL     1      10.513  27.826  20.343  1.00  0.00     0.045 A 
HETATM    7  C11 UNL     1      11.737  27.292  20.019  1.00  0.00     0.030 A 
HETATM    8  C12 UNL     1      11.914  25.947  19.787  1.00  0.00     0.002 A 
HETATM    9  C13 UNL     1      10.809  25.129  19.891  1.00  0.00     0.001 A 
HETATM   10  C14 UNL     1       9.569  25.606  20.209  1.00  0.00     0.016 A 
HETATM   11  C15 UNL     1       9.438  26.971  20.434  1.00  0.00     0.024 A 
ENDROOT
BRANCH   3  12
HETATM   12  C4  UNL     1       9.161  31.162  21.100  1.00  0.00    -0.009 A 
HETATM   13  C5  UNL     1       8.795  31.708  22.309  1.00  0.00     0.013 A 
HETATM   14  C6  UNL     1       8.757  33.097  22.496  1.00  0.00     0.001 A 
HETATM   15  C7  UNL     1       9.085  33.966  21.482  1.00  0.00     0.000 A 
HETATM   16  C8  UNL     1       9.453  33.422  20.270  1.00  0.00     0.001 A 
HETATM   17  C9  UNL     1       9.488  32.055  20.091  1.00  0.00     0.013 A 
ENDBRANCH   3  12
BRANCH   1  18
HETATM   18  O1  UNL     1       7.121  26.674  20.857  1.00  0.00    -0.360 OA
ATOM     19  H1  UNL     1       7.182  25.738  20.711  1.00  0.00     0.217 HD
ENDBRANCH   1  18
TORSDOF 2
ENDMDL
