MODEL 4
REMARK VINA RESULT: -5.913486052      1.575      6.202
REMARK  2 active torsions:
REMARK  status: ('A' for Active; 'I' for Inactive)
REMARK    1  A    between atoms: O1_1  and  C1_3 
REMARK    2  A    between atoms: C3_5  and  C4_6 
ROOT
HETATM    1  C1  UNL     1       8.099  27.075  20.724  1.00  0.00     0.080 A 
HETATM    2  C2  UNL     1       7.580  28.321  21.051  1.00  0.00     0.067 A 
HETATM    3  C3  UNL     1       8.344  29.459  21.074  1.00  0.00     0.045 A 
HETATM    4  N1  UNL     1       9.648  29.319  20.759  1.00  0.00    -0.355 N 
ATOM      5  H1  UNL     1      10.247  30.144  20.765  1.00  0.00     0.166 HD
HETATM    6  C10 UNL     1      10.188  28.128  20.438  1.00  0.00     0.045 A 
HETATM    7  C11 UNL     1      11.523  28.036  20.124  1.00  0.00     0.030 A 
HETATM    8  C12 UNL     1      12.118  26.842  19.789  1.00  0.00     0.002 A 
HETATM    9  C13 UNL     1      11.326  25.713  19.775  1.00  0.00     0.001 A 
HETATM   10  C14 UNL     1       9.993  25.747  20.077  1.00  0.00     0.016 A 
HETATM   11  C15 UNL     1       9.436  26.976  20.409  1.00  0.00     0.024 A 
ENDROOT
BRANCH   3  12
HETATM   12  C4  UNL     1       7.842  30.789  21.411  1.00  0.00    -0.009 A 
HETATM   13  C5  UNL     1       7.013  31.008  22.488  1.00  0.00     0.013 A 
HETATM   14  C6  UNL     1       6.543  32.292  22.792  1.00  0.00     0.001 A 
HETATM   15  C7  UNL     1       6.891  33.383  22.030  1.00  0.00     0.000 A 
HETATM   16  C8  UNL     1       7.722  33.167  20.951  1.00  0.00     0.001 A 
HETATM   17  C9  UNL     1       8.181  31.901  20.655  1.00  0.00     0.013 A 
ENDBRANCH   3  12
BRANCH   1  18
HETATM   18  O1  UNL     1       7.324  25.932  20.703  1.00  0.00    -0.360 OA
ATOM     19  H1  UNL     1       7.050  25.516  19.894  1.00  0.00     0.217 HD
ENDBRANCH   1  18
TORSDOF 2
ENDMDL
