MODEL 5
REMARK VINA RESULT: -5.559565138      4.937      7.514
REMARK  2 active torsions:
REMARK  status: ('A' for Active; 'I' for Inactive)
REMARK    1  A    between atoms: O1_1  and  C1_3 
REMARK    2  A    between atoms: C3_5  and  C4_6 
ROOT
HETATM    1  C1  UNL     1      16.821  25.531  21.405  1.00  0.00     0.080 A 
HETATM    2  C2  UNL     1      16.731  25.174  22.743  1.00  0.00     0.067 A 
HETATM    3  C3  UNL     1      15.532  24.977  23.379  1.00  0.00     0.045 A 
HETATM    4  N1  UNL     1      14.419  25.146  22.637  1.00  0.00    -0.355 N 
ATOM      5  H1  UNL     1      13.509  25.007  23.076  1.00  0.00     0.166 HD
HETATM    6  C10 UNL     1      14.466  25.492  21.337  1.00  0.00     0.045 A 
HETATM    7  C11 UNL     1      13.303  25.652  20.622  1.00  0.00     0.030 A 
HETATM    8  C12 UNL     1      13.300  26.004  19.292  1.00  0.00     0.002 A 
HETATM    9  C13 UNL     1      14.520  26.197  18.679  1.00  0.00     0.001 A 
HETATM   10  C14 UNL     1      15.707  26.050  19.341  1.00  0.00     0.016 A 
HETATM   11  C15 UNL     1      15.659  25.694  20.683  1.00  0.00     0.024 A 
ENDROOT
BRANCH   3  12
HETATM   12  C4  UNL     1      15.390  24.600  24.784  1.00  0.00    -0.009 A 
HETATM   13  C5  UNL     1      16.198  23.655  25.374  1.00  0.00     0.013 A 
HETATM   14  C6  UNL     1      16.043  23.310  26.723  1.00  0.00     0.001 A 
HETATM   15  C7  UNL     1      15.082  23.901  27.510  1.00  0.00     0.000 A 
HETATM   16  C8  UNL     1      14.272  24.849  26.921  1.00  0.00     0.001 A 
HETATM   17  C9  UNL     1      14.428  25.185  25.593  1.00  0.00     0.013 A 
ENDBRANCH   3  12
BRANCH   1  18
HETATM   18  O1  UNL     1      18.032  25.729  20.769  1.00  0.00    -0.360 OA
ATOM     19  H1  UNL     1      18.093  25.960  19.851  1.00  0.00     0.217 HD
ENDBRANCH   1  18
TORSDOF 2
ENDMDL
