MODEL 7
REMARK VINA RESULT: -6.684498166      7.966     10.637
REMARK  1 active torsions:
REMARK  status: ('A' for Active; 'I' for Inactive)
REMARK    1  A    between atoms: O1_1  and  C1_3 
ROOT
HETATM    1  C1  UNL     1     -51.059  -3.375 -15.790  1.00  0.00     0.223 C 
HETATM    2  C2  UNL     1     -50.242  -3.408 -14.544  1.00  0.00     0.086 C 
HETATM    3  C3  UNL     1     -48.792  -3.006 -14.671  1.00  0.00     0.132 C 
HETATM    4  O2  UNL     1     -48.752  -1.643 -14.415  1.00  0.00    -0.382 OA
HETATM    5  C4  UNL     1     -47.504  -1.129 -14.137  1.00  0.00     0.196 C 
HETATM    6  C5  UNL     1     -46.822  -0.902 -15.447  1.00  0.00     0.004 C 
HETATM    7  C6  UNL     1     -46.500  -1.808 -16.360  1.00  0.00    -0.049 C 
HETATM    8  C7  UNL     1     -45.820  -1.259 -17.570  1.00  0.00     0.307 C 
HETATM    9  N1  UNL     1     -46.371  -1.799 -18.790  1.00  0.00     0.098 N 
HETATM   10  C8  UNL     1     -47.279  -0.891 -19.428  1.00  0.00     0.274 C 
HETATM   11  C9  UNL     1     -48.667  -1.333 -19.111  1.00  0.00     0.049 C 
HETATM   12  C10 UNL     1     -48.543  -2.701 -18.412  1.00  0.00     0.043 A 
HETATM   13  C11 UNL     1     -49.495  -3.582 -19.132  1.00  0.00    -0.019 A 
HETATM   14  C12 UNL     1     -49.452  -4.016 -20.428  1.00  0.00     0.010 A 
HETATM   15  C13 UNL     1     -50.442  -4.824 -20.929  1.00  0.00     0.001 A 
HETATM   16  C14 UNL     1     -51.481  -5.196 -20.120  1.00  0.00     0.002 A 
HETATM   17  C15 UNL     1     -51.515  -4.757 -18.827  1.00  0.00     0.030 A 
HETATM   18  C16 UNL     1     -50.534  -3.939 -18.278  1.00  0.00     0.040 A 
HETATM   19  N2  UNL     1     -50.334  -3.376 -17.006  1.00  0.00    -0.347 N 
HETATM   20  C17 UNL     1     -49.055  -2.671 -17.038  1.00  0.00     0.109 A 
HETATM   21  C18 UNL     1     -48.245  -3.403 -15.991  1.00  0.00     0.047 C 
HETATM   22  C19 UNL     1     -46.788  -3.276 -16.218  1.00  0.00     0.026 C 
HETATM   23  C20 UNL     1     -46.497  -3.916 -17.561  1.00  0.00     0.046 C 
HETATM   24  C21 UNL     1     -47.116  -3.019 -18.605  1.00  0.00     0.239 C 
ENDROOT
BRANCH   1  25
HETATM   25  O1  UNL     1     -51.831  -2.187 -15.773  1.00  0.00    -0.377 OA
ATOM     26  H1  UNL     1     -52.513  -2.273 -16.429  1.00  0.00     0.212 HD
ENDBRANCH   1  25
TORSDOF 1
ENDMDL
