MODEL 1
REMARK VINA RESULT: -10.579660430      0.000      0.000
REMARK  1 active torsions:
REMARK  status: ('A' for Active; 'I' for Inactive)
REMARK    1  A    between atoms: O1_1  and  C1_3 
ROOT
HETATM    1  C1  UNL     1     -42.742   1.961 -15.949  1.00  0.00     0.223 C 
HETATM    2  C2  UNL     1     -41.413   1.585 -16.508  1.00  0.00     0.086 C 
HETATM    3  C3  UNL     1     -40.421   2.705 -16.715  1.00  0.00     0.132 C 
HETATM    4  O2  UNL     1     -39.679   2.775 -15.546  1.00  0.00    -0.382 OA
HETATM    5  C4  UNL     1     -38.500   3.485 -15.634  1.00  0.00     0.196 C 
HETATM    6  C5  UNL     1     -38.849   4.932 -15.500  1.00  0.00     0.004 C 
HETATM    7  C6  UNL     1     -39.617   5.658 -16.301  1.00  0.00    -0.049 C 
HETATM    8  C7  UNL     1     -39.771   7.085 -15.891  1.00  0.00     0.307 C 
HETATM    9  N1  UNL     1     -41.145   7.520 -15.959  1.00  0.00     0.098 N 
HETATM   10  C8  UNL     1     -41.777   7.540 -14.672  1.00  0.00     0.274 C 
HETATM   11  C9  UNL     1     -42.620   6.315 -14.557  1.00  0.00     0.049 C 
HETATM   12  C10 UNL     1     -42.627   5.655 -15.948  1.00  0.00     0.043 A 
HETATM   13  C11 UNL     1     -44.059   5.401 -16.240  1.00  0.00    -0.019 A 
HETATM   14  C12 UNL     1     -45.067   6.303 -16.443  1.00  0.00     0.010 A 
HETATM   15  C13 UNL     1     -46.349   5.877 -16.688  1.00  0.00     0.001 A 
HETATM   16  C14 UNL     1     -46.616   4.536 -16.730  1.00  0.00     0.002 A 
HETATM   17  C15 UNL     1     -45.601   3.643 -16.525  1.00  0.00     0.030 A 
HETATM   18  C16 UNL     1     -44.291   4.029 -16.275  1.00  0.00     0.040 A 
HETATM   19  N2  UNL     1     -43.093   3.328 -16.052  1.00  0.00    -0.347 N 
HETATM   20  C17 UNL     1     -42.025   4.317 -15.932  1.00  0.00     0.109 A 
HETATM   21  C18 UNL     1     -41.113   3.963 -17.086  1.00  0.00     0.047 C 
HETATM   22  C19 UNL     1     -40.294   5.115 -17.527  1.00  0.00     0.026 C 
HETATM   23  C20 UNL     1     -41.259   6.180 -18.008  1.00  0.00     0.046 C 
HETATM   24  C21 UNL     1     -41.982   6.685 -16.784  1.00  0.00     0.239 C 
ENDROOT
BRANCH   1  25
HETATM   25  O1  UNL     1     -42.740   1.639 -14.569  1.00  0.00    -0.377 OA
ATOM     26  H1  UNL     1     -43.435   1.009 -14.416  1.00  0.00     0.212 HD
ENDBRANCH   1  25
TORSDOF 1
ENDMDL
