MODEL 8
REMARK VINA RESULT: -6.316803454      6.818      9.860
REMARK  1 active torsions:
REMARK  status: ('A' for Active; 'I' for Inactive)
REMARK    1  A    between atoms: O1_1  and  C1_3 
ROOT
HETATM    1  C1  UNL     1     -49.237   0.323 -20.060  1.00  0.00     0.223 C 
HETATM    2  C2  UNL     1     -49.214  -0.615 -21.217  1.00  0.00     0.086 C 
HETATM    3  C3  UNL     1     -48.660  -1.996 -20.961  1.00  0.00     0.132 C 
HETATM    4  O2  UNL     1     -49.747  -2.782 -20.611  1.00  0.00    -0.382 OA
HETATM    5  C4  UNL     1     -49.537  -4.143 -20.669  1.00  0.00     0.196 C 
HETATM    6  C5  UNL     1     -48.847  -4.535 -19.402  1.00  0.00     0.004 C 
HETATM    7  C6  UNL     1     -47.658  -4.136 -18.972  1.00  0.00    -0.049 C 
HETATM    8  C7  UNL     1     -47.245  -4.712 -17.658  1.00  0.00     0.307 C 
HETATM    9  N1  UNL     1     -46.704  -3.707 -16.775  1.00  0.00     0.098 N 
HETATM   10  C8  UNL     1     -47.652  -3.275 -15.790  1.00  0.00     0.274 C 
HETATM   11  C9  UNL     1     -48.212  -1.967 -16.236  1.00  0.00     0.049 C 
HETATM   12  C10 UNL     1     -47.379  -1.527 -17.455  1.00  0.00     0.043 A 
HETATM   13  C11 UNL     1     -46.989  -0.126 -17.162  1.00  0.00    -0.019 A 
HETATM   14  C12 UNL     1     -46.166   0.348 -16.177  1.00  0.00     0.010 A 
HETATM   15  C13 UNL     1     -45.932   1.694 -16.049  1.00  0.00     0.001 A 
HETATM   16  C14 UNL     1     -46.529   2.567 -16.917  1.00  0.00     0.002 A 
HETATM   17  C15 UNL     1     -47.349   2.083 -17.896  1.00  0.00     0.030 A 
HETATM   18  C16 UNL     1     -47.613   0.730 -18.064  1.00  0.00     0.040 A 
HETATM   19  N2  UNL     1     -48.387  -0.007 -18.977  1.00  0.00    -0.347 N 
HETATM   20  C17 UNL     1     -48.189  -1.423 -18.673  1.00  0.00     0.109 A 
HETATM   21  C18 UNL     1     -47.576  -1.954 -19.950  1.00  0.00     0.047 C 
HETATM   22  C19 UNL     1     -46.776  -3.178 -19.721  1.00  0.00     0.026 C 
HETATM   23  C20 UNL     1     -45.645  -2.795 -18.788  1.00  0.00     0.046 C 
HETATM   24  C21 UNL     1     -46.277  -2.506 -17.448  1.00  0.00     0.239 C 
ENDROOT
BRANCH   1  25
HETATM   25  O1  UNL     1     -50.559   0.354 -19.550  1.00  0.00    -0.377 OA
ATOM     26  H1  UNL     1     -50.674  -0.406 -18.992  1.00  0.00     0.212 HD
ENDBRANCH   1  25
TORSDOF 1
ENDMDL
