MODEL 2
REMARK VINA RESULT: -10.076542473      1.358      4.715
REMARK  1 active torsions:
REMARK  status: ('A' for Active; 'I' for Inactive)
REMARK    1  A    between atoms: O1_1  and  C1_3 
ROOT
HETATM    1  C1  UNL     1     -41.473   1.799 -15.862  1.00  0.00     0.223 C 
HETATM    2  C2  UNL     1     -42.820   1.712 -15.232  1.00  0.00     0.086 C 
HETATM    3  C3  UNL     1     -43.640   2.981 -15.203  1.00  0.00     0.132 C 
HETATM    4  O2  UNL     1     -44.407   2.963 -16.358  1.00  0.00    -0.382 OA
HETATM    5  C4  UNL     1     -45.471   3.839 -16.375  1.00  0.00     0.196 C 
HETATM    6  C5  UNL     1     -44.931   5.180 -16.753  1.00  0.00     0.004 C 
HETATM    7  C6  UNL     1     -44.043   5.910 -16.094  1.00  0.00    -0.049 C 
HETATM    8  C7  UNL     1     -43.707   7.214 -16.738  1.00  0.00     0.307 C 
HETATM    9  N1  UNL     1     -42.285   7.455 -16.760  1.00  0.00     0.098 N 
HETATM   10  C8  UNL     1     -41.702   7.174 -18.040  1.00  0.00     0.274 C 
HETATM   11  C9  UNL     1     -41.042   5.840 -17.960  1.00  0.00     0.049 C 
HETATM   12  C10 UNL     1     -41.077   5.421 -16.478  1.00  0.00     0.043 A 
HETATM   13  C11 UNL     1     -39.684   5.018 -16.165  1.00  0.00    -0.019 A 
HETATM   14  C12 UNL     1     -38.554   5.789 -16.128  1.00  0.00     0.010 A 
HETATM   15  C13 UNL     1     -37.336   5.231 -15.831  1.00  0.00     0.001 A 
HETATM   16  C14 UNL     1     -37.255   3.890 -15.570  1.00  0.00     0.002 A 
HETATM   17  C15 UNL     1     -38.389   3.129 -15.610  1.00  0.00     0.030 A 
HETATM   18  C16 UNL     1     -39.643   3.652 -15.905  1.00  0.00     0.040 A 
HETATM   19  N2  UNL     1     -40.933   3.101 -15.994  1.00  0.00    -0.347 N 
HETATM   20  C17 UNL     1     -41.858   4.199 -16.264  1.00  0.00     0.109 A 
HETATM   21  C18 UNL     1     -42.768   4.171 -15.056  1.00  0.00     0.047 C 
HETATM   22  C19 UNL     1     -43.404   5.484 -14.803  1.00  0.00     0.026 C 
HETATM   23  C20 UNL     1     -42.284   6.465 -14.518  1.00  0.00     0.046 C 
HETATM   24  C21 UNL     1     -41.542   6.655 -15.818  1.00  0.00     0.239 C 
ENDROOT
BRANCH   1  25
HETATM   25  O1  UNL     1     -41.568   1.259 -17.169  1.00  0.00    -0.377 OA
ATOM     26  H1  UNL     1     -40.718   0.901 -17.399  1.00  0.00     0.212 HD
ENDBRANCH   1  25
TORSDOF 1
ENDMDL
