MODEL 3
REMARK VINA RESULT: -8.441934095      2.773      8.612
REMARK  4 active torsions:
REMARK  status: ('A' for Active; 'I' for Inactive)
REMARK    1  A    between atoms: O1_2  and  C2_3 
REMARK    2  A    between atoms: C13_15  and  O3_16 
REMARK    3  A    between atoms: C19_23  and  O4_24 
REMARK    4  A    between atoms: C21_26  and  O5_27 
ROOT
HETATM    1  C2  UNL     1      37.743 115.490  51.301  1.00  0.00     0.102 A 
HETATM    2  C3  UNL     1      37.047 115.832  52.424  1.00  0.00     0.047 A 
HETATM    3  C4  UNL     1      36.924 117.191  52.682  1.00  0.00    -0.045 A 
HETATM    4  C5  UNL     1      37.484 118.176  51.832  1.00  0.00    -0.016 A 
HETATM    5  C6  UNL     1      38.186 117.810  50.700  1.00  0.00     0.050 A 
HETATM    6  C7  UNL     1      38.310 116.464  50.446  1.00  0.00     0.110 A 
HETATM    7  O2  UNL     1      39.010 115.874  49.337  1.00  0.00    -0.305 OA
HETATM    8  C8  UNL     1      40.380 115.939  48.985  1.00  0.00     0.109 A 
HETATM    9  C9  UNL     1      41.460 115.542  49.743  1.00  0.00     0.047 A 
HETATM   10  C10 UNL     1      42.721 115.702  49.230  1.00  0.00    -0.053 A 
HETATM   11  C11 UNL     1      42.847 116.257  47.952  1.00  0.00     0.010 A 
HETATM   12  C12 UNL     1      41.803 116.662  47.156  1.00  0.00     0.040 A 
HETATM   13  C13 UNL     1      40.561 116.480  47.726  1.00  0.00     0.099 A 
HETATM   14  C14 UNL     1      44.056 115.417  49.845  1.00  0.00     0.077 C 
HETATM   15  C15 UNL     1      44.342 116.013  51.177  1.00  0.00     0.230 C 
HETATM   16  C16 UNL     1      45.226 117.172  51.234  1.00  0.00     0.016 A 
HETATM   17  C17 UNL     1      46.560 116.960  51.114  1.00  0.00    -0.043 A 
HETATM   18  C18 UNL     1      47.515 117.962  51.156  1.00  0.00     0.047 A 
HETATM   19  C19 UNL     1      47.109 119.260  51.329  1.00  0.00     0.104 A 
HETATM   20  C21 UNL     1      45.760 119.505  51.453  1.00  0.00     0.134 A 
HETATM   21  C22 UNL     1      44.766 118.511  51.414  1.00  0.00     0.120 A 
HETATM   22  O6  UNL     1      43.488 118.776  51.533  1.00  0.00    -0.307 OA
HETATM   23  C23 UNL     1      42.262 118.997  52.013  1.00  0.00     0.076 A 
HETATM   24  C24 UNL     1      41.612 120.180  51.731  1.00  0.00     0.038 A 
HETATM   25  C25 UNL     1      40.316 120.492  52.197  1.00  0.00     0.010 A 
HETATM   26  C26 UNL     1      39.631 119.586  52.979  1.00  0.00    -0.056 A 
HETATM   27  C27 UNL     1      40.241 118.394  53.284  1.00  0.00     0.010 A 
HETATM   28  C28 UNL     1      41.547 118.131  52.790  1.00  0.00     0.038 A 
HETATM   29  C29 UNL     1      38.224 119.902  53.468  1.00  0.00     0.079 C 
HETATM   30  C30 UNL     1      37.203 119.525  52.385  1.00  0.00     0.260 C 
HETATM   31  N1  UNL     1      35.832 119.597  52.866  1.00  0.00     0.093 N 
HETATM   32  C31 UNL     1      35.353 120.941  53.002  1.00  0.00     0.310 C 
HETATM   33  C32 UNL     1      35.623 118.850  54.057  1.00  0.00     0.277 C 
HETATM   34  C33 UNL     1      36.207 117.491  53.957  1.00  0.00     0.069 C 
HETATM   35  C34 UNL     1      47.083 115.576  50.904  1.00  0.00     0.067 C 
HETATM   36  C35 UNL     1      46.220 114.554  51.530  1.00  0.00     0.242 C 
HETATM   37  N2  UNL     1      44.948 114.982  52.013  1.00  0.00    -0.066 N 
HETATM   38  C36 UNL     1      44.090 113.831  52.175  1.00  0.00     0.272 C 
HETATM   39  C37 UNL     1      45.104 115.572  53.339  1.00  0.00     0.272 C 
ENDROOT
BRANCH   1  40
HETATM   40  O1  UNL     1      37.862 114.110  51.036  1.00  0.00    -0.353 OA
HETATM   41  C1  UNL     1      36.804 113.433  50.431  1.00  0.00     0.210 C 
ENDBRANCH   1  40
BRANCH  13  42
HETATM   42  O3  UNL     1      39.489 116.898  46.896  1.00  0.00    -0.358 OA
ATOM     43  H3  UNL     1      39.583 117.549  46.211  1.00  0.00     0.217 HD
ENDBRANCH  13  42
BRANCH  20  44
HETATM   44  O5  UNL     1      45.435 120.872  51.626  1.00  0.00    -0.356 OA
ATOM     45  H5  UNL     1      45.530 121.183  52.519  1.00  0.00     0.218 HD
ENDBRANCH  20  44
BRANCH  19  46
HETATM   46  O4  UNL     1      48.043 120.311  51.379  1.00  0.00    -0.353 OA
HETATM   47  C20 UNL     1      48.890 120.478  52.498  1.00  0.00     0.210 C 
ENDBRANCH  19  46
TORSDOF 4
ENDMDL
