MODEL 1
REMARK VINA RESULT: -9.188502412      0.000      0.000
REMARK  4 active torsions:
REMARK  status: ('A' for Active; 'I' for Inactive)
REMARK    1  A    between atoms: O1_2  and  C2_3 
REMARK    2  A    between atoms: C13_15  and  O3_16 
REMARK    3  A    between atoms: C19_23  and  O4_24 
REMARK    4  A    between atoms: C21_26  and  O5_27 
ROOT
HETATM    1  C2  UNL     1      48.064 116.413  49.932  1.00  0.00     0.102 A 
HETATM    2  C3  UNL     1      48.463 117.207  48.895  1.00  0.00     0.047 A 
HETATM    3  C4  UNL     1      48.342 118.577  49.087  1.00  0.00    -0.045 A 
HETATM    4  C5  UNL     1      47.837 119.131  50.289  1.00  0.00    -0.016 A 
HETATM    5  C6  UNL     1      47.438 118.311  51.327  1.00  0.00     0.050 A 
HETATM    6  C7  UNL     1      47.554 116.954  51.135  1.00  0.00     0.110 A 
HETATM    7  O2  UNL     1      47.183 115.933  52.077  1.00  0.00    -0.305 OA
HETATM    8  C8  UNL     1      45.917 115.620  52.630  1.00  0.00     0.109 A 
HETATM    9  C9  UNL     1      44.771 115.267  51.953  1.00  0.00     0.047 A 
HETATM   10  C10 UNL     1      43.631 115.015  52.672  1.00  0.00    -0.053 A 
HETATM   11  C11 UNL     1      43.693 115.123  54.066  1.00  0.00     0.010 A 
HETATM   12  C12 UNL     1      44.812 115.466  54.786  1.00  0.00     0.040 A 
HETATM   13  C13 UNL     1      45.924 115.711  54.010  1.00  0.00     0.099 A 
HETATM   14  C14 UNL     1      42.251 114.672  52.203  1.00  0.00     0.077 C 
HETATM   15  C15 UNL     1      41.621 115.574  51.202  1.00  0.00     0.230 C 
HETATM   16  C16 UNL     1      40.593 116.500  51.665  1.00  0.00     0.016 A 
HETATM   17  C17 UNL     1      39.353 116.004  51.905  1.00  0.00    -0.043 A 
HETATM   18  C18 UNL     1      38.281 116.766  52.340  1.00  0.00     0.047 A 
HETATM   19  C19 UNL     1      38.461 118.109  52.549  1.00  0.00     0.104 A 
HETATM   20  C21 UNL     1      39.710 118.639  52.314  1.00  0.00     0.134 A 
HETATM   21  C22 UNL     1      40.817 117.894  51.873  1.00  0.00     0.120 A 
HETATM   22  O6  UNL     1      41.996 118.427  51.660  1.00  0.00    -0.307 OA
HETATM   23  C23 UNL     1      43.057 119.018  51.104  1.00  0.00     0.076 A 
HETATM   24  C24 UNL     1      43.581 120.164  51.662  1.00  0.00     0.038 A 
HETATM   25  C25 UNL     1      44.700 120.848  51.138  1.00  0.00     0.010 A 
HETATM   26  C26 UNL     1      45.328 120.372  50.007  1.00  0.00    -0.056 A 
HETATM   27  C27 UNL     1      44.839 119.232  49.419  1.00  0.00     0.010 A 
HETATM   28  C28 UNL     1      43.710 118.583  49.986  1.00  0.00     0.038 A 
HETATM   29  C29 UNL     1      46.549 121.089  49.447  1.00  0.00     0.079 C 
HETATM   30  C30 UNL     1      47.812 120.611  50.179  1.00  0.00     0.260 C 
HETATM   31  N1  UNL     1      49.032 121.091  49.551  1.00  0.00     0.093 N 
HETATM   32  C31 UNL     1      49.284 122.481  49.799  1.00  0.00     0.310 C 
HETATM   33  C32 UNL     1      49.096 120.794  48.162  1.00  0.00     0.277 C 
HETATM   34  C33 UNL     1      48.737 119.381  47.892  1.00  0.00     0.069 C 
HETATM   35  C34 UNL     1      39.079 114.548  51.720  1.00  0.00     0.067 C 
HETATM   36  C35 UNL     1      39.929 113.951  50.669  1.00  0.00     0.242 C 
HETATM   37  N2  UNL     1      41.005 114.744  50.172  1.00  0.00    -0.066 N 
HETATM   38  C36 UNL     1      41.961 113.887  49.511  1.00  0.00     0.272 C 
HETATM   39  C37 UNL     1      40.502 115.663  49.156  1.00  0.00     0.272 C 
ENDROOT
BRANCH   1  40
HETATM   40  O1  UNL     1      48.192 115.022  49.739  1.00  0.00    -0.353 OA
HETATM   41  C1  UNL     1      49.281 114.526  49.023  1.00  0.00     0.210 C 
ENDBRANCH   1  40
BRANCH  13  42
HETATM   42  O3  UNL     1      47.075 116.061  54.762  1.00  0.00    -0.358 OA
ATOM     43  H3  UNL     1      47.262 116.947  55.048  1.00  0.00     0.217 HD
ENDBRANCH  13  42
BRANCH  20  44
HETATM   44  O5  UNL     1      39.801 120.031  52.558  1.00  0.00    -0.356 OA
ATOM     45  H5  UNL     1      39.973 120.254  53.465  1.00  0.00     0.218 HD
ENDBRANCH  20  44
BRANCH  19  46
HETATM   46  O4  UNL     1      37.401 118.922  52.990  1.00  0.00    -0.353 OA
HETATM   47  C20 UNL     1      36.182 118.355  53.426  1.00  0.00     0.210 C 
ENDBRANCH  19  46
TORSDOF 4
ENDMDL
