MODEL 2
REMARK VINA RESULT: -8.903397083      8.812     12.589
REMARK  4 active torsions:
REMARK  status: ('A' for Active; 'I' for Inactive)
REMARK    1  A    between atoms: O1_2  and  C2_3 
REMARK    2  A    between atoms: C13_15  and  O3_16 
REMARK    3  A    between atoms: C19_23  and  O4_24 
REMARK    4  A    between atoms: C21_26  and  O5_27 
ROOT
HETATM    1  C2  UNL     1      40.372 111.159  54.223  1.00  0.00     0.102 A 
HETATM    2  C3  UNL     1      40.504 111.854  53.055  1.00  0.00     0.047 A 
HETATM    3  C4  UNL     1      39.344 112.413  52.537  1.00  0.00    -0.045 A 
HETATM    4  C5  UNL     1      38.088 112.278  53.178  1.00  0.00    -0.016 A 
HETATM    5  C6  UNL     1      37.974 111.571  54.359  1.00  0.00     0.050 A 
HETATM    6  C7  UNL     1      39.123 111.014  54.870  1.00  0.00     0.110 A 
HETATM    7  O2  UNL     1      39.220 110.231  56.073  1.00  0.00    -0.305 OA
HETATM    8  C8  UNL     1      38.622 108.990  56.403  1.00  0.00     0.109 A 
HETATM    9  C9  UNL     1      38.753 107.792  55.736  1.00  0.00     0.047 A 
HETATM   10  C10 UNL     1      38.076 106.698  56.206  1.00  0.00    -0.053 A 
HETATM   11  C11 UNL     1      37.287 106.852  57.351  1.00  0.00     0.010 A 
HETATM   12  C12 UNL     1      37.129 108.022  58.054  1.00  0.00     0.040 A 
HETATM   13  C13 UNL     1      37.830 109.088  57.532  1.00  0.00     0.099 A 
HETATM   14  C14 UNL     1      37.990 105.307  55.657  1.00  0.00     0.077 C 
HETATM   15  C15 UNL     1      37.588 105.153  54.234  1.00  0.00     0.230 C 
HETATM   16  C16 UNL     1      36.225 104.712  53.951  1.00  0.00     0.016 A 
HETATM   17  C17 UNL     1      35.938 103.396  54.108  1.00  0.00    -0.043 A 
HETATM   18  C18 UNL     1      34.693 102.838  53.870  1.00  0.00     0.047 A 
HETATM   19  C19 UNL     1      33.671 103.647  53.447  1.00  0.00     0.104 A 
HETATM   20  C21 UNL     1      33.935 104.988  53.279  1.00  0.00     0.134 A 
HETATM   21  C22 UNL     1      35.185 105.586  53.513  1.00  0.00     0.120 A 
HETATM   22  O6  UNL     1      35.405 106.867  53.346  1.00  0.00    -0.307 OA
HETATM   23  C23 UNL     1      35.713 108.062  52.834  1.00  0.00     0.076 A 
HETATM   24  C24 UNL     1      34.798 109.091  52.880  1.00  0.00     0.038 A 
HETATM   25  C25 UNL     1      35.045 110.382  52.364  1.00  0.00     0.010 A 
HETATM   26  C26 UNL     1      36.259 110.665  51.774  1.00  0.00    -0.056 A 
HETATM   27  C27 UNL     1      37.201 109.668  51.708  1.00  0.00     0.010 A 
HETATM   28  C28 UNL     1      36.900 108.387  52.242  1.00  0.00     0.038 A 
HETATM   29  C29 UNL     1      36.544 112.060  51.235  1.00  0.00     0.079 C 
HETATM   30  C30 UNL     1      37.045 112.962  52.373  1.00  0.00     0.260 C 
HETATM   31  N1  UNL     1      37.541 114.241  51.888  1.00  0.00     0.093 N 
HETATM   32  C31 UNL     1      36.494 115.138  51.493  1.00  0.00     0.310 C 
HETATM   33  C32 UNL     1      38.519 114.106  50.866  1.00  0.00     0.277 C 
HETATM   34  C33 UNL     1      39.550 113.103  51.229  1.00  0.00     0.069 C 
HETATM   35  C34 UNL     1      36.992 102.450  54.583  1.00  0.00     0.067 C 
HETATM   36  C35 UNL     1      38.345 102.872  54.170  1.00  0.00     0.242 C 
HETATM   37  N2  UNL     1      38.481 104.179  53.614  1.00  0.00    -0.066 N 
HETATM   38  C36 UNL     1      39.865 104.583  53.681  1.00  0.00     0.272 C 
HETATM   39  C37 UNL     1      38.127 104.144  52.199  1.00  0.00     0.272 C 
ENDROOT
BRANCH   1  40
HETATM   40  O1  UNL     1      41.552 110.597  54.752  1.00  0.00    -0.353 OA
HETATM   41  C1  UNL     1      42.778 111.211  54.500  1.00  0.00     0.210 C 
ENDBRANCH   1  40
BRANCH  13  42
HETATM   42  O3  UNL     1      37.664 110.291  58.265  1.00  0.00    -0.358 OA
ATOM     43  H3  UNL     1      36.920 110.457  58.832  1.00  0.00     0.217 HD
ENDBRANCH  13  42
BRANCH  20  44
HETATM   44  O5  UNL     1      32.820 105.745  52.843  1.00  0.00    -0.356 OA
ATOM     45  H5  UNL     1      33.007 106.667  52.710  1.00  0.00     0.218 HD
ENDBRANCH  20  44
BRANCH  19  46
HETATM   46  O4  UNL     1      32.390 103.124  53.191  1.00  0.00    -0.353 OA
HETATM   47  C20 UNL     1      32.228 101.912  52.482  1.00  0.00     0.210 C 
ENDBRANCH  19  46
TORSDOF 4
ENDMDL
