MODEL 3
REMARK VINA RESULT: -8.852109194      1.084      1.749
REMARK  9 active torsions:
REMARK  status: ('A' for Active; 'I' for Inactive)
REMARK    1  A    between atoms: N1_7  and  C5_8 
REMARK    2  A    between atoms: C5_8  and  C6_9 
REMARK    3  A    between atoms: C6_9  and  C7_10 
REMARK    4  A    between atoms: C7_10  and  N2_11 
REMARK    5  A    between atoms: N2_11  and  C8_12 
REMARK    6  A    between atoms: C8_12  and  C9_13 
REMARK    7  A    between atoms: C9_13  and  O3_14 
REMARK    8  A    between atoms: C18_25  and  C19_26 
REMARK    9  A    between atoms: C21_28  and  C22_29 
ROOT
HETATM    1  O1  UNL     1      -2.275  11.332  21.526  1.00  0.00    -0.272 OA
HETATM    2  C1  UNL     1      -3.446  11.792  21.557  1.00  0.00     0.234 C 
HETATM    3  C2  UNL     1      -3.758  13.163  22.024  1.00  0.00     0.133 C 
HETATM    4  C3  UNL     1      -5.179  13.440  21.633  1.00  0.00     0.127 C 
HETATM    5  C4  UNL     1      -5.718  12.126  21.202  1.00  0.00     0.233 C 
HETATM    6  O2  UNL     1      -6.905  11.915  20.910  1.00  0.00    -0.272 OA
HETATM    7  N1  UNL     1      -4.657  11.149  21.180  1.00  0.00    -0.288 N 
HETATM    8  C14 UNL     1      -5.885  13.826  22.936  1.00  0.00     0.238 C 
HETATM    9  C15 UNL     1      -5.582  15.225  23.356  1.00  0.00     0.038 C 
HETATM   10  C16 UNL     1      -5.355  15.118  24.860  1.00  0.00     0.032 C 
HETATM   11  C17 UNL     1      -5.348  13.651  25.187  1.00  0.00     0.274 C 
HETATM   12  N3  UNL     1      -5.145  13.032  23.889  1.00  0.00     0.105 N 
HETATM   13  C18 UNL     1      -3.774  13.293  23.507  1.00  0.00     0.288 C 
ENDROOT
BRANCH   7  14
HETATM   14  C5  UNL     1      -4.742   9.764  20.846  1.00  0.00     0.137 C 
BRANCH  14  15
HETATM   15  C6  UNL     1      -4.669   9.481  19.369  1.00  0.00     0.048 C 
BRANCH  15  16
HETATM   16  C7  UNL     1      -4.923   7.998  19.187  1.00  0.00     0.239 C 
BRANCH  16  17
HETATM   17  N2  UNL     1      -5.714   7.698  18.010  1.00  0.00    -0.065 N 
HETATM   18  C10 UNL     1      -7.100   8.025  18.285  1.00  0.00     0.237 C 
HETATM   19  C11 UNL     1      -7.672   8.359  16.921  1.00  0.00     0.029 C 
HETATM   20  C12 UNL     1      -6.538   9.066  16.254  1.00  0.00     0.029 C 
HETATM   21  C13 UNL     1      -5.287   8.602  16.965  1.00  0.00     0.237 C 
BRANCH  17  22
HETATM   22  C8  UNL     1      -5.564   6.316  17.700  1.00  0.00     0.263 C 
BRANCH  22  23
HETATM   23  C9  UNL     1      -6.434   5.377  18.467  1.00  0.00     0.192 C 
BRANCH  23  24
HETATM   24  O3  UNL     1      -6.758   4.270  17.702  1.00  0.00    -0.399 OA
ATOM     25  H3  UNL     1      -6.438   4.368  16.814  1.00  0.00     0.209 HD
ENDBRANCH  23  24
ENDBRANCH  22  23
ENDBRANCH  17  22
ENDBRANCH  16  17
ENDBRANCH  15  16
ENDBRANCH  14  15
ENDBRANCH   7  14
BRANCH  13  26
HETATM   26  C19 UNL     1      -2.839  12.368  24.187  1.00  0.00     0.069 A 
HETATM   27  C20 UNL     1      -3.135  11.291  24.996  1.00  0.00     0.070 A 
HETATM   28  C21 UNL     1      -1.961  10.726  25.404  1.00  0.00     0.117 A 
HETATM   29  O4  UNL     1      -0.996  11.424  24.869  1.00  0.00    -0.236 OA
HETATM   30  N4  UNL     1      -1.498  12.404  24.141  1.00  0.00    -0.263 N 
ATOM     31  H4  UNL     1      -0.948  13.089  23.621  1.00  0.00     0.194 HD
BRANCH  28  32
HETATM   32  C22 UNL     1      -1.777   9.547  26.284  1.00  0.00     0.042 A 
HETATM   33  C23 UNL     1      -2.568   9.167  27.339  1.00  0.00     0.024 A 
HETATM   34  C24 UNL     1      -2.214   8.060  28.000  1.00  0.00     0.033 A 
HETATM   35  C25 UNL     1      -1.096   7.400  27.575  1.00  0.00     0.075 A 
HETATM   36 CL1  UNL     1      -0.385   5.923  28.244  1.00  0.00    -0.076 Cl
HETATM   37  S1  UNL     1      -0.569   8.345  26.259  1.00  0.00    -0.075 SA
ENDBRANCH  28  32
ENDBRANCH  13  26
TORSDOF 9
ENDMDL
