MODEL 11
REMARK VINA RESULT: -7.980573544      3.614      7.921
REMARK  9 active torsions:
REMARK  status: ('A' for Active; 'I' for Inactive)
REMARK    1  A    between atoms: N1_7  and  C5_8 
REMARK    2  A    between atoms: C5_8  and  C6_9 
REMARK    3  A    between atoms: C6_9  and  C7_10 
REMARK    4  A    between atoms: C7_10  and  N2_11 
REMARK    5  A    between atoms: N2_11  and  C8_12 
REMARK    6  A    between atoms: C8_12  and  C9_13 
REMARK    7  A    between atoms: C9_13  and  O3_14 
REMARK    8  A    between atoms: C18_25  and  C19_26 
REMARK    9  A    between atoms: C21_28  and  C22_29 
ROOT
HETATM    1  O1  UNL     1      -5.392  13.033  20.782  1.00  0.00    -0.272 OA
HETATM    2  C1  UNL     1      -4.923  12.949  21.946  1.00  0.00     0.234 C 
HETATM    3  C2  UNL     1      -3.472  13.020  22.235  1.00  0.00     0.133 C 
HETATM    4  C3  UNL     1      -3.332  13.187  23.719  1.00  0.00     0.127 C 
HETATM    5  C4  UNL     1      -4.691  12.932  24.259  1.00  0.00     0.233 C 
HETATM    6  O2  UNL     1      -4.966  12.864  25.467  1.00  0.00    -0.272 OA
HETATM    7  N1  UNL     1      -5.626  12.778  23.171  1.00  0.00    -0.288 N 
HETATM    8  C14 UNL     1      -2.430  12.035  24.169  1.00  0.00     0.238 C 
HETATM    9  C15 UNL     1      -0.992  12.286  23.866  1.00  0.00     0.038 C 
HETATM   10  C16 UNL     1      -0.487  10.947  23.336  1.00  0.00     0.032 C 
HETATM   11  C17 UNL     1      -1.695  10.067  23.182  1.00  0.00     0.274 C 
HETATM   12  N3  UNL     1      -2.794  11.018  23.209  1.00  0.00     0.105 N 
HETATM   13  C18 UNL     1      -2.752  11.745  21.959  1.00  0.00     0.288 C 
ENDROOT
BRANCH   7  14
HETATM   14  C5  UNL     1      -7.024  12.500  23.245  1.00  0.00     0.137 C 
BRANCH  14  15
HETATM   15  C6  UNL     1      -7.799  13.466  24.102  1.00  0.00     0.048 C 
BRANCH  15  16
HETATM   16  C7  UNL     1      -7.900  14.765  23.329  1.00  0.00     0.239 C 
BRANCH  16  17
HETATM   17  N2  UNL     1      -7.417  15.909  24.078  1.00  0.00    -0.065 N 
HETATM   18  C10 UNL     1      -7.069  15.475  25.417  1.00  0.00     0.237 C 
HETATM   19  C11 UNL     1      -5.991  16.451  25.846  1.00  0.00     0.029 C 
HETATM   20  C12 UNL     1      -5.229  16.674  24.582  1.00  0.00     0.029 C 
HETATM   21  C13 UNL     1      -6.183  16.337  23.459  1.00  0.00     0.237 C 
BRANCH  17  22
HETATM   22  C8  UNL     1      -8.442  16.898  24.109  1.00  0.00     0.263 C 
BRANCH  22  23
HETATM   23  C9  UNL     1      -9.702  16.511  24.809  1.00  0.00     0.192 C 
BRANCH  23  24
HETATM   24  O3  UNL     1      -9.879  17.267  25.955  1.00  0.00    -0.399 OA
ATOM     25  H3  UNL     1      -9.091  17.267  26.485  1.00  0.00     0.209 HD
ENDBRANCH  23  24
ENDBRANCH  22  23
ENDBRANCH  17  22
ENDBRANCH  16  17
ENDBRANCH  15  16
ENDBRANCH  14  15
ENDBRANCH   7  14
BRANCH  13  26
HETATM   26  C19 UNL     1      -3.351  10.959  20.858  1.00  0.00     0.069 A 
HETATM   27  C20 UNL     1      -4.164   9.849  20.940  1.00  0.00     0.070 A 
HETATM   28  C21 UNL     1      -4.480   9.453  19.671  1.00  0.00     0.117 A 
HETATM   29  O4  UNL     1      -3.888  10.284  18.855  1.00  0.00    -0.236 OA
HETATM   30  N4  UNL     1      -3.212  11.187  19.542  1.00  0.00    -0.263 N 
ATOM     31  H4  UNL     1      -2.666  11.945  19.133  1.00  0.00     0.194 HD
BRANCH  28  32
HETATM   32  C22 UNL     1      -5.327   8.309  19.260  1.00  0.00     0.042 A 
HETATM   33  C23 UNL     1      -6.651   8.106  19.562  1.00  0.00     0.024 A 
HETATM   34  C24 UNL     1      -7.223   6.997  19.083  1.00  0.00     0.033 A 
HETATM   35  C25 UNL     1      -6.447   6.157  18.336  1.00  0.00     0.075 A 
HETATM   36 CL1  UNL     1      -6.918   4.629  17.576  1.00  0.00    -0.076 Cl
HETATM   37  S1  UNL     1      -4.935   6.942  18.322  1.00  0.00    -0.075 SA
ENDBRANCH  28  32
ENDBRANCH  13  26
TORSDOF 9
ENDMDL
