MODEL 4
REMARK VINA RESULT: -8.427106784      1.366      1.761
REMARK  9 active torsions:
REMARK  status: ('A' for Active; 'I' for Inactive)
REMARK    1  A    between atoms: N1_7  and  C5_8 
REMARK    2  A    between atoms: C5_8  and  C6_9 
REMARK    3  A    between atoms: C6_9  and  C7_10 
REMARK    4  A    between atoms: C7_10  and  N2_11 
REMARK    5  A    between atoms: N2_11  and  C8_12 
REMARK    6  A    between atoms: C8_12  and  C9_13 
REMARK    7  A    between atoms: C9_13  and  O3_14 
REMARK    8  A    between atoms: C18_25  and  C19_26 
REMARK    9  A    between atoms: C21_28  and  C22_29 
ROOT
HETATM    1  O1  UNL     1      -1.887  11.646  21.535  1.00  0.00    -0.272 OA
HETATM    2  C1  UNL     1      -3.061  12.096  21.551  1.00  0.00     0.234 C 
HETATM    3  C2  UNL     1      -3.407  13.418  22.123  1.00  0.00     0.133 C 
HETATM    4  C3  UNL     1      -4.810  13.725  21.690  1.00  0.00     0.127 C 
HETATM    5  C4  UNL     1      -5.316  12.453  21.116  1.00  0.00     0.233 C 
HETATM    6  O2  UNL     1      -6.486  12.265  20.748  1.00  0.00    -0.272 OA
HETATM    7  N1  UNL     1      -4.247  11.486  21.058  1.00  0.00    -0.288 N 
HETATM    8  C14 UNL     1      -5.581  13.988  22.987  1.00  0.00     0.238 C 
HETATM    9  C15 UNL     1      -5.310  15.344  23.546  1.00  0.00     0.038 C 
HETATM   10  C16 UNL     1      -5.155  15.101  25.044  1.00  0.00     0.032 C 
HETATM   11  C17 UNL     1      -5.153  13.611  25.236  1.00  0.00     0.274 C 
HETATM   12  N3  UNL     1      -4.881  13.113  23.899  1.00  0.00     0.105 N 
HETATM   13  C18 UNL     1      -3.495  13.412  23.610  1.00  0.00     0.288 C 
ENDROOT
BRANCH   7  14
HETATM   14  C5  UNL     1      -4.305  10.137  20.596  1.00  0.00     0.137 C 
BRANCH  14  15
HETATM   15  C6  UNL     1      -4.580  10.002  19.121  1.00  0.00     0.048 C 
BRANCH  15  16
HETATM   16  C7  UNL     1      -4.781   8.527  18.840  1.00  0.00     0.239 C 
BRANCH  16  17
HETATM   17  N2  UNL     1      -6.168   8.179  18.597  1.00  0.00    -0.065 N 
HETATM   18  C10 UNL     1      -6.448   8.349  17.183  1.00  0.00     0.237 C 
HETATM   19  C11 UNL     1      -7.566   7.360  16.914  1.00  0.00     0.029 C 
HETATM   20  C12 UNL     1      -7.195   6.202  17.781  1.00  0.00     0.029 C 
HETATM   21  C13 UNL     1      -6.310   6.767  18.869  1.00  0.00     0.237 C 
BRANCH  17  22
HETATM   22  C8  UNL     1      -6.995   9.025  19.389  1.00  0.00     0.263 C 
BRANCH  22  23
HETATM   23  C9  UNL     1      -7.429   8.469  20.705  1.00  0.00     0.192 C 
BRANCH  23  24
HETATM   24  O3  UNL     1      -7.522   9.470  21.656  1.00  0.00    -0.399 OA
ATOM     25  H3  UNL     1      -7.341   9.129  22.523  1.00  0.00     0.209 HD
ENDBRANCH  23  24
ENDBRANCH  22  23
ENDBRANCH  17  22
ENDBRANCH  16  17
ENDBRANCH  15  16
ENDBRANCH  14  15
ENDBRANCH   7  14
BRANCH  13  26
HETATM   26  C19 UNL     1      -2.588  12.433  24.249  1.00  0.00     0.069 A 
HETATM   27  C20 UNL     1      -2.912  11.353  25.041  1.00  0.00     0.070 A 
HETATM   28  C21 UNL     1      -1.756  10.728  25.410  1.00  0.00     0.117 A 
HETATM   29  O4  UNL     1      -0.773  11.394  24.867  1.00  0.00    -0.236 OA
HETATM   30  N4  UNL     1      -1.248  12.412  24.172  1.00  0.00    -0.263 N 
ATOM     31  H4  UNL     1      -0.680  13.083  23.654  1.00  0.00     0.194 HD
BRANCH  28  32
HETATM   32  C22 UNL     1      -1.604   9.523  26.260  1.00  0.00     0.042 A 
HETATM   33  C23 UNL     1      -2.399   9.145  27.313  1.00  0.00     0.024 A 
HETATM   34  C24 UNL     1      -2.077   8.012  27.945  1.00  0.00     0.033 A 
HETATM   35  C25 UNL     1      -0.986   7.324  27.495  1.00  0.00     0.075 A 
HETATM   36 CL1  UNL     1      -0.320   5.808  28.122  1.00  0.00    -0.076 Cl
HETATM   37  S1  UNL     1      -0.438   8.282  26.196  1.00  0.00    -0.075 SA
ENDBRANCH  28  32
ENDBRANCH  13  26
TORSDOF 9
ENDMDL
