MODEL 1
REMARK VINA RESULT: -9.557128466      0.000      0.000
REMARK  9 active torsions:
REMARK  status: ('A' for Active; 'I' for Inactive)
REMARK    1  A    between atoms: N1_7  and  C5_8 
REMARK    2  A    between atoms: C5_8  and  C6_9 
REMARK    3  A    between atoms: C6_9  and  C7_10 
REMARK    4  A    between atoms: C7_10  and  N2_11 
REMARK    5  A    between atoms: N2_11  and  C8_12 
REMARK    6  A    between atoms: C8_12  and  C9_13 
REMARK    7  A    between atoms: C9_13  and  O3_14 
REMARK    8  A    between atoms: C18_25  and  C19_26 
REMARK    9  A    between atoms: C21_28  and  C22_29 
ROOT
HETATM    1  O1  UNL     1      -2.237  11.221  21.548  1.00  0.00    -0.272 OA
HETATM    2  C1  UNL     1      -3.359  11.784  21.617  1.00  0.00     0.234 C 
HETATM    3  C2  UNL     1      -3.527  13.192  22.043  1.00  0.00     0.133 C 
HETATM    4  C3  UNL     1      -4.936  13.582  21.711  1.00  0.00     0.127 C 
HETATM    5  C4  UNL     1      -5.609  12.307  21.358  1.00  0.00     0.233 C 
HETATM    6  O2  UNL     1      -6.824  12.192  21.131  1.00  0.00    -0.272 OA
HETATM    7  N1  UNL     1      -4.639  11.239  21.324  1.00  0.00    -0.288 N 
HETATM    8  C14 UNL     1      -5.538  14.074  23.030  1.00  0.00     0.238 C 
HETATM    9  C15 UNL     1      -5.093  15.454  23.379  1.00  0.00     0.038 C 
HETATM   10  C16 UNL     1      -4.799  15.381  24.874  1.00  0.00     0.032 C 
HETATM   11  C17 UNL     1      -4.904  13.932  25.258  1.00  0.00     0.274 C 
HETATM   12  N3  UNL     1      -4.822  13.251  23.976  1.00  0.00     0.105 N 
HETATM   13  C18 UNL     1      -3.455  13.375  23.520  1.00  0.00     0.288 C 
ENDROOT
BRANCH   7  14
HETATM   14  C5  UNL     1      -4.863   9.856  21.050  1.00  0.00     0.137 C 
BRANCH  14  15
HETATM   15  C6  UNL     1      -4.541   9.448  19.636  1.00  0.00     0.048 C 
BRANCH  15  16
HETATM   16  C7  UNL     1      -5.836   9.508  18.851  1.00  0.00     0.239 C 
BRANCH  16  17
HETATM   17  N2  UNL     1      -6.095   8.301  18.091  1.00  0.00    -0.065 N 
HETATM   18  C10 UNL     1      -4.889   7.494  18.076  1.00  0.00     0.237 C 
HETATM   19  C11 UNL     1      -5.405   6.075  17.929  1.00  0.00     0.029 C 
HETATM   20  C12 UNL     1      -6.648   6.090  18.754  1.00  0.00     0.029 C 
HETATM   21  C13 UNL     1      -7.081   7.537  18.823  1.00  0.00     0.237 C 
BRANCH  17  22
HETATM   22  C8  UNL     1      -6.485   8.667  16.771  1.00  0.00     0.263 C 
BRANCH  22  23
HETATM   23  C9  UNL     1      -5.398   9.188  15.890  1.00  0.00     0.192 C 
BRANCH  23  24
HETATM   24  O3  UNL     1      -5.630   8.847  14.569  1.00  0.00    -0.399 OA
ATOM     25  H3  UNL     1      -6.142   8.050  14.511  1.00  0.00     0.209 HD
ENDBRANCH  23  24
ENDBRANCH  22  23
ENDBRANCH  17  22
ENDBRANCH  16  17
ENDBRANCH  15  16
ENDBRANCH  14  15
ENDBRANCH   7  14
BRANCH  13  26
HETATM   26  C19 UNL     1      -2.571  12.395  24.190  1.00  0.00     0.069 A 
HETATM   27  C20 UNL     1      -2.922  11.348  25.015  1.00  0.00     0.070 A 
HETATM   28  C21 UNL     1      -1.781  10.708  25.406  1.00  0.00     0.117 A 
HETATM   29  O4  UNL     1      -0.782  11.335  24.844  1.00  0.00    -0.236 OA
HETATM   30  N4  UNL     1      -1.232  12.341  24.118  1.00  0.00    -0.263 N 
ATOM     31  H4  UNL     1      -0.648  12.982  23.581  1.00  0.00     0.194 HD
BRANCH  28  32
HETATM   32  C22 UNL     1      -1.658   9.526  26.292  1.00  0.00     0.042 A 
HETATM   33  C23 UNL     1      -2.490   9.175  27.326  1.00  0.00     0.024 A 
HETATM   34  C24 UNL     1      -2.190   8.059  27.999  1.00  0.00     0.033 A 
HETATM   35  C25 UNL     1      -1.083   7.362  27.607  1.00  0.00     0.075 A 
HETATM   36 CL1  UNL     1      -0.438   5.865  28.298  1.00  0.00    -0.076 Cl
HETATM   37  S1  UNL     1      -0.490   8.286  26.304  1.00  0.00    -0.075 SA
ENDBRANCH  28  32
ENDBRANCH  13  26
TORSDOF 9
ENDMDL
