MODEL 2
REMARK VINA RESULT: -8.890198485      0.956      1.086
REMARK  9 active torsions:
REMARK  status: ('A' for Active; 'I' for Inactive)
REMARK    1  A    between atoms: N1_7  and  C5_8 
REMARK    2  A    between atoms: C5_8  and  C6_9 
REMARK    3  A    between atoms: C6_9  and  C7_10 
REMARK    4  A    between atoms: C7_10  and  N2_11 
REMARK    5  A    between atoms: N2_11  and  C8_12 
REMARK    6  A    between atoms: C8_12  and  C9_13 
REMARK    7  A    between atoms: C9_13  and  O3_14 
REMARK    8  A    between atoms: C18_25  and  C19_26 
REMARK    9  A    between atoms: C21_28  and  C22_29 
ROOT
HETATM    1  O1  UNL     1      -2.964  11.736  21.200  1.00  0.00    -0.272 OA
HETATM    2  C1  UNL     1      -4.152  12.099  21.397  1.00  0.00     0.234 C 
HETATM    3  C2  UNL     1      -4.509  13.448  21.892  1.00  0.00     0.133 C 
HETATM    4  C3  UNL     1      -5.990  13.600  21.710  1.00  0.00     0.127 C 
HETATM    5  C4  UNL     1      -6.472  12.237  21.372  1.00  0.00     0.233 C 
HETATM    6  O2  UNL     1      -7.667  11.922  21.257  1.00  0.00    -0.272 OA
HETATM    7  N1  UNL     1      -5.346  11.351  21.205  1.00  0.00    -0.288 N 
HETATM    8  C14 UNL     1      -6.531  13.953  23.098  1.00  0.00     0.238 C 
HETATM    9  C15 UNL     1      -6.290  15.380  23.457  1.00  0.00     0.038 C 
HETATM   10  C16 UNL     1      -5.841  15.323  24.913  1.00  0.00     0.032 C 
HETATM   11  C17 UNL     1      -5.664  13.869  25.249  1.00  0.00     0.274 C 
HETATM   12  N3  UNL     1      -5.597  13.242  23.940  1.00  0.00     0.105 N 
HETATM   13  C18 UNL     1      -4.322  13.607  23.361  1.00  0.00     0.288 C 
ENDROOT
BRANCH   7  14
HETATM   14  C5  UNL     1      -5.362   9.956  20.899  1.00  0.00     0.137 C 
BRANCH  14  15
HETATM   15  C6  UNL     1      -4.866   9.623  19.516  1.00  0.00     0.048 C 
BRANCH  15  16
HETATM   16  C7  UNL     1      -6.076   9.229  18.693  1.00  0.00     0.239 C 
BRANCH  16  17
HETATM   17  N2  UNL     1      -5.860   8.032  17.905  1.00  0.00    -0.065 N 
HETATM   18  C10 UNL     1      -4.935   7.169  18.615  1.00  0.00     0.237 C 
HETATM   19  C11 UNL     1      -5.306   5.775  18.146  1.00  0.00     0.029 C 
HETATM   20  C12 UNL     1      -6.792   5.853  18.031  1.00  0.00     0.029 C 
HETATM   21  C13 UNL     1      -7.117   7.319  17.855  1.00  0.00     0.237 C 
BRANCH  17  22
HETATM   22  C8  UNL     1      -5.339   8.410  16.635  1.00  0.00     0.263 C 
BRANCH  22  23
HETATM   23  C9  UNL     1      -6.270   9.163  15.745  1.00  0.00     0.192 C 
BRANCH  23  24
HETATM   24  O3  UNL     1      -6.013   8.883  14.414  1.00  0.00    -0.399 OA
ATOM     25  H3  UNL     1      -6.424   9.525  13.848  1.00  0.00     0.209 HD
ENDBRANCH  23  24
ENDBRANCH  22  23
ENDBRANCH  17  22
ENDBRANCH  16  17
ENDBRANCH  15  16
ENDBRANCH  14  15
ENDBRANCH   7  14
BRANCH  13  26
HETATM   26  C19 UNL     1      -3.225  12.777  23.906  1.00  0.00     0.069 A 
HETATM   27  C20 UNL     1      -3.313  11.654  24.702  1.00  0.00     0.070 A 
HETATM   28  C21 UNL     1      -2.047  11.214  24.965  1.00  0.00     0.117 A 
HETATM   29  O4  UNL     1      -1.227  12.029  24.357  1.00  0.00    -0.236 OA
HETATM   30  N4  UNL     1      -1.909  12.965  23.722  1.00  0.00    -0.263 N 
ATOM     31  H4  UNL     1      -1.496  13.719  23.173  1.00  0.00     0.194 HD
BRANCH  28  32
HETATM   32  C22 UNL     1      -1.642  10.042  25.777  1.00  0.00     0.042 A 
HETATM   33  C23 UNL     1      -0.556   9.228  25.575  1.00  0.00     0.024 A 
HETATM   34  C24 UNL     1      -0.379   8.221  26.436  1.00  0.00     0.033 A 
HETATM   35  C25 UNL     1      -1.290   8.082  27.443  1.00  0.00     0.075 A 
HETATM   36 CL1  UNL     1      -1.321   6.858  28.722  1.00  0.00    -0.076 Cl
HETATM   37  S1  UNL     1      -2.374   9.367  27.160  1.00  0.00    -0.075 SA
ENDBRANCH  28  32
ENDBRANCH  13  26
TORSDOF 9
ENDMDL
