MODEL 6
REMARK VINA RESULT: -8.152461785      3.361      7.100
REMARK  9 active torsions:
REMARK  status: ('A' for Active; 'I' for Inactive)
REMARK    1  A    between atoms: N1_7  and  C5_8 
REMARK    2  A    between atoms: C5_8  and  C6_9 
REMARK    3  A    between atoms: C6_9  and  C7_10 
REMARK    4  A    between atoms: C7_10  and  N2_11 
REMARK    5  A    between atoms: N2_11  and  C8_12 
REMARK    6  A    between atoms: C8_12  and  C9_13 
REMARK    7  A    between atoms: C9_13  and  O3_14 
REMARK    8  A    between atoms: C18_25  and  C19_26 
REMARK    9  A    between atoms: C21_28  and  C22_29 
ROOT
HETATM    1  O1  UNL     1      -5.617  11.760  24.431  1.00  0.00    -0.272 OA
HETATM    2  C1  UNL     1      -5.708  13.014  24.474  1.00  0.00     0.234 C 
HETATM    3  C2  UNL     1      -6.839  13.758  23.874  1.00  0.00     0.133 C 
HETATM    4  C3  UNL     1      -6.752  15.165  24.385  1.00  0.00     0.127 C 
HETATM    5  C4  UNL     1      -5.424  15.250  25.040  1.00  0.00     0.233 C 
HETATM    6  O2  UNL     1      -4.927  16.294  25.491  1.00  0.00    -0.272 OA
HETATM    7  N1  UNL     1      -4.811  13.944  25.067  1.00  0.00    -0.288 N 
HETATM    8  C14 UNL     1      -6.709  16.045  23.132  1.00  0.00     0.238 C 
HETATM    9  C15 UNL     1      -8.051  16.209  22.504  1.00  0.00     0.038 C 
HETATM   10  C16 UNL     1      -7.780  16.067  21.010  1.00  0.00     0.032 C 
HETATM   11  C17 UNL     1      -6.345  15.641  20.876  1.00  0.00     0.274 C 
HETATM   12  N3  UNL     1      -6.022  15.168  22.212  1.00  0.00     0.105 N 
HETATM   13  C18 UNL     1      -6.725  13.917  22.397  1.00  0.00     0.288 C 
ENDROOT
BRANCH   7  14
HETATM   14  C5  UNL     1      -3.530  13.583  25.584  1.00  0.00     0.137 C 
BRANCH  14  15
HETATM   15  C6  UNL     1      -2.601  12.980  24.562  1.00  0.00     0.048 C 
BRANCH  15  16
HETATM   16  C7  UNL     1      -2.138  11.648  25.115  1.00  0.00     0.239 C 
BRANCH  16  17
HETATM   17  N2  UNL     1      -1.320  10.900  24.180  1.00  0.00    -0.065 N 
HETATM   18  C10 UNL     1      -2.166  10.419  23.105  1.00  0.00     0.237 C 
HETATM   19  C11 UNL     1      -1.223  10.309  21.922  1.00  0.00     0.029 C 
HETATM   20  C12 UNL     1      -0.327  11.489  22.107  1.00  0.00     0.029 C 
HETATM   21  C13 UNL     1      -0.394  11.832  23.578  1.00  0.00     0.237 C 
BRANCH  17  22
HETATM   22  C8  UNL     1      -0.708   9.817  24.875  1.00  0.00     0.263 C 
BRANCH  22  23
HETATM   23  C9  UNL     1      -1.170   9.597  26.277  1.00  0.00     0.192 C 
BRANCH  23  24
HETATM   24  O3  UNL     1      -0.111   9.239  27.093  1.00  0.00    -0.399 OA
ATOM     25  H3  UNL     1      -0.288   8.417  27.535  1.00  0.00     0.209 HD
ENDBRANCH  23  24
ENDBRANCH  22  23
ENDBRANCH  17  22
ENDBRANCH  16  17
ENDBRANCH  15  16
ENDBRANCH  14  15
ENDBRANCH   7  14
BRANCH  13  26
HETATM   26  C19 UNL     1      -6.014  12.797  21.740  1.00  0.00     0.069 A 
HETATM   27  C20 UNL     1      -6.543  11.637  21.215  1.00  0.00     0.070 A 
HETATM   28  C21 UNL     1      -5.518  10.889  20.708  1.00  0.00     0.117 A 
HETATM   29  O4  UNL     1      -4.418  11.563  20.914  1.00  0.00    -0.236 OA
HETATM   30  N4  UNL     1      -4.693  12.700  21.526  1.00  0.00    -0.263 N 
ATOM     31  H4  UNL     1      -4.002  13.400  21.797  1.00  0.00     0.194 HD
BRANCH  28  32
HETATM   32  C22 UNL     1      -5.599   9.566  20.045  1.00  0.00     0.042 A 
HETATM   33  C23 UNL     1      -4.634   8.963  19.276  1.00  0.00     0.024 A 
HETATM   34  C24 UNL     1      -4.921   7.759  18.771  1.00  0.00     0.033 A 
HETATM   35  C25 UNL     1      -6.146   7.228  19.058  1.00  0.00     0.075 A 
HETATM   36 CL1  UNL     1      -6.805   5.669  18.538  1.00  0.00    -0.076 Cl
HETATM   37  S1  UNL     1      -6.867   8.428  20.029  1.00  0.00    -0.075 SA
ENDBRANCH  28  32
ENDBRANCH  13  26
TORSDOF 9
ENDMDL
