MODEL 9
REMARK VINA RESULT: -8.088252597      3.591      7.929
REMARK  9 active torsions:
REMARK  status: ('A' for Active; 'I' for Inactive)
REMARK    1  A    between atoms: N1_7  and  C5_8 
REMARK    2  A    between atoms: C5_8  and  C6_9 
REMARK    3  A    between atoms: C6_9  and  C7_10 
REMARK    4  A    between atoms: C7_10  and  N2_11 
REMARK    5  A    between atoms: N2_11  and  C8_12 
REMARK    6  A    between atoms: C8_12  and  C9_13 
REMARK    7  A    between atoms: C9_13  and  O3_14 
REMARK    8  A    between atoms: C18_25  and  C19_26 
REMARK    9  A    between atoms: C21_28  and  C22_29 
ROOT
HETATM    1  O1  UNL     1      -5.183  13.093  20.889  1.00  0.00    -0.272 OA
HETATM    2  C1  UNL     1      -4.702  12.985  22.046  1.00  0.00     0.234 C 
HETATM    3  C2  UNL     1      -3.246  12.998  22.316  1.00  0.00     0.133 C 
HETATM    4  C3  UNL     1      -3.080  13.153  23.798  1.00  0.00     0.127 C 
HETATM    5  C4  UNL     1      -4.441  12.949  24.355  1.00  0.00     0.233 C 
HETATM    6  O2  UNL     1      -4.702  12.886  25.567  1.00  0.00    -0.272 OA
HETATM    7  N1  UNL     1      -5.395  12.836  23.279  1.00  0.00    -0.288 N 
HETATM    8  C14 UNL     1      -2.218  11.964  24.232  1.00  0.00     0.238 C 
HETATM    9  C15 UNL     1      -0.775  12.159  23.911  1.00  0.00     0.038 C 
HETATM   10  C16 UNL     1      -0.331  10.805  23.369  1.00  0.00     0.032 C 
HETATM   11  C17 UNL     1      -1.574   9.973  23.228  1.00  0.00     0.274 C 
HETATM   12  N3  UNL     1      -2.634  10.966  23.273  1.00  0.00     0.105 N 
HETATM   13  C18 UNL     1      -2.580  11.698  22.026  1.00  0.00     0.288 C 
ENDROOT
BRANCH   7  14
HETATM   14  C5  UNL     1      -6.802  12.614  23.370  1.00  0.00     0.137 C 
BRANCH  14  15
HETATM   15  C6  UNL     1      -7.633  13.865  23.252  1.00  0.00     0.048 C 
BRANCH  15  16
HETATM   16  C7  UNL     1      -7.727  14.468  24.638  1.00  0.00     0.239 C 
BRANCH  16  17
HETATM   17  N2  UNL     1      -7.765  15.917  24.625  1.00  0.00    -0.065 N 
HETATM   18  C10 UNL     1      -7.352  16.381  23.313  1.00  0.00     0.237 C 
HETATM   19  C11 UNL     1      -8.062  17.712  23.159  1.00  0.00     0.029 C 
HETATM   20  C12 UNL     1      -9.378  17.460  23.818  1.00  0.00     0.029 C 
HETATM   21  C13 UNL     1      -9.148  16.312  24.774  1.00  0.00     0.237 C 
BRANCH  17  22
HETATM   22  C8  UNL     1      -6.894  16.406  25.640  1.00  0.00     0.263 C 
BRANCH  22  23
HETATM   23  C9  UNL     1      -5.433  16.286  25.359  1.00  0.00     0.192 C 
BRANCH  23  24
HETATM   24  O3  UNL     1      -4.746  15.888  26.493  1.00  0.00    -0.399 OA
ATOM     25  H3  UNL     1      -3.855  15.638  26.277  1.00  0.00     0.209 HD
ENDBRANCH  23  24
ENDBRANCH  22  23
ENDBRANCH  17  22
ENDBRANCH  16  17
ENDBRANCH  15  16
ENDBRANCH  14  15
ENDBRANCH   7  14
BRANCH  13  26
HETATM   26  C19 UNL     1      -3.224  10.941  20.929  1.00  0.00     0.069 A 
HETATM   27  C20 UNL     1      -4.036   9.830  21.014  1.00  0.00     0.070 A 
HETATM   28  C21 UNL     1      -4.403   9.467  19.750  1.00  0.00     0.117 A 
HETATM   29  O4  UNL     1      -3.841  10.317  18.932  1.00  0.00    -0.236 OA
HETATM   30  N4  UNL     1      -3.136  11.201  19.614  1.00  0.00    -0.263 N 
ATOM     31  H4  UNL     1      -2.604  11.968  19.203  1.00  0.00     0.194 HD
BRANCH  28  32
HETATM   32  C22 UNL     1      -5.269   8.335  19.343  1.00  0.00     0.042 A 
HETATM   33  C23 UNL     1      -6.612   8.189  19.587  1.00  0.00     0.024 A 
HETATM   34  C24 UNL     1      -7.199   7.080  19.126  1.00  0.00     0.033 A 
HETATM   35  C25 UNL     1      -6.418   6.184  18.452  1.00  0.00     0.075 A 
HETATM   36 CL1  UNL     1      -6.904   4.642  17.732  1.00  0.00    -0.076 Cl
HETATM   37  S1  UNL     1      -4.880   6.918  18.482  1.00  0.00    -0.075 SA
ENDBRANCH  28  32
ENDBRANCH  13  26
TORSDOF 9
ENDMDL
