MODEL 10
REMARK VINA RESULT: -7.984228264      1.298      1.457
REMARK  9 active torsions:
REMARK  status: ('A' for Active; 'I' for Inactive)
REMARK    1  A    between atoms: N1_7  and  C5_8 
REMARK    2  A    between atoms: C5_8  and  C6_9 
REMARK    3  A    between atoms: C6_9  and  C7_10 
REMARK    4  A    between atoms: C7_10  and  N2_11 
REMARK    5  A    between atoms: N2_11  and  C8_12 
REMARK    6  A    between atoms: C8_12  and  C9_13 
REMARK    7  A    between atoms: C9_13  and  O3_14 
REMARK    8  A    between atoms: C18_25  and  C19_26 
REMARK    9  A    between atoms: C21_28  and  C22_29 
ROOT
HETATM    1  O1  UNL     1      -3.503  10.762  22.003  1.00  0.00    -0.272 OA
HETATM    2  C1  UNL     1      -4.091  11.844  21.746  1.00  0.00     0.234 C 
HETATM    3  C2  UNL     1      -3.478  13.169  21.992  1.00  0.00     0.133 C 
HETATM    4  C3  UNL     1      -4.336  14.181  21.292  1.00  0.00     0.127 C 
HETATM    5  C4  UNL     1      -5.558  13.436  20.900  1.00  0.00     0.233 C 
HETATM    6  O2  UNL     1      -6.565  13.954  20.394  1.00  0.00    -0.272 OA
HETATM    7  N1  UNL     1      -5.389  12.034  21.198  1.00  0.00    -0.288 N 
HETATM    8  C14 UNL     1      -4.734  15.188  22.376  1.00  0.00     0.238 C 
HETATM    9  C15 UNL     1      -3.634  16.141  22.699  1.00  0.00     0.038 C 
HETATM   10  C16 UNL     1      -3.666  16.238  24.221  1.00  0.00     0.032 C 
HETATM   11  C17 UNL     1      -4.643  15.199  24.694  1.00  0.00     0.274 C 
HETATM   12  N3  UNL     1      -4.776  14.330  23.537  1.00  0.00     0.105 N 
HETATM   13  C18 UNL     1      -3.538  13.592  23.420  1.00  0.00     0.288 C 
ENDROOT
BRANCH   7  14
HETATM   14  C5  UNL     1      -6.324  10.974  21.001  1.00  0.00     0.137 C 
BRANCH  14  15
HETATM   15  C6  UNL     1      -6.405  10.480  19.580  1.00  0.00     0.048 C 
BRANCH  15  16
HETATM   16  C7  UNL     1      -5.458   9.303  19.464  1.00  0.00     0.239 C 
BRANCH  16  17
HETATM   17  N2  UNL     1      -5.908   8.305  18.514  1.00  0.00    -0.065 N 
HETATM   18  C10 UNL     1      -4.831   7.359  18.289  1.00  0.00     0.237 C 
HETATM   19  C11 UNL     1      -5.548   6.076  17.916  1.00  0.00     0.029 C 
HETATM   20  C12 UNL     1      -6.754   6.105  18.796  1.00  0.00     0.029 C 
HETATM   21  C13 UNL     1      -6.973   7.560  19.147  1.00  0.00     0.237 C 
BRANCH  17  22
HETATM   22  C8  UNL     1      -6.277   8.960  17.304  1.00  0.00     0.263 C 
BRANCH  22  23
HETATM   23  C9  UNL     1      -5.176   9.183  16.321  1.00  0.00     0.192 C 
BRANCH  23  24
HETATM   24  O3  UNL     1      -5.500   8.644  15.089  1.00  0.00    -0.399 OA
ATOM     25  H3  UNL     1      -5.500   9.314  14.416  1.00  0.00     0.209 HD
ENDBRANCH  23  24
ENDBRANCH  22  23
ENDBRANCH  17  22
ENDBRANCH  16  17
ENDBRANCH  15  16
ENDBRANCH  14  15
ENDBRANCH   7  14
BRANCH  13  26
HETATM   26  C19 UNL     1      -3.494  12.458  24.370  1.00  0.00     0.069 A 
HETATM   27  C20 UNL     1      -2.411  11.686  24.735  1.00  0.00     0.070 A 
HETATM   28  C21 UNL     1      -2.833  10.754  25.638  1.00  0.00     0.117 A 
HETATM   29  O4  UNL     1      -4.112  10.949  25.817  1.00  0.00    -0.236 OA
HETATM   30  N4  UNL     1      -4.523  11.958  25.071  1.00  0.00    -0.263 N 
ATOM     31  H4  UNL     1      -5.481  12.306  25.034  1.00  0.00     0.194 HD
BRANCH  28  32
HETATM   32  C22 UNL     1      -2.026   9.707  26.310  1.00  0.00     0.042 A 
HETATM   33  C23 UNL     1      -0.696   9.431  26.112  1.00  0.00     0.024 A 
HETATM   34  C24 UNL     1      -0.166   8.435  26.831  1.00  0.00     0.033 A 
HETATM   35  C25 UNL     1      -0.988   7.776  27.700  1.00  0.00     0.075 A 
HETATM   36 CL1  UNL     1      -0.580   6.430  28.775  1.00  0.00    -0.076 Cl
HETATM   37  S1  UNL     1      -2.483   8.566  27.490  1.00  0.00    -0.075 SA
ENDBRANCH  28  32
ENDBRANCH  13  26
TORSDOF 9
ENDMDL
