MODEL 2
REMARK VINA RESULT: -8.251294039      1.702      5.861
REMARK  6 active torsions:
REMARK  status: ('A' for Active; 'I' for Inactive)
REMARK    1  A    between atoms: N1_2  and  C4_5 
REMARK    2  A    between atoms: C4_5  and  C5_6 
REMARK    3  A    between atoms: C5_6  and  C6_7 
REMARK    4  A    between atoms: C6_7  and  N2_8 
REMARK    5  A    between atoms: C15_20  and  C16_21 
REMARK    6  A    between atoms: C18_25  and  C19_26 
ROOT
HETATM    1  N2  UNL     1      -0.707  12.565  22.012  1.00  0.00    -0.288 N 
HETATM    2  C7  UNL     1      -1.901  13.323  22.133  1.00  0.00     0.234 C 
HETATM    3  O1  UNL     1      -2.008  14.356  22.832  1.00  0.00    -0.272 OA
HETATM    4  C8  UNL     1      -2.983  12.726  21.325  1.00  0.00     0.135 C 
HETATM    5  C9  UNL     1      -2.264  11.725  20.474  1.00  0.00     0.127 C 
HETATM    6  C10 UNL     1      -1.064  11.396  21.284  1.00  0.00     0.233 C 
HETATM    7  O2  UNL     1      -0.444  10.290  21.344  1.00  0.00    -0.272 OA
HETATM    8  C11 UNL     1      -3.201  10.574  20.332  1.00  0.00     0.238 C 
HETATM    9  C12 UNL     1      -3.892  10.655  19.004  1.00  0.00     0.038 C 
HETATM   10  C13 UNL     1      -5.332  10.915  19.293  1.00  0.00     0.032 C 
HETATM   11  C14 UNL     1      -5.482  10.667  20.757  1.00  0.00     0.274 C 
HETATM   12  N3  UNL     1      -4.183  10.672  21.360  1.00  0.00     0.107 N 
HETATM   13  C15 UNL     1      -3.922  11.869  22.127  1.00  0.00     0.311 C 
ENDROOT
BRANCH  13  14
HETATM   14  C16 UNL     1      -3.405  11.555  23.482  1.00  0.00     0.159 A 
HETATM   15  N4  UNL     1      -3.230  12.458  24.462  1.00  0.00    -0.345 N 
HETATM   16  C17 UNL     1      -2.745  11.836  25.568  1.00  0.00     0.128 A 
ATOM     17  H4  UNL     1      -3.430  13.456  24.387  1.00  0.00     0.167 HD
HETATM   18  C18 UNL     1      -2.639  10.518  25.198  1.00  0.00     0.110 A 
HETATM   19  O3  UNL     1      -3.037  10.395  23.966  1.00  0.00    -0.293 OA
BRANCH  18  20
HETATM   20  C19 UNL     1      -2.149   9.431  26.076  1.00  0.00     0.042 A 
HETATM   21  C20 UNL     1      -2.671   9.040  27.280  1.00  0.00     0.024 A 
HETATM   22  C21 UNL     1      -2.065   8.027  27.909  1.00  0.00     0.033 A 
HETATM   23  C22 UNL     1      -0.975   7.468  27.299  1.00  0.00     0.075 A 
HETATM   24 CL1  UNL     1       0.021   6.123  27.891  1.00  0.00    -0.076 Cl
HETATM   25  S1  UNL     1      -0.830   8.374  25.864  1.00  0.00    -0.075 SA
ENDBRANCH  18  20
ENDBRANCH  13  14
BRANCH   1  26
HETATM   26  C6  UNL     1       0.624  12.911  22.528  1.00  0.00     0.137 C 
BRANCH  26  27
HETATM   27  C5  UNL     1       1.301  13.900  21.573  1.00  0.00     0.048 C 
BRANCH  27  28
HETATM   28  C4  UNL     1       2.217  14.828  22.343  1.00  0.00     0.237 C 
BRANCH  28  29
HETATM   29  N1  UNL     1       2.438  16.010  21.526  1.00  0.00    -0.079 N 
HETATM   30  C1  UNL     1       3.431  15.793  20.510  1.00  0.00     0.271 C 
HETATM   31  C2  UNL     1       2.848  17.070  22.437  1.00  0.00     0.271 C 
HETATM   32  C3  UNL     1       1.172  16.323  20.889  1.00  0.00     0.271 C 
ENDBRANCH  28  29
ENDBRANCH  27  28
ENDBRANCH  26  27
ENDBRANCH   1  26
TORSDOF 6
ENDMDL
