MODEL 4
REMARK VINA RESULT: -7.969568189      3.799      7.004
REMARK  6 active torsions:
REMARK  status: ('A' for Active; 'I' for Inactive)
REMARK    1  A    between atoms: N1_2  and  C4_5 
REMARK    2  A    between atoms: C4_5  and  C5_6 
REMARK    3  A    between atoms: C5_6  and  C6_7 
REMARK    4  A    between atoms: C6_7  and  N2_8 
REMARK    5  A    between atoms: C15_20  and  C16_21 
REMARK    6  A    between atoms: C18_25  and  C19_26 
ROOT
HETATM    1  N2  UNL     1      -2.399  11.934  21.516  1.00  0.00    -0.288 N 
HETATM    2  C7  UNL     1      -3.221  11.305  22.487  1.00  0.00     0.234 C 
HETATM    3  O1  UNL     1      -3.159  10.089  22.777  1.00  0.00    -0.272 OA
HETATM    4  C8  UNL     1      -4.149  12.279  23.097  1.00  0.00     0.135 C 
HETATM    5  C9  UNL     1      -3.613  13.599  22.634  1.00  0.00     0.127 C 
HETATM    6  C10 UNL     1      -2.913  13.253  21.371  1.00  0.00     0.233 C 
HETATM    7  O2  UNL     1      -2.776  13.972  20.334  1.00  0.00    -0.272 OA
HETATM    8  C11 UNL     1      -4.809  14.461  22.415  1.00  0.00     0.238 C 
HETATM    9  C12 UNL     1      -4.993  15.368  23.596  1.00  0.00     0.038 C 
HETATM   10  C13 UNL     1      -6.260  14.946  24.259  1.00  0.00     0.032 C 
HETATM   11  C14 UNL     1      -6.922  14.034  23.281  1.00  0.00     0.274 C 
HETATM   12  N3  UNL     1      -5.953  13.617  22.312  1.00  0.00     0.107 N 
HETATM   13  C15 UNL     1      -5.526  12.248  22.496  1.00  0.00     0.311 C 
ENDROOT
BRANCH  13  14
HETATM   14  C16 UNL     1      -5.589  11.476  21.230  1.00  0.00     0.159 A 
HETATM   15  N4  UNL     1      -5.601  12.022  20.002  1.00  0.00    -0.345 N 
HETATM   16  C17 UNL     1      -5.663  11.035  19.070  1.00  0.00     0.128 A 
ATOM     17  H4  UNL     1      -5.570  13.021  19.801  1.00  0.00     0.167 HD
HETATM   18  C18 UNL     1      -5.687   9.875  19.805  1.00  0.00     0.110 A 
HETATM   19  O3  UNL     1      -5.642  10.177  21.068  1.00  0.00    -0.293 OA
BRANCH  18  20
HETATM   20  C19 UNL     1      -5.753   8.512  19.228  1.00  0.00     0.042 A 
HETATM   21  C20 UNL     1      -4.719   7.781  18.711  1.00  0.00     0.024 A 
HETATM   22  C21 UNL     1      -5.006   6.562  18.240  1.00  0.00     0.033 A 
HETATM   23  C22 UNL     1      -6.309   6.150  18.314  1.00  0.00     0.075 A 
HETATM   24 CL1  UNL     1      -6.982   4.598  17.774  1.00  0.00    -0.076 Cl
HETATM   25  S1  UNL     1      -7.093   7.477  19.040  1.00  0.00    -0.075 SA
ENDBRANCH  18  20
ENDBRANCH  13  14
BRANCH   1  26
HETATM   26  C6  UNL     1      -1.254  11.350  20.805  1.00  0.00     0.137 C 
BRANCH  26  27
HETATM   27  C5  UNL     1       0.047  11.924  21.377  1.00  0.00     0.048 C 
BRANCH  27  28
HETATM   28  C4  UNL     1       0.651  12.918  20.407  1.00  0.00     0.237 C 
BRANCH  28  29
HETATM   29  N1  UNL     1       1.184  14.026  21.184  1.00  0.00    -0.079 N 
HETATM   30  C1  UNL     1       0.542  15.272  20.868  1.00  0.00     0.271 C 
HETATM   31  C2  UNL     1       2.609  14.086  20.893  1.00  0.00     0.271 C 
HETATM   32  C3  UNL     1       0.944  13.714  22.581  1.00  0.00     0.271 C 
ENDBRANCH  28  29
ENDBRANCH  27  28
ENDBRANCH  26  27
ENDBRANCH   1  26
TORSDOF 6
ENDMDL
