MODEL 1
REMARK VINA RESULT: -8.388522824      0.000      0.000
REMARK  6 active torsions:
REMARK  status: ('A' for Active; 'I' for Inactive)
REMARK    1  A    between atoms: N1_2  and  C4_5 
REMARK    2  A    between atoms: C4_5  and  C5_6 
REMARK    3  A    between atoms: C5_6  and  C6_7 
REMARK    4  A    between atoms: C6_7  and  N2_8 
REMARK    5  A    between atoms: C15_20  and  C16_21 
REMARK    6  A    between atoms: C18_25  and  C19_26 
ROOT
HETATM    1  N2  UNL     1      -2.751  11.677  20.897  1.00  0.00    -0.288 N 
HETATM    2  C7  UNL     1      -1.402  11.236  20.908  1.00  0.00     0.234 C 
HETATM    3  O1  UNL     1      -1.057  10.033  20.935  1.00  0.00    -0.272 OA
HETATM    4  C8  UNL     1      -0.476  12.386  20.884  1.00  0.00     0.135 C 
HETATM    5  C9  UNL     1      -1.371  13.541  20.552  1.00  0.00     0.127 C 
HETATM    6  C10 UNL     1      -2.696  13.091  21.049  1.00  0.00     0.233 C 
HETATM    7  O2  UNL     1      -3.632  13.803  21.526  1.00  0.00    -0.272 OA
HETATM    8  C11 UNL     1      -0.829  14.699  21.318  1.00  0.00     0.238 C 
HETATM    9  C12 UNL     1      -0.003  15.557  20.406  1.00  0.00     0.038 C 
HETATM   10  C13 UNL     1       1.404  15.450  20.886  1.00  0.00     0.032 C 
HETATM   11  C14 UNL     1       1.306  14.800  22.226  1.00  0.00     0.274 C 
HETATM   12  N3  UNL     1       0.014  14.195  22.350  1.00  0.00     0.107 N 
HETATM   13  C15 UNL     1       0.055  12.753  22.241  1.00  0.00     0.311 C 
ENDROOT
BRANCH  13  14
HETATM   14  C16 UNL     1      -0.681  12.096  23.348  1.00  0.00     0.159 A 
HETATM   15  N4  UNL     1      -1.799  12.579  23.916  1.00  0.00    -0.345 N 
HETATM   16  C17 UNL     1      -2.211  11.732  24.895  1.00  0.00     0.128 A 
ATOM     17  H4  UNL     1      -2.267  13.447  23.652  1.00  0.00     0.167 HD
HETATM   18  C18 UNL     1      -1.282  10.721  24.883  1.00  0.00     0.110 A 
HETATM   19  O3  UNL     1      -0.401  10.972  23.960  1.00  0.00    -0.293 OA
BRANCH  18  20
HETATM   20  C19 UNL     1      -1.302   9.545  25.783  1.00  0.00     0.042 A 
HETATM   21  C20 UNL     1      -2.151   9.321  26.833  1.00  0.00     0.024 A 
HETATM   22  C21 UNL     1      -1.990   8.183  27.517  1.00  0.00     0.033 A 
HETATM   23  C22 UNL     1      -0.990   7.340  27.112  1.00  0.00     0.075 A 
HETATM   24 CL1  UNL     1      -0.545   5.774  27.821  1.00  0.00    -0.076 Cl
HETATM   25  S1  UNL     1      -0.307   8.163  25.786  1.00  0.00    -0.075 SA
ENDBRANCH  18  20
ENDBRANCH  13  14
BRANCH   1  26
HETATM   26  C6  UNL     1      -3.957  10.851  20.759  1.00  0.00     0.137 C 
BRANCH  26  27
HETATM   27  C5  UNL     1      -4.064  10.343  19.317  1.00  0.00     0.048 C 
BRANCH  27  28
HETATM   28  C4  UNL     1      -4.230   8.838  19.304  1.00  0.00     0.237 C 
BRANCH  28  29
HETATM   29  N1  UNL     1      -5.249   8.513  18.319  1.00  0.00    -0.079 N 
HETATM   30  C1  UNL     1      -6.578   8.742  18.814  1.00  0.00     0.271 C 
HETATM   31  C2  UNL     1      -5.056   7.112  17.973  1.00  0.00     0.271 C 
HETATM   32  C3  UNL     1      -5.018   9.375  17.175  1.00  0.00     0.271 C 
ENDBRANCH  28  29
ENDBRANCH  27  28
ENDBRANCH  26  27
ENDBRANCH   1  26
TORSDOF 6
ENDMDL
