MODEL 5
REMARK VINA RESULT: -7.930807998      3.792      6.969
REMARK  6 active torsions:
REMARK  status: ('A' for Active; 'I' for Inactive)
REMARK    1  A    between atoms: N1_2  and  C4_5 
REMARK    2  A    between atoms: C4_5  and  C5_6 
REMARK    3  A    between atoms: C5_6  and  C6_7 
REMARK    4  A    between atoms: C6_7  and  N2_8 
REMARK    5  A    between atoms: C15_20  and  C16_21 
REMARK    6  A    between atoms: C18_25  and  C19_26 
ROOT
HETATM    1  N2  UNL     1      -2.965  13.193  23.462  1.00  0.00    -0.288 N 
HETATM    2  C7  UNL     1      -1.560  13.021  23.343  1.00  0.00     0.234 C 
HETATM    3  O1  UNL     1      -0.831  13.703  22.587  1.00  0.00    -0.272 OA
HETATM    4  C8  UNL     1      -1.090  11.936  24.228  1.00  0.00     0.135 C 
HETATM    5  C9  UNL     1      -2.273  11.675  25.109  1.00  0.00     0.127 C 
HETATM    6  C10 UNL     1      -3.418  12.116  24.272  1.00  0.00     0.233 C 
HETATM    7  O2  UNL     1      -4.597  11.645  24.255  1.00  0.00    -0.272 OA
HETATM    8  C11 UNL     1      -2.269  10.205  25.358  1.00  0.00     0.238 C 
HETATM    9  C12 UNL     1      -1.672   9.929  26.706  1.00  0.00     0.038 C 
HETATM   10  C13 UNL     1      -0.392   9.206  26.459  1.00  0.00     0.032 C 
HETATM   11  C14 UNL     1      -0.441   8.813  25.021  1.00  0.00     0.274 C 
HETATM   12  N3  UNL     1      -1.452   9.589  24.367  1.00  0.00     0.107 N 
HETATM   13  C15 UNL     1      -0.905  10.625  23.518  1.00  0.00     0.311 C 
ENDROOT
BRANCH  13  14
HETATM   14  C16 UNL     1      -1.514  10.608  22.165  1.00  0.00     0.159 A 
HETATM   15  N4  UNL     1      -0.960  11.158  21.071  1.00  0.00    -0.345 N 
HETATM   16  C17 UNL     1      -1.778  10.962  20.004  1.00  0.00     0.128 A 
ATOM     17  H4  UNL     1      -0.065  11.648  21.046  1.00  0.00     0.167 HD
HETATM   18  C18 UNL     1      -2.846  10.269  20.517  1.00  0.00     0.110 A 
HETATM   19  O3  UNL     1      -2.652  10.081  21.789  1.00  0.00    -0.293 OA
BRANCH  18  20
HETATM   20  C19 UNL     1      -4.017   9.818  19.730  1.00  0.00     0.042 A 
HETATM   21  C20 UNL     1      -4.296  10.108  18.422  1.00  0.00     0.024 A 
HETATM   22  C21 UNL     1      -5.418   9.592  17.907  1.00  0.00     0.033 A 
HETATM   23  C22 UNL     1      -6.192   8.819  18.730  1.00  0.00     0.075 A 
HETATM   24 CL1  UNL     1      -7.720   8.010  18.328  1.00  0.00    -0.076 Cl
HETATM   25  S1  UNL     1      -5.328   8.837  20.199  1.00  0.00    -0.075 SA
ENDBRANCH  18  20
ENDBRANCH  13  14
BRANCH   1  26
HETATM   26  C6  UNL     1      -3.785  14.260  22.872  1.00  0.00     0.137 C 
BRANCH  26  27
HETATM   27  C5  UNL     1      -4.358  15.138  23.989  1.00  0.00     0.048 C 
BRANCH  27  28
HETATM   28  C4  UNL     1      -5.808  15.467  23.703  1.00  0.00     0.237 C 
BRANCH  28  29
HETATM   29  N1  UNL     1      -6.532  15.405  24.962  1.00  0.00    -0.079 N 
HETATM   30  C1  UNL     1      -6.887  16.708  25.453  1.00  0.00     0.271 C 
HETATM   31  C2  UNL     1      -5.665  14.713  25.904  1.00  0.00     0.271 C 
HETATM   32  C3  UNL     1      -7.747  14.650  24.712  1.00  0.00     0.271 C 
ENDBRANCH  28  29
ENDBRANCH  27  28
ENDBRANCH  26  27
ENDBRANCH   1  26
TORSDOF 6
ENDMDL
