MODEL 1
REMARK VINA RESULT: -8.068564589      0.000      0.000
REMARK  6 active torsions:
REMARK  status: ('A' for Active; 'I' for Inactive)
REMARK    1  A    between atoms: N1_2  and  C4_5 
REMARK    2  A    between atoms: C4_5  and  C5_6 
REMARK    3  A    between atoms: C5_6  and  C6_7 
REMARK    4  A    between atoms: C6_7  and  N2_8 
REMARK    5  A    between atoms: C15_20  and  C16_21 
REMARK    6  A    between atoms: C18_24  and  C19_25 
ROOT
HETATM    1  N2  UNL     1      -5.450  11.197  20.522  1.00  0.00    -0.288 N 
HETATM    2  C7  UNL     1      -4.404  11.128  21.507  1.00  0.00     0.234 C 
HETATM    3  O1  UNL     1      -4.231  10.147  22.255  1.00  0.00    -0.272 OA
HETATM    4  C8  UNL     1      -3.654  12.392  21.421  1.00  0.00     0.133 C 
HETATM    5  C9  UNL     1      -4.727  13.371  21.006  1.00  0.00     0.127 C 
HETATM    6  C10 UNL     1      -5.737  12.564  20.339  1.00  0.00     0.233 C 
HETATM    7  O2  UNL     1      -6.712  13.040  19.702  1.00  0.00    -0.272 OA
HETATM    8  C11 UNL     1      -5.234  13.890  22.336  1.00  0.00     0.238 C 
HETATM    9  C12 UNL     1      -4.934  15.359  22.546  1.00  0.00     0.038 C 
HETATM   10  C13 UNL     1      -5.047  15.445  24.071  1.00  0.00     0.032 C 
HETATM   11  C14 UNL     1      -4.390  14.151  24.481  1.00  0.00     0.274 C 
HETATM   12  N3  UNL     1      -4.501  13.228  23.371  1.00  0.00     0.105 N 
HETATM   13  C15 UNL     1      -3.242  12.963  22.740  1.00  0.00     0.288 C 
ENDROOT
BRANCH  13  14
HETATM   14  C16 UNL     1      -2.355  12.076  23.495  1.00  0.00     0.068 A 
HETATM   15  C17 UNL     1      -0.985  11.938  23.417  1.00  0.00     0.171 A 
HETATM   16  O3  UNL     1      -0.622  11.012  24.292  1.00  0.00    -0.302 OA
HETATM   17  C18 UNL     1      -1.646  10.548  24.921  1.00  0.00     0.164 A 
HETATM   18  N4  UNL     1      -2.726  11.188  24.446  1.00  0.00    -0.336 N 
ATOM     19  H4  UNL     1      -3.684  11.030  24.758  1.00  0.00     0.168 HD
BRANCH  17  20
HETATM   20  C19 UNL     1      -1.600   9.509  25.960  1.00  0.00     0.058 A 
HETATM   21  C20 UNL     1      -2.403   9.356  27.059  1.00  0.00     0.025 A 
HETATM   22  C21 UNL     1      -2.155   8.318  27.863  1.00  0.00     0.033 A 
HETATM   23  C22 UNL     1      -1.122   7.487  27.528  1.00  0.00     0.075 A 
HETATM   24 CL1  UNL     1      -0.558   6.043  28.387  1.00  0.00    -0.076 Cl
HETATM   25  S1  UNL     1      -0.527   8.190  26.092  1.00  0.00    -0.074 SA
ENDBRANCH  17  20
ENDBRANCH  13  14
BRANCH   1  26
HETATM   26  C6  UNL     1      -6.055  10.012  19.900  1.00  0.00     0.137 C 
BRANCH  26  27
HETATM   27  C5  UNL     1      -5.021   9.325  19.087  1.00  0.00     0.048 C 
BRANCH  27  28
HETATM   28  C4  UNL     1      -5.003   7.858  19.075  1.00  0.00     0.237 C 
BRANCH  28  29
HETATM   29  N1  UNL     1      -5.940   7.119  18.329  1.00  0.00    -0.079 N 
HETATM   30  C1  UNL     1      -7.252   6.928  18.852  1.00  0.00     0.271 C 
HETATM   31  C2  UNL     1      -5.378   5.735  18.224  1.00  0.00     0.271 C 
HETATM   32  C3  UNL     1      -5.949   7.582  16.947  1.00  0.00     0.271 C 
ENDBRANCH  28  29
ENDBRANCH  27  28
ENDBRANCH  26  27
ENDBRANCH   1  26
TORSDOF 6
ENDMDL
