MODEL 3
REMARK VINA RESULT: -7.583519769      4.850      7.505
REMARK  6 active torsions:
REMARK  status: ('A' for Active; 'I' for Inactive)
REMARK    1  A    between atoms: N1_2  and  C4_5 
REMARK    2  A    between atoms: C4_5  and  C5_6 
REMARK    3  A    between atoms: C5_6  and  C6_7 
REMARK    4  A    between atoms: C6_7  and  N2_8 
REMARK    5  A    between atoms: C15_20  and  C16_21 
REMARK    6  A    between atoms: C18_24  and  C19_25 
ROOT
HETATM    1  N2  UNL     1      -0.842  13.070  20.469  1.00  0.00    -0.288 N 
HETATM    2  C7  UNL     1      -2.096  12.370  20.539  1.00  0.00     0.234 C 
HETATM    3  O1  UNL     1      -3.180  12.869  20.183  1.00  0.00    -0.272 OA
HETATM    4  C8  UNL     1      -1.807  11.035  21.088  1.00  0.00     0.133 C 
HETATM    5  C9  UNL     1      -0.637  11.312  22.001  1.00  0.00     0.127 C 
HETATM    6  C10 UNL     1      -0.017  12.513  21.467  1.00  0.00     0.233 C 
HETATM    7  O2  UNL     1       1.091  12.969  21.855  1.00  0.00    -0.272 OA
HETATM    8  C11 UNL     1      -1.312  11.591  23.329  1.00  0.00     0.238 C 
HETATM    9  C12 UNL     1      -1.002  10.543  24.377  1.00  0.00     0.038 C 
HETATM   10  C13 UNL     1      -2.172  10.766  25.340  1.00  0.00     0.032 C 
HETATM   11  C14 UNL     1      -3.301  11.005  24.369  1.00  0.00     0.274 C 
HETATM   12  N3  UNL     1      -2.725  11.485  23.131  1.00  0.00     0.105 N 
HETATM   13  C15 UNL     1      -2.820  10.531  22.067  1.00  0.00     0.288 C 
ENDROOT
BRANCH  13  14
HETATM   14  C16 UNL     1      -4.156  10.394  21.486  1.00  0.00     0.068 A 
HETATM   15  C17 UNL     1      -5.304  11.110  21.756  1.00  0.00     0.171 A 
HETATM   16  O3  UNL     1      -6.270  10.631  20.988  1.00  0.00    -0.302 OA
HETATM   17  C18 UNL     1      -5.835   9.669  20.249  1.00  0.00     0.164 A 
HETATM   18  N4  UNL     1      -4.534   9.505  20.539  1.00  0.00    -0.336 N 
ATOM     19  H4  UNL     1      -3.921   8.812  20.108  1.00  0.00     0.168 HD
BRANCH  17  20
HETATM   20  C19 UNL     1      -6.643   8.914  19.280  1.00  0.00     0.058 A 
HETATM   21  C20 UNL     1      -7.072   7.615  19.345  1.00  0.00     0.025 A 
HETATM   22  C21 UNL     1      -7.802   7.157  18.324  1.00  0.00     0.033 A 
HETATM   23  C22 UNL     1      -8.067   8.018  17.294  1.00  0.00     0.075 A 
HETATM   24 CL1  UNL     1      -8.998   7.705  15.820  1.00  0.00    -0.076 Cl
HETATM   25  S1  UNL     1      -7.280   9.448  17.791  1.00  0.00    -0.074 SA
ENDBRANCH  17  20
ENDBRANCH  13  14
BRANCH   1  26
HETATM   26  C6  UNL     1      -0.575  14.159  19.521  1.00  0.00     0.137 C 
BRANCH  26  27
HETATM   27  C5  UNL     1      -0.591  13.603  18.145  1.00  0.00     0.048 C 
BRANCH  27  28
HETATM   28  C4  UNL     1      -0.565  14.536  17.014  1.00  0.00     0.237 C 
BRANCH  28  29
HETATM   29  N1  UNL     1      -0.297  14.094  15.704  1.00  0.00    -0.079 N 
HETATM   30  C1  UNL     1       0.270  15.001  14.764  1.00  0.00     0.271 C 
HETATM   31  C2  UNL     1      -1.626  13.734  15.116  1.00  0.00     0.271 C 
HETATM   32  C3  UNL     1       0.405  12.817  15.747  1.00  0.00     0.271 C 
ENDBRANCH  28  29
ENDBRANCH  27  28
ENDBRANCH  26  27
ENDBRANCH   1  26
TORSDOF 6
ENDMDL
