MODEL 4
REMARK VINA RESULT: -7.525567870      4.116      7.903
REMARK  6 active torsions:
REMARK  status: ('A' for Active; 'I' for Inactive)
REMARK    1  A    between atoms: N1_2  and  C4_5 
REMARK    2  A    between atoms: C4_5  and  C5_6 
REMARK    3  A    between atoms: C5_6  and  C6_7 
REMARK    4  A    between atoms: C6_7  and  N2_8 
REMARK    5  A    between atoms: C15_20  and  C16_21 
REMARK    6  A    between atoms: C18_24  and  C19_25 
ROOT
HETATM    1  N2  UNL     1      -5.591  13.001  23.328  1.00  0.00    -0.288 N 
HETATM    2  C7  UNL     1      -5.446  12.253  22.108  1.00  0.00     0.234 C 
HETATM    3  O1  UNL     1      -6.207  11.325  21.778  1.00  0.00    -0.272 OA
HETATM    4  C8  UNL     1      -4.276  12.808  21.406  1.00  0.00     0.133 C 
HETATM    5  C9  UNL     1      -3.396  13.247  22.553  1.00  0.00     0.127 C 
HETATM    6  C10 UNL     1      -4.307  13.473  23.663  1.00  0.00     0.233 C 
HETATM    7  O2  UNL     1      -3.973  14.010  24.752  1.00  0.00    -0.272 OA
HETATM    8  C11 UNL     1      -2.533  12.024  22.795  1.00  0.00     0.238 C 
HETATM    9  C12 UNL     1      -1.072  12.265  22.479  1.00  0.00     0.038 C 
HETATM   10  C13 UNL     1      -0.593  10.823  22.290  1.00  0.00     0.032 C 
HETATM   11  C14 UNL     1      -1.763  10.226  21.548  1.00  0.00     0.274 C 
HETATM   12  N3  UNL     1      -2.935  11.016  21.864  1.00  0.00     0.105 N 
HETATM   13  C15 UNL     1      -3.402  11.788  20.750  1.00  0.00     0.288 C 
ENDROOT
BRANCH  13  14
HETATM   14  C16 UNL     1      -4.099  11.016  19.720  1.00  0.00     0.068 A 
HETATM   15  C17 UNL     1      -4.567  11.425  18.489  1.00  0.00     0.171 A 
HETATM   16  O3  UNL     1      -5.132  10.379  17.903  1.00  0.00    -0.302 OA
HETATM   17  C18 UNL     1      -5.062   9.337  18.658  1.00  0.00     0.164 A 
HETATM   18  N4  UNL     1      -4.429   9.705  19.784  1.00  0.00    -0.336 N 
ATOM     19  H4  UNL     1      -4.227   9.088  20.570  1.00  0.00     0.168 HD
BRANCH  17  20
HETATM   20  C19 UNL     1      -5.589   8.008  18.315  1.00  0.00     0.058 A 
HETATM   21  C20 UNL     1      -5.101   6.775  18.659  1.00  0.00     0.025 A 
HETATM   22  C21 UNL     1      -5.768   5.705  18.218  1.00  0.00     0.033 A 
HETATM   23  C22 UNL     1      -6.885   5.920  17.459  1.00  0.00     0.075 A 
HETATM   24 CL1  UNL     1      -7.967   4.715  16.739  1.00  0.00    -0.076 Cl
HETATM   25  S1  UNL     1      -6.966   7.623  17.386  1.00  0.00    -0.074 SA
ENDBRANCH  17  20
ENDBRANCH  13  14
BRANCH   1  26
HETATM   26  C6  UNL     1      -6.872  13.165  24.028  1.00  0.00     0.137 C 
BRANCH  26  27
HETATM   27  C5  UNL     1      -7.271  14.592  23.955  1.00  0.00     0.048 C 
BRANCH  27  28
HETATM   28  C4  UNL     1      -7.499  15.319  25.209  1.00  0.00     0.237 C 
BRANCH  28  29
HETATM   29  N1  UNL     1      -7.098  16.660  25.363  1.00  0.00    -0.079 N 
HETATM   30  C1  UNL     1      -8.001  17.595  25.946  1.00  0.00     0.271 C 
HETATM   31  C2  UNL     1      -6.870  17.179  23.978  1.00  0.00     0.271 C 
HETATM   32  C3  UNL     1      -5.771  16.713  25.963  1.00  0.00     0.271 C 
ENDBRANCH  28  29
ENDBRANCH  27  28
ENDBRANCH  26  27
ENDBRANCH   1  26
TORSDOF 6
ENDMDL
