MODEL 2
REMARK VINA RESULT: -8.052016513      1.510      1.937
REMARK  6 active torsions:
REMARK  status: ('A' for Active; 'I' for Inactive)
REMARK    1  A    between atoms: N1_2  and  C4_5 
REMARK    2  A    between atoms: C4_5  and  C5_6 
REMARK    3  A    between atoms: C5_6  and  C6_7 
REMARK    4  A    between atoms: C6_7  and  N2_8 
REMARK    5  A    between atoms: C15_20  and  C16_21 
REMARK    6  A    between atoms: C18_24  and  C19_25 
ROOT
HETATM    1  N2  UNL     1      -4.546  10.800  20.037  1.00  0.00    -0.288 N 
HETATM    2  C7  UNL     1      -4.063  10.941  21.384  1.00  0.00     0.234 C 
HETATM    3  O1  UNL     1      -4.753  10.690  22.390  1.00  0.00    -0.272 OA
HETATM    4  C8  UNL     1      -2.672  11.415  21.290  1.00  0.00     0.133 C 
HETATM    5  C9  UNL     1      -2.703  12.244  20.028  1.00  0.00     0.127 C 
HETATM    6  C10 UNL     1      -3.809  11.708  19.251  1.00  0.00     0.233 C 
HETATM    7  O2  UNL     1      -4.053  12.025  18.058  1.00  0.00    -0.272 OA
HETATM    8  C11 UNL     1      -3.023  13.630  20.549  1.00  0.00     0.238 C 
HETATM    9  C12 UNL     1      -1.886  14.610  20.349  1.00  0.00     0.038 C 
HETATM   10  C13 UNL     1      -2.253  15.669  21.393  1.00  0.00     0.032 C 
HETATM   11  C14 UNL     1      -2.727  14.799  22.531  1.00  0.00     0.274 C 
HETATM   12  N3  UNL     1      -3.166  13.539  21.970  1.00  0.00     0.105 N 
HETATM   13  C15 UNL     1      -2.296  12.450  22.301  1.00  0.00     0.288 C 
ENDROOT
BRANCH  13  14
HETATM   14  C16 UNL     1      -2.414  11.971  23.679  1.00  0.00     0.068 A 
HETATM   15  C17 UNL     1      -2.915  12.618  24.789  1.00  0.00     0.171 A 
HETATM   16  O3  UNL     1      -2.817  11.790  25.819  1.00  0.00    -0.302 OA
HETATM   17  C18 UNL     1      -2.295  10.669  25.458  1.00  0.00     0.164 A 
HETATM   18  N4  UNL     1      -2.038  10.757  24.144  1.00  0.00    -0.336 N 
ATOM     19  H4  UNL     1      -1.622  10.017  23.578  1.00  0.00     0.168 HD
BRANCH  17  20
HETATM   20  C19 UNL     1      -2.044   9.527  26.350  1.00  0.00     0.058 A 
HETATM   21  C20 UNL     1      -2.731   9.145  27.472  1.00  0.00     0.025 A 
HETATM   22  C21 UNL     1      -2.299   8.058  28.117  1.00  0.00     0.033 A 
HETATM   23  C22 UNL     1      -1.207   7.410  27.610  1.00  0.00     0.075 A 
HETATM   24 CL1  UNL     1      -0.410   5.956  28.237  1.00  0.00    -0.076 Cl
HETATM   25  S1  UNL     1      -0.817   8.348  26.239  1.00  0.00    -0.074 SA
ENDBRANCH  17  20
ENDBRANCH  13  14
BRANCH   1  26
HETATM   26  C6  UNL     1      -5.622   9.876  19.657  1.00  0.00     0.137 C 
BRANCH  26  27
HETATM   27  C5  UNL     1      -5.017   8.696  18.989  1.00  0.00     0.048 C 
BRANCH  27  28
HETATM   28  C4  UNL     1      -5.668   7.391  19.152  1.00  0.00     0.237 C 
BRANCH  28  29
HETATM   29  N1  UNL     1      -6.327   6.761  18.079  1.00  0.00    -0.079 N 
HETATM   30  C1  UNL     1      -5.880   7.003  16.747  1.00  0.00     0.271 C 
HETATM   31  C2  UNL     1      -7.730   7.283  18.099  1.00  0.00     0.271 C 
HETATM   32  C3  UNL     1      -6.494   5.342  18.366  1.00  0.00     0.271 C 
ENDBRANCH  28  29
ENDBRANCH  27  28
ENDBRANCH  26  27
ENDBRANCH   1  26
TORSDOF 6
ENDMDL
