MODEL 2
REMARK VINA RESULT: -11.045547801      3.379      8.061
REMARK  4 active torsions:
REMARK  status: ('A' for Active; 'I' for Inactive)
REMARK    1  A    between atoms: C2_3  and  N1_4 
REMARK    2  A    between atoms: N1_4  and  S1_6 
REMARK    3  A    between atoms: S1_6  and  C3_9 
REMARK    4  A    between atoms: N2_22  and  C15_23 
ROOT
HETATM    1  O1  UNL     1       7.475   5.400  21.312  1.00  0.00    -0.271 OA
HETATM    2  C1  UNL     1       6.785   6.448  21.423  1.00  0.00     0.247 C 
HETATM    3  C2  UNL     1       5.512   6.683  20.702  1.00  0.00     0.187 C 
HETATM    4  C13 UNL     1       4.818   7.681  21.599  1.00  0.00     0.056 C 
HETATM    5  C14 UNL     1       5.997   8.596  21.962  1.00  0.00     0.135 C 
HETATM    6  N2  UNL     1       7.042   7.592  22.219  1.00  0.00    -0.313 N 
ENDROOT
BRANCH   3   7
HETATM    7  N1  UNL     1       4.738   5.464  20.566  1.00  0.00    -0.301 N 
ATOM      8  H1  UNL     1       4.183   5.046  21.312  1.00  0.00     0.173 HD
BRANCH   7   9
HETATM    9  S1  UNL     1       4.882   4.829  18.996  1.00  0.00     0.259 S 
HETATM   10  O2  UNL     1       3.520   4.417  18.461  1.00  0.00    -0.201 OA
HETATM   11  O3  UNL     1       5.375   5.903  18.061  1.00  0.00    -0.201 OA
BRANCH   9  12
HETATM   12  C3  UNL     1       5.922   3.446  18.909  1.00  0.00     0.080 A 
HETATM   13  C4  UNL     1       5.527   2.215  19.371  1.00  0.00     0.026 A 
HETATM   14  C5  UNL     1       6.408   1.136  19.272  1.00  0.00     0.014 A 
HETATM   15  C6  UNL     1       7.668   1.278  18.721  1.00  0.00    -0.024 A 
HETATM   16  C7  UNL     1       8.555   0.223  18.612  1.00  0.00     0.036 A 
HETATM   17  C11 UNL     1       8.066   2.503  18.258  1.00  0.00    -0.024 A 
HETATM   18  C8  UNL     1       9.821   0.360  18.057  1.00  0.00     0.034 A 
HETATM   19 CL1  UNL     1      10.915  -0.992  17.935  1.00  0.00    -0.084 Cl
HETATM   20  C9  UNL     1      10.215   1.615  17.590  1.00  0.00     0.024 A 
HETATM   21  C10 UNL     1       9.333   2.661  17.699  1.00  0.00     0.014 A 
HETATM   22  C12 UNL     1       7.179   3.572  18.363  1.00  0.00     0.037 A 
ENDBRANCH   9  12
ENDBRANCH   7   9
ENDBRANCH   3   7
BRANCH   6  23
HETATM   23  C15 UNL     1       8.107   7.764  23.116  1.00  0.00     0.076 A 
HETATM   24  C16 UNL     1       9.303   8.350  22.679  1.00  0.00     0.033 A 
HETATM   25  C17 UNL     1      10.372   8.543  23.525  1.00  0.00     0.012 A 
HETATM   26  C18 UNL     1      10.296   8.159  24.841  1.00  0.00    -0.031 A 
HETATM   27  C19 UNL     1       9.115   7.585  25.257  1.00  0.00    -0.008 A 
HETATM   28  C23 UNL     1      11.382   8.326  25.830  1.00  0.00     0.153 C 
HETATM   29  C20 UNL     1       8.053   7.392  24.426  1.00  0.00     0.150 A 
HETATM   30  C21 UNL     1       9.078   7.181  26.704  1.00  0.00     0.061 C 
HETATM   31  F1  UNL     1       6.925   6.823  24.901  1.00  0.00    -0.203 F 
HETATM   32  C22 UNL     1      10.376   6.399  26.908  1.00  0.00     0.118 C 
HETATM   33  N3  UNL     1      11.546   7.170  26.654  1.00  0.00    -0.417 N 
ATOM     34  H3  UNL     1      12.454   6.911  27.039  1.00  0.00     0.153 HD
ENDBRANCH   6  23
TORSDOF 4
ENDMDL
