MODEL 5
REMARK VINA RESULT: -10.388229481      3.392      7.872
REMARK  4 active torsions:
REMARK  status: ('A' for Active; 'I' for Inactive)
REMARK    1  A    between atoms: C2_3  and  N1_4 
REMARK    2  A    between atoms: N1_4  and  S1_6 
REMARK    3  A    between atoms: S1_6  and  C3_9 
REMARK    4  A    between atoms: N2_22  and  C15_23 
ROOT
HETATM    1  O1  UNL     1       7.390   5.601  21.553  1.00  0.00    -0.271 OA
HETATM    2  C1  UNL     1       6.873   6.749  21.596  1.00  0.00     0.247 C 
HETATM    3  C2  UNL     1       5.661   7.140  20.839  1.00  0.00     0.187 C 
HETATM    4  C13 UNL     1       5.122   8.283  21.669  1.00  0.00     0.056 C 
HETATM    5  C14 UNL     1       6.427   9.021  22.007  1.00  0.00     0.135 C 
HETATM    6  N2  UNL     1       7.298   7.881  22.336  1.00  0.00    -0.313 N 
ENDROOT
BRANCH   3   7
HETATM    7  N1  UNL     1       4.706   6.053  20.752  1.00  0.00    -0.301 N 
ATOM      8  H1  UNL     1       4.151   5.706  21.534  1.00  0.00     0.173 HD
BRANCH   7   9
HETATM    9  S1  UNL     1       4.637   5.434  19.169  1.00  0.00     0.259 S 
HETATM   10  O2  UNL     1       3.387   4.590  18.981  1.00  0.00    -0.201 OA
HETATM   11  O3  UNL     1       4.508   6.572  18.190  1.00  0.00    -0.201 OA
BRANCH   9  12
HETATM   12  C3  UNL     1       6.004   4.452  18.759  1.00  0.00     0.080 A 
HETATM   13  C4  UNL     1       7.054   4.945  18.024  1.00  0.00     0.026 A 
HETATM   14  C5  UNL     1       8.129   4.106  17.726  1.00  0.00     0.014 A 
HETATM   15  C6  UNL     1       8.162   2.791  18.153  1.00  0.00    -0.024 A 
HETATM   16  C7  UNL     1       9.218   1.945  17.871  1.00  0.00     0.036 A 
HETATM   17  C11 UNL     1       7.119   2.295  18.887  1.00  0.00    -0.024 A 
HETATM   18  C8  UNL     1       9.258   0.624  18.299  1.00  0.00     0.034 A 
HETATM   19 CL1  UNL     1      10.606  -0.417  17.925  1.00  0.00    -0.084 Cl
HETATM   20  C9  UNL     1       8.186   0.130  19.045  1.00  0.00     0.024 A 
HETATM   21  C10 UNL     1       7.139   0.973  19.325  1.00  0.00     0.014 A 
HETATM   22  C12 UNL     1       6.051   3.142  19.177  1.00  0.00     0.037 A 
ENDBRANCH   9  12
ENDBRANCH   7   9
ENDBRANCH   3   7
BRANCH   6  23
HETATM   23  C15 UNL     1       8.366   7.932  23.244  1.00  0.00     0.076 A 
HETATM   24  C16 UNL     1       9.605   8.447  22.839  1.00  0.00     0.033 A 
HETATM   25  C17 UNL     1      10.680   8.522  23.697  1.00  0.00     0.012 A 
HETATM   26  C18 UNL     1      10.566   8.085  24.993  1.00  0.00    -0.031 A 
HETATM   27  C19 UNL     1       9.344   7.582  25.378  1.00  0.00    -0.008 A 
HETATM   28  C23 UNL     1      11.655   8.126  25.992  1.00  0.00     0.153 C 
HETATM   29  C20 UNL     1       8.276   7.505  24.535  1.00  0.00     0.150 A 
HETATM   30  C21 UNL     1       9.267   7.116  26.805  1.00  0.00     0.061 C 
HETATM   31  F1  UNL     1       7.106   7.000  24.980  1.00  0.00    -0.203 F 
HETATM   32  C22 UNL     1      10.502   6.232  26.977  1.00  0.00     0.118 C 
HETATM   33  N3  UNL     1      11.728   6.925  26.763  1.00  0.00    -0.417 N 
ATOM     34  H3  UNL     1      12.612   6.582  27.139  1.00  0.00     0.153 HD
ENDBRANCH   6  23
TORSDOF 4
ENDMDL
