MODEL 1
REMARK VINA RESULT: -11.280838503      0.000      0.000
REMARK  4 active torsions:
REMARK  status: ('A' for Active; 'I' for Inactive)
REMARK    1  A    between atoms: C2_3  and  N1_4 
REMARK    2  A    between atoms: N1_4  and  S1_6 
REMARK    3  A    between atoms: S1_6  and  C3_9 
REMARK    4  A    between atoms: N2_22  and  C15_23 
ROOT
HETATM    1  O1  UNL     1       7.644   5.621  21.496  1.00  0.00    -0.271 OA
HETATM    2  C1  UNL     1       6.442   5.271  21.360  1.00  0.00     0.247 C 
HETATM    3  C2  UNL     1       5.289   6.069  21.838  1.00  0.00     0.187 C 
HETATM    4  C13 UNL     1       4.176   5.596  20.931  1.00  0.00     0.056 C 
HETATM    5  C14 UNL     1       4.463   4.087  20.902  1.00  0.00     0.135 C 
HETATM    6  N2  UNL     1       5.927   4.099  20.753  1.00  0.00    -0.313 N 
ENDROOT
BRANCH   3   7
HETATM    7  N1  UNL     1       5.522   7.492  21.693  1.00  0.00    -0.301 N 
ATOM      8  H1  UNL     1       5.494   7.996  20.807  1.00  0.00     0.173 HD
BRANCH   7   9
HETATM    9  S1  UNL     1       5.848   8.209  23.200  1.00  0.00     0.259 S 
HETATM   10  O2  UNL     1       5.422   9.668  23.201  1.00  0.00    -0.201 OA
HETATM   11  O3  UNL     1       5.013   7.544  24.264  1.00  0.00    -0.201 OA
BRANCH   9  12
HETATM   12  C3  UNL     1       7.523   8.148  23.639  1.00  0.00     0.080 A 
HETATM   13  C4  UNL     1       8.501   8.674  22.831  1.00  0.00     0.026 A 
HETATM   14  C5  UNL     1       9.834   8.598  23.238  1.00  0.00     0.014 A 
HETATM   15  C6  UNL     1      10.193   8.006  24.435  1.00  0.00    -0.024 A 
HETATM   16  C7  UNL     1      11.507   7.923  24.858  1.00  0.00     0.036 A 
HETATM   17  C11 UNL     1       9.222   7.482  25.244  1.00  0.00    -0.024 A 
HETATM   18  C8  UNL     1      11.873   7.331  26.060  1.00  0.00     0.034 A 
HETATM   19 CL1  UNL     1      13.540   7.243  26.563  1.00  0.00    -0.084 Cl
HETATM   20  C9  UNL     1      10.873   6.799  26.876  1.00  0.00     0.024 A 
HETATM   21  C10 UNL     1       9.569   6.883  26.454  1.00  0.00     0.014 A 
HETATM   22  C12 UNL     1       7.896   7.562  24.827  1.00  0.00     0.037 A 
ENDBRANCH   9  12
ENDBRANCH   7   9
ENDBRANCH   3   7
BRANCH   6  23
HETATM   23  C15 UNL     1       6.668   3.099  20.105  1.00  0.00     0.076 A 
HETATM   24  C16 UNL     1       6.642   1.784  20.587  1.00  0.00     0.033 A 
HETATM   25  C17 UNL     1       7.350   0.770  19.981  1.00  0.00     0.012 A 
HETATM   26  C18 UNL     1       8.113   1.024  18.869  1.00  0.00    -0.031 A 
HETATM   27  C19 UNL     1       8.130   2.321  18.405  1.00  0.00    -0.008 A 
HETATM   28  C23 UNL     1       8.904   0.008  18.142  1.00  0.00     0.153 C 
HETATM   29  C20 UNL     1       7.432   3.329  19.000  1.00  0.00     0.150 A 
HETATM   30  C21 UNL     1       8.980   2.551  17.187  1.00  0.00     0.061 C 
HETATM   31  F1  UNL     1       7.494   4.577  18.491  1.00  0.00    -0.203 F 
HETATM   32  C22 UNL     1      10.313   1.886  17.529  1.00  0.00     0.118 C 
HETATM   33  N3  UNL     1      10.200   0.489  17.779  1.00  0.00    -0.417 N 
ATOM     34  H3  UNL     1      11.002  -0.137  17.704  1.00  0.00     0.153 HD
ENDBRANCH   6  23
TORSDOF 4
ENDMDL
