MODEL 9
REMARK VINA RESULT: -9.424568404      1.457      1.751
REMARK  4 active torsions:
REMARK  status: ('A' for Active; 'I' for Inactive)
REMARK    1  A    between atoms: C2_3  and  N1_4 
REMARK    2  A    between atoms: N1_4  and  S1_6 
REMARK    3  A    between atoms: S1_6  and  C3_9 
REMARK    4  A    between atoms: N2_22  and  C15_23 
ROOT
HETATM    1  O1  UNL     1       7.298   6.467  21.111  1.00  0.00    -0.271 OA
HETATM    2  C1  UNL     1       6.225   5.850  21.346  1.00  0.00     0.247 C 
HETATM    3  C2  UNL     1       5.243   6.261  22.375  1.00  0.00     0.187 C 
HETATM    4  C13 UNL     1       3.961   5.655  21.852  1.00  0.00     0.056 C 
HETATM    5  C14 UNL     1       4.472   4.285  21.384  1.00  0.00     0.135 C 
HETATM    6  N2  UNL     1       5.724   4.682  20.720  1.00  0.00    -0.313 N 
ENDROOT
BRANCH   3   7
HETATM    7  N1  UNL     1       5.143   7.704  22.479  1.00  0.00    -0.301 N 
ATOM      8  H1  UNL     1       4.813   8.316  21.733  1.00  0.00     0.173 HD
BRANCH   7   9
HETATM    9  S1  UNL     1       5.651   8.237  24.012  1.00  0.00     0.259 S 
HETATM   10  O2  UNL     1       5.195   9.666  24.258  1.00  0.00    -0.201 OA
HETATM   11  O3  UNL     1       4.982   7.410  25.079  1.00  0.00    -0.201 OA
BRANCH   9  12
HETATM   12  C3  UNL     1       7.371   8.189  24.217  1.00  0.00     0.080 A 
HETATM   13  C4  UNL     1       8.221   8.814  23.338  1.00  0.00     0.026 A 
HETATM   14  C5  UNL     1       9.598   8.743  23.557  1.00  0.00     0.014 A 
HETATM   15  C6  UNL     1      10.126   8.061  24.637  1.00  0.00    -0.024 A 
HETATM   16  C7  UNL     1      11.486   7.981  24.873  1.00  0.00     0.036 A 
HETATM   17  C11 UNL     1       9.283   7.438  25.517  1.00  0.00    -0.024 A 
HETATM   18  C8  UNL     1      12.021   7.298  25.958  1.00  0.00     0.034 A 
HETATM   19 CL1  UNL     1      13.742   7.217  26.226  1.00  0.00    -0.084 Cl
HETATM   20  C9  UNL     1      11.150   6.666  26.848  1.00  0.00     0.024 A 
HETATM   21  C10 UNL     1       9.800   6.747  26.611  1.00  0.00     0.014 A 
HETATM   22  C12 UNL     1       7.911   7.514  25.288  1.00  0.00     0.037 A 
ENDBRANCH   9  12
ENDBRANCH   7   9
ENDBRANCH   3   7
BRANCH   6  23
HETATM   23  C15 UNL     1       6.304   3.998  19.640  1.00  0.00     0.076 A 
HETATM   24  C16 UNL     1       7.545   3.365  19.797  1.00  0.00     0.033 A 
HETATM   25  C17 UNL     1       8.149   2.679  18.767  1.00  0.00     0.012 A 
HETATM   26  C18 UNL     1       7.543   2.596  17.539  1.00  0.00    -0.031 A 
HETATM   27  C19 UNL     1       6.325   3.222  17.398  1.00  0.00    -0.008 A 
HETATM   28  C23 UNL     1       8.104   1.881  16.372  1.00  0.00     0.153 C 
HETATM   29  C20 UNL     1       5.721   3.902  18.412  1.00  0.00     0.150 A 
HETATM   30  C21 UNL     1       5.701   3.105  16.035  1.00  0.00     0.061 C 
HETATM   31  F1  UNL     1       4.525   4.493  18.205  1.00  0.00    -0.203 F 
HETATM   32  C22 UNL     1       6.827   3.485  15.074  1.00  0.00     0.118 C 
HETATM   33  N3  UNL     1       7.959   2.625  15.160  1.00  0.00    -0.417 N 
ATOM     34  H3  UNL     1       8.632   2.544  14.398  1.00  0.00     0.153 HD
ENDBRANCH   6  23
TORSDOF 4
ENDMDL
