MODEL 8
REMARK VINA RESULT: -9.464062063      3.435      8.001
REMARK  4 active torsions:
REMARK  status: ('A' for Active; 'I' for Inactive)
REMARK    1  A    between atoms: C2_3  and  N1_4 
REMARK    2  A    between atoms: N1_4  and  S1_6 
REMARK    3  A    between atoms: S1_6  and  C3_9 
REMARK    4  A    between atoms: N2_22  and  C15_23 
ROOT
HETATM    1  O1  UNL     1       6.640   4.981  20.772  1.00  0.00    -0.271 OA
HETATM    2  C1  UNL     1       5.921   6.016  20.780  1.00  0.00     0.247 C 
HETATM    3  C2  UNL     1       4.749   6.217  19.896  1.00  0.00     0.187 C 
HETATM    4  C13 UNL     1       3.924   7.210  20.683  1.00  0.00     0.056 C 
HETATM    5  C14 UNL     1       5.028   8.152  21.185  1.00  0.00     0.135 C 
HETATM    6  N2  UNL     1       6.049   7.173  21.588  1.00  0.00    -0.313 N 
ENDROOT
BRANCH   3   7
HETATM    7  N1  UNL     1       4.024   4.982  19.675  1.00  0.00    -0.301 N 
ATOM      8  H1  UNL     1       3.389   4.555  20.350  1.00  0.00     0.173 HD
BRANCH   7   9
HETATM    9  S1  UNL     1       4.374   4.341  18.140  1.00  0.00     0.259 S 
HETATM   10  O2  UNL     1       3.113   3.798  17.488  1.00  0.00    -0.201 OA
HETATM   11  O3  UNL     1       4.856   5.443  17.233  1.00  0.00    -0.201 OA
BRANCH   9  12
HETATM   12  C3  UNL     1       5.539   3.059  18.184  1.00  0.00     0.080 A 
HETATM   13  C4  UNL     1       5.187   1.773  18.513  1.00  0.00     0.026 A 
HETATM   14  C5  UNL     1       6.169   0.781  18.529  1.00  0.00     0.014 A 
HETATM   15  C6  UNL     1       7.487   1.062  18.220  1.00  0.00    -0.024 A 
HETATM   16  C7  UNL     1       8.474   0.094  18.228  1.00  0.00     0.036 A 
HETATM   17  C11 UNL     1       7.843   2.341  17.890  1.00  0.00    -0.024 A 
HETATM   18  C8  UNL     1       9.800   0.370  17.917  1.00  0.00     0.034 A 
HETATM   19 CL1  UNL     1      11.020  -0.875  17.936  1.00  0.00    -0.084 Cl
HETATM   20  C9  UNL     1      10.150   1.680  17.583  1.00  0.00     0.024 A 
HETATM   21  C10 UNL     1       9.168   2.639  17.576  1.00  0.00     0.014 A 
HETATM   22  C12 UNL     1       6.855   3.323  17.879  1.00  0.00     0.037 A 
ENDBRANCH   9  12
ENDBRANCH   7   9
ENDBRANCH   3   7
BRANCH   6  23
HETATM   23  C15 UNL     1       6.984   7.375  22.615  1.00  0.00     0.076 A 
HETATM   24  C16 UNL     1       6.635   7.099  23.945  1.00  0.00     0.033 A 
HETATM   25  C17 UNL     1       7.520   7.278  24.984  1.00  0.00     0.012 A 
HETATM   26  C18 UNL     1       8.790   7.739  24.743  1.00  0.00    -0.031 A 
HETATM   27  C19 UNL     1       9.120   8.006  23.433  1.00  0.00    -0.008 A 
HETATM   28  C23 UNL     1       9.816   7.959  25.784  1.00  0.00     0.153 C 
HETATM   29  C20 UNL     1       8.250   7.831  22.400  1.00  0.00     0.150 A 
HETATM   30  C21 UNL     1      10.521   8.509  23.219  1.00  0.00     0.061 C 
HETATM   31  F1  UNL     1       8.641   8.112  21.139  1.00  0.00    -0.203 F 
HETATM   32  C22 UNL     1      10.678   9.628  24.248  1.00  0.00     0.118 C 
HETATM   33  N3  UNL     1      10.528   9.184  25.593  1.00  0.00    -0.417 N 
ATOM     34  H3  UNL     1      10.907   9.712  26.379  1.00  0.00     0.153 HD
ENDBRANCH   6  23
TORSDOF 4
ENDMDL
