MODEL 3
REMARK VINA RESULT: -10.914732624      0.973      1.562
REMARK  4 active torsions:
REMARK  status: ('A' for Active; 'I' for Inactive)
REMARK    1  A    between atoms: C2_3  and  N1_4 
REMARK    2  A    between atoms: N1_4  and  S1_6 
REMARK    3  A    between atoms: S1_6  and  C3_9 
REMARK    4  A    between atoms: N2_22  and  C15_23 
ROOT
HETATM    1  O1  UNL     1       7.645   6.156  21.741  1.00  0.00    -0.271 OA
HETATM    2  C1  UNL     1       6.484   5.768  21.446  1.00  0.00     0.247 C 
HETATM    3  C2  UNL     1       5.247   6.349  22.019  1.00  0.00     0.187 C 
HETATM    4  C13 UNL     1       4.223   6.033  20.953  1.00  0.00     0.056 C 
HETATM    5  C14 UNL     1       4.633   4.597  20.591  1.00  0.00     0.135 C 
HETATM    6  N2  UNL     1       6.097   4.743  20.548  1.00  0.00    -0.313 N 
ENDROOT
BRANCH   3   7
HETATM    7  N1  UNL     1       5.370   7.779  22.227  1.00  0.00    -0.301 N 
ATOM      8  H1  UNL     1       5.233   8.483  21.503  1.00  0.00     0.173 HD
BRANCH   7   9
HETATM    9  S1  UNL     1       5.774   8.121  23.843  1.00  0.00     0.259 S 
HETATM   10  O2  UNL     1       5.238   9.485  24.249  1.00  0.00    -0.201 OA
HETATM   11  O3  UNL     1       5.092   7.132  24.753  1.00  0.00    -0.201 OA
BRANCH   9  12
HETATM   12  C3  UNL     1       7.481   8.117  24.138  1.00  0.00     0.080 A 
HETATM   13  C4  UNL     1       8.356   8.797  23.327  1.00  0.00     0.026 A 
HETATM   14  C5  UNL     1       9.721   8.759  23.615  1.00  0.00     0.014 A 
HETATM   15  C6  UNL     1      10.213   8.054  24.698  1.00  0.00    -0.024 A 
HETATM   16  C7  UNL     1      11.561   8.005  25.003  1.00  0.00     0.036 A 
HETATM   17  C11 UNL     1       9.346   7.375  25.510  1.00  0.00    -0.024 A 
HETATM   18  C8  UNL     1      12.061   7.299  26.090  1.00  0.00     0.034 A 
HETATM   19 CL1  UNL     1      13.767   7.260  26.446  1.00  0.00    -0.084 Cl
HETATM   20  C9  UNL     1      11.165   6.611  26.910  1.00  0.00     0.024 A 
HETATM   21  C10 UNL     1       9.827   6.661  26.605  1.00  0.00     0.014 A 
HETATM   22  C12 UNL     1       7.986   7.419  25.211  1.00  0.00     0.037 A 
ENDBRANCH   9  12
ENDBRANCH   7   9
ENDBRANCH   3   7
BRANCH   6  23
HETATM   23  C15 UNL     1       6.949   3.980  19.735  1.00  0.00     0.076 A 
HETATM   24  C16 UNL     1       7.695   4.603  18.724  1.00  0.00     0.033 A 
HETATM   25  C17 UNL     1       8.547   3.896  17.906  1.00  0.00     0.012 A 
HETATM   26  C18 UNL     1       8.691   2.539  18.058  1.00  0.00    -0.031 A 
HETATM   27  C19 UNL     1       7.952   1.940  19.054  1.00  0.00    -0.008 A 
HETATM   28  C23 UNL     1       9.581   1.691  17.237  1.00  0.00     0.153 C 
HETATM   29  C20 UNL     1       7.108   2.633  19.868  1.00  0.00     0.150 A 
HETATM   30  C21 UNL     1       8.142   0.455  19.182  1.00  0.00     0.061 C 
HETATM   31  F1  UNL     1       6.414   1.982  20.825  1.00  0.00    -0.203 F 
HETATM   32  C22 UNL     1       7.990  -0.067  17.753  1.00  0.00     0.118 C 
HETATM   33  N3  UNL     1       8.956   0.465  16.852  1.00  0.00    -0.417 N 
ATOM     34  H3  UNL     1       9.189  -0.005  15.977  1.00  0.00     0.153 HD
ENDBRANCH   6  23
TORSDOF 4
ENDMDL
