MODEL 4
REMARK VINA RESULT: -9.689626329      1.433      1.753
REMARK  5 active torsions:
REMARK  status: ('A' for Active; 'I' for Inactive)
REMARK    1  A    between atoms: N1_2  and  C3_4 
REMARK    2  A    between atoms: C8_9  and  N2_10 
REMARK    3  A    between atoms: C11_13  and  N3_14 
REMARK    4  A    between atoms: N3_14  and  S1_16 
REMARK    5  A    between atoms: S1_16  and  C12_19 
ROOT
HETATM    1  N2  UNL     1       6.883   6.151  20.252  1.00  0.00    -0.316 N 
HETATM    2  C9  UNL     1       7.771   7.294  20.417  1.00  0.00     0.135 C 
HETATM    3  C10 UNL     1       6.906   8.418  20.951  1.00  0.00     0.056 C 
HETATM    4  C11 UNL     1       5.715   7.690  21.539  1.00  0.00     0.187 C 
HETATM    5  C22 UNL     1       5.636   6.396  20.869  1.00  0.00     0.247 C 
HETATM    6  O3  UNL     1       4.654   5.632  20.838  1.00  0.00    -0.271 OA
ENDROOT
BRANCH   4   7
HETATM    7  N3  UNL     1       5.795   7.630  22.957  1.00  0.00    -0.301 N 
ATOM      8  H3  UNL     1       5.540   6.796  23.485  1.00  0.00     0.173 HD
BRANCH   7   9
HETATM    9  S1  UNL     1       6.352   9.065  23.715  1.00  0.00     0.259 S 
HETATM   10  O1  UNL     1       5.560   9.409  24.939  1.00  0.00    -0.201 OA
HETATM   11  O2  UNL     1       6.293  10.245  22.804  1.00  0.00    -0.201 OA
BRANCH   9  12
HETATM   12  C12 UNL     1       8.005   8.830  24.185  1.00  0.00     0.080 A 
HETATM   13  C13 UNL     1       9.013   9.375  23.438  1.00  0.00     0.026 A 
HETATM   14  C14 UNL     1      10.348   9.202  23.801  1.00  0.00     0.014 A 
HETATM   15  C15 UNL     1      10.668   8.470  24.932  1.00  0.00    -0.024 A 
HETATM   16  C16 UNL     1      11.987   8.279  25.319  1.00  0.00     0.036 A 
HETATM   17  C20 UNL     1       9.646   7.911  25.697  1.00  0.00    -0.024 A 
HETATM   18  C17 UNL     1      12.322   7.560  26.432  1.00  0.00     0.034 A 
HETATM   19 CL1  UNL     1      14.011   7.343  26.888  1.00  0.00    -0.084 Cl
HETATM   20  C18 UNL     1      11.314   7.007  27.190  1.00  0.00     0.024 A 
HETATM   21  C19 UNL     1      10.002   7.190  26.813  1.00  0.00     0.014 A 
HETATM   22  C21 UNL     1       8.326   8.104  25.306  1.00  0.00     0.037 A 
ENDBRANCH   9  12
ENDBRANCH   7   9
ENDBRANCH   4   7
BRANCH   1  23
HETATM   23  C8  UNL     1       7.313   4.982  19.541  1.00  0.00     0.037 A 
HETATM   24  C7  UNL     1       7.195   4.962  18.165  1.00  0.00     0.037 A 
HETATM   25  C6  UNL     1       7.580   3.888  17.402  1.00  0.00    -0.048 A 
HETATM   26  C5  UNL     1       7.555   3.631  15.943  1.00  0.00     0.042 C 
HETATM   27  C25 UNL     1       8.110   2.781  18.031  1.00  0.00    -0.019 A 
HETATM   28  C4  UNL     1       7.470   2.103  15.907  1.00  0.00     0.045 C 
HETATM   29  C3  UNL     1       8.457   1.745  17.024  1.00  0.00     0.255 C 
HETATM   30  C24 UNL     1       8.237   2.783  19.404  1.00  0.00     0.012 A 
HETATM   31  C23 UNL     1       7.842   3.876  20.171  1.00  0.00     0.030 A 
BRANCH  29  32
HETATM   32  N1  UNL     1       8.277   0.406  17.499  1.00  0.00     0.088 N 
HETATM   33  C1  UNL     1       7.177  -0.286  16.863  1.00  0.00     0.310 C 
HETATM   34  C2  UNL     1       9.503  -0.338  17.181  1.00  0.00     0.310 C 
ENDBRANCH  29  32
ENDBRANCH   1  23
TORSDOF 5
ENDMDL
