MODEL 8
REMARK VINA RESULT: -9.146096590      3.238      8.389
REMARK  5 active torsions:
REMARK  status: ('A' for Active; 'I' for Inactive)
REMARK    1  A    between atoms: N1_2  and  C3_4 
REMARK    2  A    between atoms: C8_9  and  N2_10 
REMARK    3  A    between atoms: C11_13  and  N3_14 
REMARK    4  A    between atoms: N3_14  and  S1_16 
REMARK    5  A    between atoms: S1_16  and  C12_19 
ROOT
HETATM    1  N2  UNL     1       6.826   7.792  22.507  1.00  0.00    -0.316 N 
HETATM    2  C9  UNL     1       5.539   8.468  22.618  1.00  0.00     0.135 C 
HETATM    3  C10 UNL     1       4.876   8.324  21.262  1.00  0.00     0.056 C 
HETATM    4  C11 UNL     1       5.597   7.141  20.649  1.00  0.00     0.187 C 
HETATM    5  C22 UNL     1       6.893   7.042  21.312  1.00  0.00     0.247 C 
HETATM    6  O3  UNL     1       7.889   6.413  20.912  1.00  0.00    -0.271 OA
ENDROOT
BRANCH   4   7
HETATM    7  N3  UNL     1       4.800   5.966  20.705  1.00  0.00    -0.301 N 
ATOM      8  H3  UNL     1       4.405   5.614  21.577  1.00  0.00     0.173 HD
BRANCH   7   9
HETATM    9  S1  UNL     1       4.552   5.182  19.200  1.00  0.00     0.259 S 
HETATM   10  O1  UNL     1       4.753   6.103  18.035  1.00  0.00    -0.201 OA
HETATM   11  O2  UNL     1       3.178   4.612  19.079  1.00  0.00    -0.201 OA
BRANCH   9  12
HETATM   12  C12 UNL     1       5.689   3.880  19.066  1.00  0.00     0.080 A 
HETATM   13  C13 UNL     1       5.321   2.610  19.419  1.00  0.00     0.026 A 
HETATM   14  C14 UNL     1       6.219   1.549  19.315  1.00  0.00     0.014 A 
HETATM   15  C15 UNL     1       7.503   1.773  18.849  1.00  0.00    -0.024 A 
HETATM   16  C16 UNL     1       8.420   0.737  18.734  1.00  0.00     0.036 A 
HETATM   17  C20 UNL     1       7.885   3.063  18.487  1.00  0.00    -0.024 A 
HETATM   18  C17 UNL     1       9.692   0.937  18.276  1.00  0.00     0.034 A 
HETATM   19 CL1  UNL     1      10.824  -0.406  18.145  1.00  0.00    -0.084 Cl
HETATM   20  C18 UNL     1      10.071   2.212  17.918  1.00  0.00     0.024 A 
HETATM   21  C19 UNL     1       9.168   3.247  18.029  1.00  0.00     0.014 A 
HETATM   22  C21 UNL     1       6.964   4.098  18.604  1.00  0.00     0.037 A 
ENDBRANCH   9  12
ENDBRANCH   7   9
ENDBRANCH   4   7
BRANCH   1  23
HETATM   23  C8  UNL     1       7.821   7.935  23.530  1.00  0.00     0.037 A 
HETATM   24  C7  UNL     1       9.055   8.450  23.186  1.00  0.00     0.037 A 
HETATM   25  C6  UNL     1      10.068   8.623  24.095  1.00  0.00    -0.048 A 
HETATM   26  C5  UNL     1      11.450   9.144  23.975  1.00  0.00     0.042 C 
HETATM   27  C25 UNL     1       9.849   8.270  25.410  1.00  0.00    -0.019 A 
HETATM   28  C4  UNL     1      12.146   8.426  25.134  1.00  0.00     0.045 C 
HETATM   29  C3  UNL     1      11.067   8.538  26.217  1.00  0.00     0.255 C 
HETATM   30  C24 UNL     1       8.622   7.755  25.773  1.00  0.00     0.012 A 
HETATM   31  C23 UNL     1       7.600   7.582  24.844  1.00  0.00     0.030 A 
BRANCH  29  32
HETATM   32  N1  UNL     1      11.265   7.599  27.280  1.00  0.00     0.088 N 
HETATM   33  C1  UNL     1      10.507   6.378  27.116  1.00  0.00     0.310 C 
HETATM   34  C2  UNL     1      12.688   7.233  27.277  1.00  0.00     0.310 C 
ENDBRANCH  29  32
ENDBRANCH   1  23
TORSDOF 5
ENDMDL
