MODEL 2
REMARK VINA RESULT: -9.795277791      0.931      1.478
REMARK  5 active torsions:
REMARK  status: ('A' for Active; 'I' for Inactive)
REMARK    1  A    between atoms: N1_2  and  C3_4 
REMARK    2  A    between atoms: C8_9  and  N2_10 
REMARK    3  A    between atoms: C11_13  and  N3_14 
REMARK    4  A    between atoms: N3_14  and  S1_16 
REMARK    5  A    between atoms: S1_16  and  C12_19 
ROOT
HETATM    1  N2  UNL     1       6.271   5.341  20.293  1.00  0.00    -0.316 N 
HETATM    2  C9  UNL     1       4.971   5.792  19.815  1.00  0.00     0.135 C 
HETATM    3  C10 UNL     1       4.561   6.927  20.732  1.00  0.00     0.056 C 
HETATM    4  C11 UNL     1       5.877   7.379  21.331  1.00  0.00     0.187 C 
HETATM    5  C22 UNL     1       6.797   6.251  21.237  1.00  0.00     0.247 C 
HETATM    6  O3  UNL     1       7.859   6.101  21.868  1.00  0.00    -0.271 OA
ENDROOT
BRANCH   4   7
HETATM    7  N3  UNL     1       6.334   8.581  20.725  1.00  0.00    -0.301 N 
ATOM      8  H3  UNL     1       6.507   8.656  19.723  1.00  0.00     0.173 HD
BRANCH   7   9
HETATM    9  S1  UNL     1       6.572   9.894  21.802  1.00  0.00     0.259 S 
HETATM   10  O1  UNL     1       5.281  10.438  22.336  1.00  0.00    -0.201 OA
HETATM   11  O2  UNL     1       7.297  11.029  21.159  1.00  0.00    -0.201 OA
BRANCH   9  12
HETATM   12  C12 UNL     1       7.522   9.339  23.142  1.00  0.00     0.080 A 
HETATM   13  C13 UNL     1       6.908   8.937  24.297  1.00  0.00     0.026 A 
HETATM   14  C14 UNL     1       7.654   8.483  25.385  1.00  0.00     0.014 A 
HETATM   15  C15 UNL     1       9.035   8.435  25.304  1.00  0.00    -0.024 A 
HETATM   16  C16 UNL     1       9.805   7.989  26.369  1.00  0.00     0.036 A 
HETATM   17  C20 UNL     1       9.667   8.843  24.131  1.00  0.00    -0.024 A 
HETATM   18  C17 UNL     1      11.169   7.933  26.309  1.00  0.00     0.034 A 
HETATM   19 CL1  UNL     1      12.109   7.359  27.684  1.00  0.00    -0.084 Cl
HETATM   20  C18 UNL     1      11.796   8.336  25.150  1.00  0.00     0.024 A 
HETATM   21  C19 UNL     1      11.040   8.781  24.088  1.00  0.00     0.014 A 
HETATM   22  C21 UNL     1       8.892   9.290  23.066  1.00  0.00     0.037 A 
ENDBRANCH   9  12
ENDBRANCH   7   9
ENDBRANCH   4   7
BRANCH   1  23
HETATM   23  C8  UNL     1       6.851   4.123  19.807  1.00  0.00     0.037 A 
HETATM   24  C7  UNL     1       8.098   4.172  19.217  1.00  0.00     0.037 A 
HETATM   25  C6  UNL     1       8.731   3.059  18.723  1.00  0.00    -0.048 A 
HETATM   26  C5  UNL     1      10.041   2.858  18.060  1.00  0.00     0.042 C 
HETATM   27  C25 UNL     1       8.100   1.837  18.820  1.00  0.00    -0.019 A 
HETATM   28  C4  UNL     1       9.769   1.604  17.226  1.00  0.00     0.045 C 
HETATM   29  C3  UNL     1       8.956   0.776  18.229  1.00  0.00     0.255 C 
HETATM   30  C24 UNL     1       6.854   1.767  19.407  1.00  0.00     0.012 A 
HETATM   31  C23 UNL     1       6.218   2.902  19.905  1.00  0.00     0.030 A 
BRANCH  29  32
HETATM   32  N1  UNL     1       8.211  -0.268  17.593  1.00  0.00     0.088 N 
HETATM   33  C1  UNL     1       7.176   0.221  16.706  1.00  0.00     0.310 C 
HETATM   34  C2  UNL     1       9.156  -1.041  16.775  1.00  0.00     0.310 C 
ENDBRANCH  29  32
ENDBRANCH   1  23
TORSDOF 5
ENDMDL
