MODEL 1
REMARK VINA RESULT: -9.883236434      0.000      0.000
REMARK  5 active torsions:
REMARK  status: ('A' for Active; 'I' for Inactive)
REMARK    1  A    between atoms: N1_2  and  C3_4 
REMARK    2  A    between atoms: C8_9  and  N2_10 
REMARK    3  A    between atoms: C11_13  and  N3_14 
REMARK    4  A    between atoms: N3_14  and  S1_16 
REMARK    5  A    between atoms: S1_16  and  C12_19 
ROOT
HETATM    1  N2  UNL     1       6.154   4.852  21.311  1.00  0.00    -0.316 N 
HETATM    2  C9  UNL     1       4.705   4.968  21.414  1.00  0.00     0.135 C 
HETATM    3  C10 UNL     1       4.447   6.004  22.490  1.00  0.00     0.056 C 
HETATM    4  C11 UNL     1       5.750   6.772  22.550  1.00  0.00     0.187 C 
HETATM    5  C22 UNL     1       6.788   5.890  22.028  1.00  0.00     0.247 C 
HETATM    6  O3  UNL     1       8.017   6.015  22.179  1.00  0.00    -0.271 OA
ENDROOT
BRANCH   4   7
HETATM    7  N3  UNL     1       5.640   8.027  21.892  1.00  0.00    -0.301 N 
ATOM      8  H3  UNL     1       5.295   8.116  20.936  1.00  0.00     0.173 HD
BRANCH   7   9
HETATM    9  S1  UNL     1       6.131   9.382  22.822  1.00  0.00     0.259 S 
HETATM   10  O1  UNL     1       5.212   9.647  23.977  1.00  0.00    -0.201 OA
HETATM   11  O2  UNL     1       6.192  10.633  22.011  1.00  0.00    -0.201 OA
BRANCH   9  12
HETATM   12  C12 UNL     1       7.717   9.070  23.451  1.00  0.00     0.080 A 
HETATM   13  C13 UNL     1       8.820   9.342  22.689  1.00  0.00     0.026 A 
HETATM   14  C14 UNL     1      10.105   9.102  23.176  1.00  0.00     0.014 A 
HETATM   15  C15 UNL     1      10.275   8.582  24.448  1.00  0.00    -0.024 A 
HETATM   16  C16 UNL     1      11.540   8.332  24.962  1.00  0.00     0.036 A 
HETATM   17  C20 UNL     1       9.156   8.303  25.229  1.00  0.00    -0.024 A 
HETATM   18  C17 UNL     1      11.729   7.820  26.215  1.00  0.00     0.034 A 
HETATM   19 CL1  UNL     1      13.353   7.518  26.828  1.00  0.00    -0.084 Cl
HETATM   20  C18 UNL     1      10.624   7.543  26.988  1.00  0.00     0.024 A 
HETATM   21  C19 UNL     1       9.364   7.788  26.487  1.00  0.00     0.014 A 
HETATM   22  C21 UNL     1       7.890   8.555  24.711  1.00  0.00     0.037 A 
ENDBRANCH   9  12
ENDBRANCH   7   9
ENDBRANCH   4   7
BRANCH   1  23
HETATM   23  C8  UNL     1       6.754   3.789  20.558  1.00  0.00     0.037 A 
HETATM   24  C7  UNL     1       7.866   4.068  19.789  1.00  0.00     0.037 A 
HETATM   25  C6  UNL     1       8.507   3.117  19.036  1.00  0.00    -0.048 A 
HETATM   26  C5  UNL     1       9.693   3.167  18.148  1.00  0.00     0.042 C 
HETATM   27  C25 UNL     1       8.025   1.825  19.046  1.00  0.00    -0.019 A 
HETATM   28  C4  UNL     1       9.400   2.012  17.187  1.00  0.00     0.045 C 
HETATM   29  C3  UNL     1       8.861   0.965  18.169  1.00  0.00     0.255 C 
HETATM   30  C24 UNL     1       6.915   1.526  19.808  1.00  0.00     0.012 A 
HETATM   31  C23 UNL     1       6.270   2.498  20.568  1.00  0.00     0.030 A 
BRANCH  29  32
HETATM   32  N1  UNL     1       8.121  -0.067  17.510  1.00  0.00     0.088 N 
HETATM   33  C1  UNL     1       7.192   0.434  16.520  1.00  0.00     0.310 C 
HETATM   34  C2  UNL     1       9.091  -0.917  16.806  1.00  0.00     0.310 C 
ENDBRANCH  29  32
ENDBRANCH   1  23
TORSDOF 5
ENDMDL
