MODEL 12
REMARK VINA RESULT: -8.895886719      5.403      6.842
REMARK  5 active torsions:
REMARK  status: ('A' for Active; 'I' for Inactive)
REMARK    1  A    between atoms: N1_2  and  C3_4 
REMARK    2  A    between atoms: C8_9  and  N2_10 
REMARK    3  A    between atoms: C11_13  and  N3_14 
REMARK    4  A    between atoms: N3_14  and  S1_16 
REMARK    5  A    between atoms: S1_16  and  C12_19 
ROOT
HETATM    1  N2  UNL     1       8.126   7.268  20.468  1.00  0.00    -0.316 N 
HETATM    2  C9  UNL     1       8.176   7.176  21.922  1.00  0.00     0.135 C 
HETATM    3  C10 UNL     1       8.869   8.439  22.394  1.00  0.00     0.056 C 
HETATM    4  C11 UNL     1       8.694   9.387  21.226  1.00  0.00     0.187 C 
HETATM    5  C22 UNL     1       8.485   8.565  20.039  1.00  0.00     0.247 C 
HETATM    6  O3  UNL     1       8.599   8.926  18.854  1.00  0.00    -0.271 OA
ENDROOT
BRANCH   4   7
HETATM    7  N3  UNL     1       7.674  10.342  21.485  1.00  0.00    -0.301 N 
ATOM      8  H3  UNL     1       6.809  10.101  21.967  1.00  0.00     0.173 HD
BRANCH   7   9
HETATM    9  S1  UNL     1       8.006  11.930  20.928  1.00  0.00     0.259 S 
HETATM   10  O1  UNL     1       8.959  11.943  19.771  1.00  0.00    -0.201 OA
HETATM   11  O2  UNL     1       8.593  12.793  21.994  1.00  0.00    -0.201 OA
BRANCH   9  12
HETATM   12  C12 UNL     1       6.516  12.652  20.411  1.00  0.00     0.080 A 
HETATM   13  C13 UNL     1       5.450  11.860  20.081  1.00  0.00     0.026 A 
HETATM   14  C14 UNL     1       4.242  12.420  19.667  1.00  0.00     0.014 A 
HETATM   15  C15 UNL     1       4.110  13.796  19.586  1.00  0.00    -0.024 A 
HETATM   16  C16 UNL     1       2.921  14.383  19.178  1.00  0.00     0.036 A 
HETATM   17  C20 UNL     1       5.190  14.608  19.920  1.00  0.00    -0.024 A 
HETATM   18  C17 UNL     1       2.770  15.739  19.092  1.00  0.00     0.034 A 
HETATM   19 CL1  UNL     1       1.242  16.444  18.569  1.00  0.00    -0.084 Cl
HETATM   20  C18 UNL     1       3.837  16.544  19.422  1.00  0.00     0.024 A 
HETATM   21  C19 UNL     1       5.022  15.970  19.828  1.00  0.00     0.014 A 
HETATM   22  C21 UNL     1       6.381  14.016  20.329  1.00  0.00     0.037 A 
ENDBRANCH   9  12
ENDBRANCH   7   9
ENDBRANCH   4   7
BRANCH   1  23
HETATM   23  C8  UNL     1       7.750   6.136  19.672  1.00  0.00     0.037 A 
HETATM   24  C7  UNL     1       8.699   5.169  19.405  1.00  0.00     0.037 A 
HETATM   25  C6  UNL     1       8.431   4.053  18.654  1.00  0.00    -0.048 A 
HETATM   26  C5  UNL     1       9.261   2.898  18.236  1.00  0.00     0.042 C 
HETATM   27  C25 UNL     1       7.161   3.884  18.143  1.00  0.00    -0.019 A 
HETATM   28  C4  UNL     1       8.558   2.471  16.946  1.00  0.00     0.045 C 
HETATM   29  C3  UNL     1       7.091   2.618  17.367  1.00  0.00     0.255 C 
HETATM   30  C24 UNL     1       6.200   4.838  18.400  1.00  0.00     0.012 A 
HETATM   31  C23 UNL     1       6.480   5.969  19.162  1.00  0.00     0.030 A 
BRANCH  29  32
HETATM   32  N1  UNL     1       6.207   2.687  16.244  1.00  0.00     0.088 N 
HETATM   33  C1  UNL     1       6.831   2.301  14.996  1.00  0.00     0.310 C 
HETATM   34  C2  UNL     1       5.111   1.742  16.494  1.00  0.00     0.310 C 
ENDBRANCH  29  32
ENDBRANCH   1  23
TORSDOF 5
ENDMDL
