MODEL 3
REMARK VINA RESULT: -9.768109571      1.120      1.342
REMARK  5 active torsions:
REMARK  status: ('A' for Active; 'I' for Inactive)
REMARK    1  A    between atoms: N1_2  and  C3_4 
REMARK    2  A    between atoms: C8_9  and  N2_10 
REMARK    3  A    between atoms: C11_13  and  N3_14 
REMARK    4  A    between atoms: N3_14  and  S1_16 
REMARK    5  A    between atoms: S1_16  and  C12_19 
ROOT
HETATM    1  N2  UNL     1       6.753   5.214  20.701  1.00  0.00    -0.316 N 
HETATM    2  C9  UNL     1       7.599   6.400  20.686  1.00  0.00     0.135 C 
HETATM    3  C10 UNL     1       6.723   7.541  21.164  1.00  0.00     0.056 C 
HETATM    4  C11 UNL     1       5.608   6.834  21.905  1.00  0.00     0.187 C 
HETATM    5  C22 UNL     1       5.541   5.476  21.378  1.00  0.00     0.247 C 
HETATM    6  O3  UNL     1       4.594   4.677  21.494  1.00  0.00    -0.271 OA
ENDROOT
BRANCH   4   7
HETATM    7  N3  UNL     1       5.785   6.926  23.312  1.00  0.00    -0.301 N 
ATOM      8  H3  UNL     1       5.638   6.132  23.935  1.00  0.00     0.173 HD
BRANCH   7   9
HETATM    9  S1  UNL     1       6.263   8.470  23.886  1.00  0.00     0.259 S 
HETATM   10  O1  UNL     1       5.498   8.890  25.104  1.00  0.00    -0.201 OA
HETATM   11  O2  UNL     1       6.079   9.537  22.859  1.00  0.00    -0.201 OA
BRANCH   9  12
HETATM   12  C12 UNL     1       7.946   8.405  24.298  1.00  0.00     0.080 A 
HETATM   13  C13 UNL     1       8.868   9.050  23.519  1.00  0.00     0.026 A 
HETATM   14  C14 UNL     1      10.225   9.013  23.835  1.00  0.00     0.014 A 
HETATM   15  C15 UNL     1      10.656   8.317  24.951  1.00  0.00    -0.024 A 
HETATM   16  C16 UNL     1      12.000   8.261  25.292  1.00  0.00     0.036 A 
HETATM   17  C20 UNL     1       9.724   7.658  25.750  1.00  0.00    -0.024 A 
HETATM   18  C17 UNL     1      12.446   7.580  26.390  1.00  0.00     0.034 A 
HETATM   19 CL1  UNL     1      14.162   7.535  26.787  1.00  0.00    -0.084 Cl
HETATM   20  C18 UNL     1      11.526   6.928  27.180  1.00  0.00     0.024 A 
HETATM   21  C19 UNL     1      10.190   6.977  26.850  1.00  0.00     0.014 A 
HETATM   22  C21 UNL     1       8.378   7.715  25.405  1.00  0.00     0.037 A 
ENDBRANCH   9  12
ENDBRANCH   7   9
ENDBRANCH   4   7
BRANCH   1  23
HETATM   23  C8  UNL     1       7.187   3.994  20.084  1.00  0.00     0.037 A 
HETATM   24  C7  UNL     1       8.385   3.988  19.399  1.00  0.00     0.037 A 
HETATM   25  C6  UNL     1       8.880   2.868  18.777  1.00  0.00    -0.048 A 
HETATM   26  C5  UNL     1      10.114   2.614  17.997  1.00  0.00     0.042 C 
HETATM   27  C25 UNL     1       8.153   1.698  18.838  1.00  0.00    -0.019 A 
HETATM   28  C4  UNL     1       9.671   1.455  17.101  1.00  0.00     0.045 C 
HETATM   29  C3  UNL     1       8.866   0.620  18.105  1.00  0.00     0.255 C 
HETATM   30  C24 UNL     1       6.954   1.684  19.519  1.00  0.00     0.012 A 
HETATM   31  C23 UNL     1       6.459   2.825  20.145  1.00  0.00     0.030 A 
BRANCH  29  32
HETATM   32  N1  UNL     1       7.987  -0.307  17.459  1.00  0.00     0.088 N 
HETATM   33  C1  UNL     1       7.029   0.326  16.579  1.00  0.00     0.310 C 
HETATM   34  C2  UNL     1       8.820  -1.192  16.632  1.00  0.00     0.310 C 
ENDBRANCH  29  32
ENDBRANCH   1  23
TORSDOF 5
ENDMDL
