MODEL 9
REMARK VINA RESULT: -8.999846463      3.751      8.626
REMARK  5 active torsions:
REMARK  status: ('A' for Active; 'I' for Inactive)
REMARK    1  A    between atoms: N1_2  and  C3_4 
REMARK    2  A    between atoms: C8_9  and  N2_10 
REMARK    3  A    between atoms: C11_13  and  N3_14 
REMARK    4  A    between atoms: N3_14  and  S1_16 
REMARK    5  A    between atoms: S1_16  and  C12_19 
ROOT
HETATM    1  N2  UNL     1       7.067   8.233  21.091  1.00  0.00    -0.316 N 
HETATM    2  C9  UNL     1       5.847   9.023  20.991  1.00  0.00     0.135 C 
HETATM    3  C10 UNL     1       5.506   9.075  19.514  1.00  0.00     0.056 C 
HETATM    4  C11 UNL     1       6.255   7.888  18.945  1.00  0.00     0.187 C 
HETATM    5  C22 UNL     1       7.350   7.595  19.863  1.00  0.00     0.247 C 
HETATM    6  O3  UNL     1       8.360   6.908  19.624  1.00  0.00    -0.271 OA
ENDROOT
BRANCH   4   7
HETATM    7  N3  UNL     1       5.377   6.800  18.688  1.00  0.00    -0.301 N 
ATOM      8  H3  UNL     1       4.789   6.389  19.412  1.00  0.00     0.173 HD
BRANCH   7   9
HETATM    9  S1  UNL     1       5.380   6.229  17.070  1.00  0.00     0.259 S 
HETATM   10  O1  UNL     1       6.061   7.177  16.130  1.00  0.00    -0.201 OA
HETATM   11  O2  UNL     1       4.000   6.004  16.547  1.00  0.00    -0.201 OA
BRANCH   9  12
HETATM   12  C12 UNL     1       6.226   4.716  17.024  1.00  0.00     0.080 A 
HETATM   13  C13 UNL     1       5.673   3.642  16.383  1.00  0.00     0.026 A 
HETATM   14  C14 UNL     1       6.338   2.417  16.331  1.00  0.00     0.014 A 
HETATM   15  C15 UNL     1       7.577   2.278  16.933  1.00  0.00    -0.024 A 
HETATM   16  C16 UNL     1       8.264   1.073  16.899  1.00  0.00     0.036 A 
HETATM   17  C20 UNL     1       8.147   3.367  17.588  1.00  0.00    -0.024 A 
HETATM   18  C17 UNL     1       9.488   0.915  17.487  1.00  0.00     0.034 A 
HETATM   19 CL1  UNL     1      10.327  -0.633  17.420  1.00  0.00    -0.084 Cl
HETATM   20  C18 UNL     1      10.052   1.991  18.135  1.00  0.00     0.024 A 
HETATM   21  C19 UNL     1       9.378   3.192  18.175  1.00  0.00     0.014 A 
HETATM   22  C21 UNL     1       7.455   4.574  17.621  1.00  0.00     0.037 A 
ENDBRANCH   9  12
ENDBRANCH   7   9
ENDBRANCH   4   7
BRANCH   1  23
HETATM   23  C8  UNL     1       7.807   8.177  22.319  1.00  0.00     0.037 A 
HETATM   24  C7  UNL     1       9.029   8.816  22.385  1.00  0.00     0.037 A 
HETATM   25  C6  UNL     1       9.807   8.817  23.516  1.00  0.00    -0.048 A 
HETATM   26  C5  UNL     1      11.125   9.416  23.829  1.00  0.00     0.042 C 
HETATM   27  C25 UNL     1       9.352   8.153  24.636  1.00  0.00    -0.019 A 
HETATM   28  C4  UNL     1      11.630   8.478  24.929  1.00  0.00     0.045 C 
HETATM   29  C3  UNL     1      10.342   8.280  25.737  1.00  0.00     0.255 C 
HETATM   30  C24 UNL     1       8.134   7.509  24.589  1.00  0.00     0.012 A 
HETATM   31  C23 UNL     1       7.351   7.513  23.437  1.00  0.00     0.030 A 
BRANCH  29  32
HETATM   32  N1  UNL     1      10.404   7.127  26.583  1.00  0.00     0.088 N 
HETATM   33  C1  UNL     1      11.706   6.920  27.180  1.00  0.00     0.310 C 
HETATM   34  C2  UNL     1       9.450   7.341  27.680  1.00  0.00     0.310 C 
ENDBRANCH  29  32
ENDBRANCH   1  23
TORSDOF 5
ENDMDL
