MODEL 6
REMARK VINA RESULT: -9.203227809      1.492      1.861
REMARK  5 active torsions:
REMARK  status: ('A' for Active; 'I' for Inactive)
REMARK    1  A    between atoms: N1_2  and  C3_4 
REMARK    2  A    between atoms: C8_9  and  N2_10 
REMARK    3  A    between atoms: C11_13  and  N3_14 
REMARK    4  A    between atoms: N3_14  and  S1_16 
REMARK    5  A    between atoms: S1_16  and  C12_19 
ROOT
HETATM    1  N2  UNL     1       6.471   5.013  20.243  1.00  0.00    -0.316 N 
HETATM    2  C9  UNL     1       7.712   5.754  20.426  1.00  0.00     0.135 C 
HETATM    3  C10 UNL     1       7.309   7.116  20.957  1.00  0.00     0.056 C 
HETATM    4  C11 UNL     1       5.927   6.869  21.526  1.00  0.00     0.187 C 
HETATM    5  C22 UNL     1       5.391   5.694  20.847  1.00  0.00     0.247 C 
HETATM    6  O3  UNL     1       4.199   5.340  20.799  1.00  0.00    -0.271 OA
ENDROOT
BRANCH   4   7
HETATM    7  N3  UNL     1       5.961   6.783  22.944  1.00  0.00    -0.301 N 
ATOM      8  H3  UNL     1       5.795   5.909  23.443  1.00  0.00     0.173 HD
BRANCH   7   9
HETATM    9  S1  UNL     1       6.301   8.255  23.755  1.00  0.00     0.259 S 
HETATM   10  O1  UNL     1       5.463   8.439  24.984  1.00  0.00    -0.201 OA
HETATM   11  O2  UNL     1       6.073   9.446  22.884  1.00  0.00    -0.201 OA
BRANCH   9  12
HETATM   12  C12 UNL     1       7.968   8.247  24.230  1.00  0.00     0.080 A 
HETATM   13  C13 UNL     1       8.899   8.906  23.473  1.00  0.00     0.026 A 
HETATM   14  C14 UNL     1      10.245   8.915  23.840  1.00  0.00     0.014 A 
HETATM   15  C15 UNL     1      10.654   8.251  24.985  1.00  0.00    -0.024 A 
HETATM   16  C16 UNL     1      11.985   8.242  25.376  1.00  0.00     0.036 A 
HETATM   17  C20 UNL     1       9.712   7.579  25.760  1.00  0.00    -0.024 A 
HETATM   18  C17 UNL     1      12.409   7.593  26.502  1.00  0.00     0.034 A 
HETATM   19 CL1  UNL     1      14.109   7.606  26.963  1.00  0.00    -0.084 Cl
HETATM   20  C18 UNL     1      11.479   6.928  27.269  1.00  0.00     0.024 A 
HETATM   21  C19 UNL     1      10.155   6.931  26.889  1.00  0.00     0.014 A 
HETATM   22  C21 UNL     1       8.378   7.590  25.364  1.00  0.00     0.037 A 
ENDBRANCH   9  12
ENDBRANCH   7   9
ENDBRANCH   4   7
BRANCH   1  23
HETATM   23  C8  UNL     1       6.456   3.769  19.529  1.00  0.00     0.037 A 
HETATM   24  C7  UNL     1       7.582   2.970  19.567  1.00  0.00     0.037 A 
HETATM   25  C6  UNL     1       7.659   1.764  18.917  1.00  0.00    -0.048 A 
HETATM   26  C5  UNL     1       8.731   0.747  18.808  1.00  0.00     0.042 C 
HETATM   27  C25 UNL     1       6.569   1.327  18.194  1.00  0.00    -0.019 A 
HETATM   28  C4  UNL     1       8.393   0.094  17.466  1.00  0.00     0.045 C 
HETATM   29  C3  UNL     1       6.866   0.009  17.576  1.00  0.00     0.255 C 
HETATM   30  C24 UNL     1       5.435   2.111  18.145  1.00  0.00     0.012 A 
HETATM   31  C23 UNL     1       5.366   3.334  18.808  1.00  0.00     0.030 A 
BRANCH  29  32
HETATM   32  N1  UNL     1       6.239  -0.177  16.302  1.00  0.00     0.088 N 
HETATM   33  C1  UNL     1       6.606   0.828  15.328  1.00  0.00     0.310 C 
HETATM   34  C2  UNL     1       6.690  -1.475  15.781  1.00  0.00     0.310 C 
ENDBRANCH  29  32
ENDBRANCH   1  23
TORSDOF 5
ENDMDL
