MODEL 8
REMARK VINA RESULT: -9.665200077      1.458      1.985
REMARK  5 active torsions:
REMARK  status: ('A' for Active; 'I' for Inactive)
REMARK    1  A    between atoms: N1_2  and  C3_4 
REMARK    2  A    between atoms: C8_9  and  N2_10 
REMARK    3  A    between atoms: C11_13  and  N3_14 
REMARK    4  A    between atoms: N3_14  and  S1_16 
REMARK    5  A    between atoms: S1_16  and  C12_19 
ROOT
HETATM    1  N2  UNL     1       5.056   6.491  20.110  1.00  0.00    -0.316 N 
HETATM    2  C9  UNL     1       4.481   7.720  19.574  1.00  0.00     0.135 C 
HETATM    3  C10 UNL     1       4.015   8.529  20.760  1.00  0.00     0.056 C 
HETATM    4  C11 UNL     1       4.690   7.861  21.940  1.00  0.00     0.187 C 
HETATM    5  C22 UNL     1       4.983   6.485  21.519  1.00  0.00     0.247 C 
HETATM    6  O3  UNL     1       5.136   5.503  22.259  1.00  0.00    -0.271 OA
ENDROOT
BRANCH   4   7
HETATM    7  N3  UNL     1       5.810   8.578  22.431  1.00  0.00    -0.301 N 
ATOM      8  H3  UNL     1       6.405   9.125  21.809  1.00  0.00     0.173 HD
BRANCH   7   9
HETATM    9  S1  UNL     1       6.120   8.488  24.092  1.00  0.00     0.259 S 
HETATM   10  O1  UNL     1       5.381   7.373  24.774  1.00  0.00    -0.201 OA
HETATM   11  O2  UNL     1       5.621   9.762  24.765  1.00  0.00    -0.201 OA
BRANCH   9  12
HETATM   12  C12 UNL     1       7.829   8.416  24.380  1.00  0.00     0.080 A 
HETATM   13  C13 UNL     1       8.727   8.978  23.511  1.00  0.00     0.026 A 
HETATM   14  C14 UNL     1      10.073   8.914  23.746  1.00  0.00     0.014 A 
HETATM   15  C15 UNL     1      10.561   8.278  24.874  1.00  0.00    -0.024 A 
HETATM   16  C16 UNL     1      11.910   8.215  25.106  1.00  0.00     0.036 A 
HETATM   17  C20 UNL     1       9.671   7.702  25.768  1.00  0.00    -0.024 A 
HETATM   18  C17 UNL     1      12.438   7.590  26.215  1.00  0.00     0.034 A 
HETATM   19 CL1  UNL     1      14.170   7.505  26.518  1.00  0.00    -0.084 Cl
HETATM   20  C18 UNL     1      11.529   7.017  27.102  1.00  0.00     0.024 A 
HETATM   21  C19 UNL     1      10.172   7.073  26.883  1.00  0.00     0.014 A 
HETATM   22  C21 UNL     1       8.304   7.783  25.501  1.00  0.00     0.037 A 
ENDBRANCH   9  12
ENDBRANCH   7   9
ENDBRANCH   4   7
BRANCH   1  23
HETATM   23  C8  UNL     1       5.599   5.486  19.244  1.00  0.00     0.037 A 
HETATM   24  C7  UNL     1       6.946   5.227  19.244  1.00  0.00     0.037 A 
HETATM   25  C6  UNL     1       7.546   4.273  18.438  1.00  0.00    -0.048 A 
HETATM   26  C5  UNL     1       8.983   3.841  18.292  1.00  0.00     0.042 C 
HETATM   27  C25 UNL     1       6.747   3.549  17.590  1.00  0.00    -0.019 A 
HETATM   28  C4  UNL     1       8.749   2.394  17.820  1.00  0.00     0.045 C 
HETATM   29  C3  UNL     1       7.647   2.608  16.844  1.00  0.00     0.255 C 
HETATM   30  C24 UNL     1       5.388   3.782  17.560  1.00  0.00     0.012 A 
HETATM   31  C23 UNL     1       4.816   4.748  18.386  1.00  0.00     0.030 A 
BRANCH  29  32
HETATM   32  N1  UNL     1       6.981   1.427  16.408  1.00  0.00     0.088 N 
HETATM   33  C1  UNL     1       6.708   1.553  14.988  1.00  0.00     0.310 C 
HETATM   34  C2  UNL     1       7.700   0.207  16.617  1.00  0.00     0.310 C 
ENDBRANCH  29  32
ENDBRANCH   1  23
TORSDOF 5
ENDMDL
