MODEL 5
REMARK VINA RESULT: -9.896633899      3.138      8.202
REMARK  5 active torsions:
REMARK  status: ('A' for Active; 'I' for Inactive)
REMARK    1  A    between atoms: N1_2  and  C3_4 
REMARK    2  A    between atoms: C8_9  and  N2_10 
REMARK    3  A    between atoms: C11_13  and  N3_14 
REMARK    4  A    between atoms: N3_14  and  S1_16 
REMARK    5  A    between atoms: S1_16  and  C12_19 
ROOT
HETATM    1  N2  UNL     1       7.625   8.293  22.599  1.00  0.00    -0.316 N 
HETATM    2  C9  UNL     1       6.393   9.040  22.833  1.00  0.00     0.135 C 
HETATM    3  C10 UNL     1       5.530   8.837  21.610  1.00  0.00     0.056 C 
HETATM    4  C11 UNL     1       6.185   7.674  20.895  1.00  0.00     0.187 C 
HETATM    5  C22 UNL     1       7.584   7.654  21.343  1.00  0.00     0.247 C 
HETATM    6  O3  UNL     1       8.547   7.169  20.732  1.00  0.00    -0.271 OA
ENDROOT
BRANCH   4   7
HETATM    7  N3  UNL     1       5.497   6.447  21.060  1.00  0.00    -0.301 N 
ATOM      8  H3  UNL     1       5.268   6.087  21.987  1.00  0.00     0.173 HD
BRANCH   7   9
HETATM    9  S1  UNL     1       5.069   5.604  19.658  1.00  0.00     0.259 S 
HETATM   10  O1  UNL     1       5.059   6.463  18.427  1.00  0.00    -0.201 OA
HETATM   11  O2  UNL     1       3.637   5.095  19.795  1.00  0.00    -0.201 OA
BRANCH   9  12
HETATM   12  C12 UNL     1       6.073   4.201  19.471  1.00  0.00     0.080 A 
HETATM   13  C13 UNL     1       5.686   2.974  19.943  1.00  0.00     0.026 A 
HETATM   14  C14 UNL     1       6.485   1.874  19.793  1.00  0.00     0.014 A 
HETATM   15  C15 UNL     1       7.710   1.976  19.157  1.00  0.00    -0.024 A 
HETATM   16  C16 UNL     1       8.509   0.873  19.009  1.00  0.00     0.036 A 
HETATM   17  C20 UNL     1       8.123   3.208  18.670  1.00  0.00    -0.024 A 
HETATM   18  C17 UNL     1       9.736   0.932  18.383  1.00  0.00     0.034 A 
HETATM   19 CL1  UNL     1      10.767  -0.482  18.191  1.00  0.00    -0.084 Cl
HETATM   20  C18 UNL     1      10.133   2.177  17.901  1.00  0.00     0.024 A 
HETATM   21  C19 UNL     1       9.342   3.293  18.042  1.00  0.00     0.014 A 
HETATM   22  C21 UNL     1       7.286   4.311  18.838  1.00  0.00     0.037 A 
ENDBRANCH   9  12
ENDBRANCH   7   9
ENDBRANCH   4   7
BRANCH   1  23
HETATM   23  C8  UNL     1       8.676   8.273  23.574  1.00  0.00     0.037 A 
HETATM   24  C7  UNL     1       8.514   7.587  24.750  1.00  0.00     0.037 A 
HETATM   25  C6  UNL     1       9.481   7.519  25.740  1.00  0.00    -0.048 A 
HETATM   26  C5  UNL     1       9.501   6.829  27.080  1.00  0.00     0.042 C 
HETATM   27  C25 UNL     1      10.667   8.178  25.531  1.00  0.00    -0.019 A 
HETATM   28  C4  UNL     1      11.020   6.620  27.219  1.00  0.00     0.045 C 
HETATM   29  C3  UNL     1      11.514   7.943  26.748  1.00  0.00     0.255 C 
HETATM   30  C24 UNL     1      10.867   8.879  24.361  1.00  0.00     0.012 A 
HETATM   31  C23 UNL     1       9.873   8.926  23.384  1.00  0.00     0.030 A 
BRANCH  29  32
HETATM   32  N1  UNL     1      12.910   8.011  26.477  1.00  0.00     0.088 N 
HETATM   33  C1  UNL     1      13.626   7.509  27.636  1.00  0.00     0.310 C 
HETATM   34  C2  UNL     1      13.347   7.275  25.330  1.00  0.00     0.310 C 
ENDBRANCH  29  32
ENDBRANCH   1  23
TORSDOF 5
ENDMDL
