MODEL 12
REMARK VINA RESULT: -9.578008589      3.632      8.593
REMARK  5 active torsions:
REMARK  status: ('A' for Active; 'I' for Inactive)
REMARK    1  A    between atoms: N1_2  and  C3_4 
REMARK    2  A    between atoms: C8_9  and  N2_10 
REMARK    3  A    between atoms: C11_13  and  N3_14 
REMARK    4  A    between atoms: N3_14  and  S1_16 
REMARK    5  A    between atoms: S1_16  and  C12_19 
ROOT
HETATM    1  N2  UNL     1       6.122   7.767  20.239  1.00  0.00    -0.316 N 
HETATM    2  C9  UNL     1       4.676   7.755  20.438  1.00  0.00     0.135 C 
HETATM    3  C10 UNL     1       4.062   7.432  19.097  1.00  0.00     0.056 C 
HETATM    4  C11 UNL     1       5.228   6.916  18.280  1.00  0.00     0.187 C 
HETATM    5  C22 UNL     1       6.438   7.477  18.896  1.00  0.00     0.247 C 
HETATM    6  O3  UNL     1       7.531   7.662  18.341  1.00  0.00    -0.271 OA
ENDROOT
BRANCH   4   7
HETATM    7  N3  UNL     1       5.240   5.507  18.137  1.00  0.00    -0.301 N 
ATOM      8  H3  UNL     1       4.851   4.896  18.855  1.00  0.00     0.173 HD
BRANCH   7   9
HETATM    9  S1  UNL     1       5.926   4.877  16.724  1.00  0.00     0.259 S 
HETATM   10  O1  UNL     1       6.358   5.935  15.751  1.00  0.00    -0.201 OA
HETATM   11  O2  UNL     1       4.876   4.060  15.978  1.00  0.00    -0.201 OA
BRANCH   9  12
HETATM   12  C12 UNL     1       7.213   3.782  17.118  1.00  0.00     0.080 A 
HETATM   13  C13 UNL     1       8.291   4.182  17.863  1.00  0.00     0.026 A 
HETATM   14  C14 UNL     1       9.302   3.312  18.167  1.00  0.00     0.014 A 
HETATM   15  C15 UNL     1       9.258   2.001  17.728  1.00  0.00    -0.024 A 
HETATM   16  C16 UNL     1      10.272   1.132  18.033  1.00  0.00     0.036 A 
HETATM   17  C20 UNL     1       8.176   1.573  16.973  1.00  0.00    -0.024 A 
HETATM   18  C17 UNL     1      10.268  -0.181  17.614  1.00  0.00     0.034 A 
HETATM   19 CL1  UNL     1      11.569  -1.302  18.003  1.00  0.00    -0.084 Cl
HETATM   20  C18 UNL     1       9.173  -0.592  16.857  1.00  0.00     0.024 A 
HETATM   21  C19 UNL     1       8.147   0.268  16.543  1.00  0.00     0.014 A 
HETATM   22  C21 UNL     1       7.160   2.484  16.679  1.00  0.00     0.037 A 
ENDBRANCH   9  12
ENDBRANCH   7   9
ENDBRANCH   4   7
BRANCH   1  23
HETATM   23  C8  UNL     1       7.017   8.045  21.324  1.00  0.00     0.037 A 
HETATM   24  C7  UNL     1       6.682   7.690  22.606  1.00  0.00     0.037 A 
HETATM   25  C6  UNL     1       7.491   7.924  23.705  1.00  0.00    -0.048 A 
HETATM   26  C5  UNL     1       7.311   7.615  25.170  1.00  0.00     0.042 C 
HETATM   27  C25 UNL     1       8.697   8.547  23.499  1.00  0.00    -0.019 A 
HETATM   28  C4  UNL     1       8.792   7.508  25.575  1.00  0.00     0.045 C 
HETATM   29  C3  UNL     1       9.354   8.675  24.843  1.00  0.00     0.255 C 
HETATM   30  C24 UNL     1       9.069   8.919  22.225  1.00  0.00     0.012 A 
HETATM   31  C23 UNL     1       8.231   8.668  21.140  1.00  0.00     0.030 A 
BRANCH  29  32
HETATM   32  N1  UNL     1      10.775   8.721  24.766  1.00  0.00     0.088 N 
HETATM   33  C1  UNL     1      11.198  10.100  24.930  1.00  0.00     0.310 C 
HETATM   34  C2  UNL     1      11.465   7.925  25.735  1.00  0.00     0.310 C 
ENDBRANCH  29  32
ENDBRANCH   1  23
TORSDOF 5
ENDMDL
