MODEL 4
REMARK VINA RESULT: -9.945981348      3.271      8.317
REMARK  5 active torsions:
REMARK  status: ('A' for Active; 'I' for Inactive)
REMARK    1  A    between atoms: N1_2  and  C3_4 
REMARK    2  A    between atoms: C8_9  and  N2_10 
REMARK    3  A    between atoms: C11_13  and  N3_14 
REMARK    4  A    between atoms: N3_14  and  S1_16 
REMARK    5  A    between atoms: S1_16  and  C12_19 
ROOT
HETATM    1  N2  UNL     1       8.067   9.068  22.371  1.00  0.00    -0.316 N 
HETATM    2  C9  UNL     1       6.791   9.725  22.634  1.00  0.00     0.135 C 
HETATM    3  C10 UNL     1       6.057   9.779  21.316  1.00  0.00     0.056 C 
HETATM    4  C11 UNL     1       6.820   8.810  20.437  1.00  0.00     0.187 C 
HETATM    5  C22 UNL     1       8.170   8.717  21.009  1.00  0.00     0.247 C 
HETATM    6  O3  UNL     1       9.205   8.391  20.409  1.00  0.00    -0.271 OA
ENDROOT
BRANCH   4   7
HETATM    7  N3  UNL     1       6.166   7.565  20.265  1.00  0.00    -0.301 N 
ATOM      8  H3  UNL     1       5.682   7.108  21.038  1.00  0.00     0.173 HD
BRANCH   7   9
HETATM    9  S1  UNL     1       6.221   6.868  18.725  1.00  0.00     0.259 S 
HETATM   10  O1  UNL     1       6.759   7.792  17.672  1.00  0.00    -0.201 OA
HETATM   11  O2  UNL     1       4.801   6.538  18.273  1.00  0.00    -0.201 OA
BRANCH   9  12
HETATM   12  C12 UNL     1       7.082   5.362  18.778  1.00  0.00     0.080 A 
HETATM   13  C13 UNL     1       7.324   4.716  19.962  1.00  0.00     0.026 A 
HETATM   14  C14 UNL     1       8.006   3.531  19.994  1.00  0.00     0.014 A 
HETATM   15  C15 UNL     1       8.468   2.953  18.824  1.00  0.00    -0.024 A 
HETATM   16  C16 UNL     1       9.151   1.766  18.860  1.00  0.00     0.036 A 
HETATM   17  C20 UNL     1       8.234   3.588  17.614  1.00  0.00    -0.024 A 
HETATM   18  C17 UNL     1       9.629   1.157  17.719  1.00  0.00     0.034 A 
HETATM   19 CL1  UNL     1      10.508  -0.368  17.759  1.00  0.00    -0.084 Cl
HETATM   20  C18 UNL     1       9.384   1.810  16.513  1.00  0.00     0.024 A 
HETATM   21  C19 UNL     1       8.700   3.002  16.462  1.00  0.00     0.014 A 
HETATM   22  C21 UNL     1       7.536   4.796  17.613  1.00  0.00     0.037 A 
ENDBRANCH   9  12
ENDBRANCH   7   9
ENDBRANCH   4   7
BRANCH   1  23
HETATM   23  C8  UNL     1       9.021   8.854  23.419  1.00  0.00     0.037 A 
HETATM   24  C7  UNL     1       8.694   8.080  24.503  1.00  0.00     0.037 A 
HETATM   25  C6  UNL     1       9.559   7.826  25.556  1.00  0.00    -0.048 A 
HETATM   26  C5  UNL     1       9.397   7.015  26.816  1.00  0.00     0.042 C 
HETATM   27  C25 UNL     1      10.813   8.381  25.510  1.00  0.00    -0.019 A 
HETATM   28  C4  UNL     1      10.873   6.646  27.053  1.00  0.00     0.045 C 
HETATM   29  C3  UNL     1      11.523   7.952  26.760  1.00  0.00     0.255 C 
HETATM   30  C24 UNL     1      11.178   9.166  24.436  1.00  0.00     0.012 A 
HETATM   31  C23 UNL     1      10.284   9.401  23.393  1.00  0.00     0.030 A 
BRANCH  29  32
HETATM   32  N1  UNL     1      12.938   7.908  26.610  1.00  0.00     0.088 N 
HETATM   33  C1  UNL     1      13.500   7.225  27.762  1.00  0.00     0.310 C 
HETATM   34  C2  UNL     1      13.408   7.250  25.429  1.00  0.00     0.310 C 
ENDBRANCH  29  32
ENDBRANCH   1  23
TORSDOF 5
ENDMDL
