MODEL 1
REMARK VINA RESULT: -10.830344185      0.000      0.000
REMARK  5 active torsions:
REMARK  status: ('A' for Active; 'I' for Inactive)
REMARK    1  A    between atoms: N1_2  and  C3_4 
REMARK    2  A    between atoms: C8_9  and  N2_10 
REMARK    3  A    between atoms: C11_13  and  N3_14 
REMARK    4  A    between atoms: N3_14  and  S1_16 
REMARK    5  A    between atoms: S1_16  and  C12_19 
ROOT
HETATM    1  N2  UNL     1       6.760   6.321  20.331  1.00  0.00    -0.316 N 
HETATM    2  C9  UNL     1       7.509   7.573  20.337  1.00  0.00     0.135 C 
HETATM    3  C10 UNL     1       6.587   8.621  20.912  1.00  0.00     0.056 C 
HETATM    4  C11 UNL     1       5.472   7.815  21.544  1.00  0.00     0.187 C 
HETATM    5  C22 UNL     1       5.465   6.518  20.854  1.00  0.00     0.247 C 
HETATM    6  O3  UNL     1       4.504   5.743  20.750  1.00  0.00    -0.271 OA
ENDROOT
BRANCH   4   7
HETATM    7  N3  UNL     1       5.563   7.731  22.955  1.00  0.00    -0.301 N 
ATOM      8  H3  UNL     1       5.286   6.887  23.456  1.00  0.00     0.173 HD
BRANCH   7   9
HETATM    9  S1  UNL     1       6.149   9.089  23.775  1.00  0.00     0.259 S 
HETATM   10  O1  UNL     1       5.323   9.465  24.970  1.00  0.00    -0.201 OA
HETATM   11  O2  UNL     1       6.081  10.301  22.851  1.00  0.00    -0.201 OA
BRANCH   9  12
HETATM   12  C12 UNL     1       7.823   8.871  24.177  1.00  0.00     0.080 A 
HETATM   13  C13 UNL     1       8.821   9.429  23.422  1.00  0.00     0.026 A 
HETATM   14  C14 UNL     1      10.138   9.249  23.745  1.00  0.00     0.014 A 
HETATM   15  C15 UNL     1      10.494   8.497  24.851  1.00  0.00    -0.024 A 
HETATM   16  C16 UNL     1      11.814   8.318  25.172  1.00  0.00     0.036 A 
HETATM   17  C20 UNL     1       9.501   7.922  25.631  1.00  0.00    -0.024 A 
HETATM   18  C17 UNL     1      12.212   7.575  26.263  1.00  0.00     0.034 A 
HETATM   19 CL1  UNL     1      13.906   7.341  26.680  1.00  0.00    -0.084 Cl
HETATM   20  C18 UNL     1      11.201   7.006  27.034  1.00  0.00     0.024 A 
HETATM   21  C19 UNL     1       9.872   7.177  26.724  1.00  0.00     0.014 A 
HETATM   22  C21 UNL     1       8.167   8.123  25.275  1.00  0.00     0.037 A 
ENDBRANCH   9  12
ENDBRANCH   7   9
ENDBRANCH   4   7
BRANCH   1  23
HETATM   23  C8  UNL     1       7.346   5.108  19.841  1.00  0.00     0.037 A 
HETATM   24  C7  UNL     1       7.054   3.909  20.438  1.00  0.00     0.037 A 
HETATM   25  C6  UNL     1       7.580   2.695  20.023  1.00  0.00    -0.048 A 
HETATM   26  C5  UNL     1       7.387   1.290  20.534  1.00  0.00     0.042 C 
HETATM   27  C25 UNL     1       8.442   2.695  18.956  1.00  0.00    -0.019 A 
HETATM   28  C4  UNL     1       7.668   0.522  19.230  1.00  0.00     0.045 C 
HETATM   29  C3  UNL     1       8.854   1.269  18.731  1.00  0.00     0.255 C 
HETATM   30  C24 UNL     1       8.760   3.882  18.329  1.00  0.00     0.012 A 
HETATM   31  C23 UNL     1       8.212   5.086  18.771  1.00  0.00     0.030 A 
BRANCH  29  32
HETATM   32  N1  UNL     1       9.221   1.002  17.382  1.00  0.00     0.088 N 
HETATM   33  C1  UNL     1      10.016  -0.213  17.356  1.00  0.00     0.310 C 
HETATM   34  C2  UNL     1       8.128   0.837  16.472  1.00  0.00     0.310 C 
ENDBRANCH  29  32
ENDBRANCH   1  23
TORSDOF 5
ENDMDL
