MODEL 8
REMARK VINA RESULT: -9.850082656      3.831      8.248
REMARK  5 active torsions:
REMARK  status: ('A' for Active; 'I' for Inactive)
REMARK    1  A    between atoms: C2_3  and  N1_4 
REMARK    2  A    between atoms: N1_4  and  S1_6 
REMARK    3  A    between atoms: S1_6  and  C3_9 
REMARK    4  A    between atoms: N2_22  and  C15_23 
REMARK    5  A    between atoms: C18_26  and  C19_27 
ROOT
HETATM    1  O1  UNL     1       7.820   8.452  19.213  1.00  0.00    -0.271 OA
HETATM    2  C1  UNL     1       6.695   8.673  19.719  1.00  0.00     0.247 C 
HETATM    3  C2  UNL     1       5.425   8.731  18.993  1.00  0.00     0.187 C 
HETATM    4  C13 UNL     1       4.562   9.587  19.896  1.00  0.00     0.056 C 
HETATM    5  C14 UNL     1       5.052   9.331  21.302  1.00  0.00     0.135 C 
HETATM    6  N2  UNL     1       6.445   8.907  21.093  1.00  0.00    -0.313 N 
ENDROOT
BRANCH   3   7
HETATM    7  N1  UNL     1       4.792   7.436  18.836  1.00  0.00    -0.301 N 
ATOM      8  H1  UNL     1       4.343   6.915  19.590  1.00  0.00     0.173 HD
BRANCH   7   9
HETATM    9  S1  UNL     1       4.902   6.895  17.205  1.00  0.00     0.259 S 
HETATM   10  O2  UNL     1       5.585   8.017  16.434  1.00  0.00    -0.201 OA
HETATM   11  O3  UNL     1       3.548   6.640  16.637  1.00  0.00    -0.201 OA
BRANCH   9  12
HETATM   12  C3  UNL     1       5.831   5.425  17.040  1.00  0.00     0.080 A 
HETATM   13  C4  UNL     1       5.649   4.577  15.945  1.00  0.00     0.026 A 
HETATM   14  C5  UNL     1       6.389   3.421  15.821  1.00  0.00     0.014 A 
HETATM   15  C6  UNL     1       7.335   3.050  16.761  1.00  0.00    -0.024 A 
HETATM   16  C7  UNL     1       8.078   1.888  16.637  1.00  0.00     0.036 A 
HETATM   17  C11 UNL     1       7.525   3.874  17.844  1.00  0.00    -0.024 A 
HETATM   18  C8  UNL     1       9.020   1.523  17.578  1.00  0.00     0.034 A 
HETATM   19 CL1  UNL     1       9.960   0.035  17.398  1.00  0.00    -0.084 Cl
HETATM   20  C9  UNL     1       9.218   2.345  18.669  1.00  0.00     0.024 A 
HETATM   21  C10 UNL     1       8.470   3.498  18.779  1.00  0.00     0.014 A 
HETATM   22  C12 UNL     1       6.778   5.037  17.965  1.00  0.00     0.037 A 
ENDBRANCH   9  12
ENDBRANCH   7   9
ENDBRANCH   3   7
BRANCH   6  23
HETATM   23  C15 UNL     1       7.319   8.792  22.217  1.00  0.00     0.076 A 
HETATM   24  C16 UNL     1       7.641   7.607  22.827  1.00  0.00     0.033 A 
HETATM   25  C17 UNL     1       8.494   7.607  23.910  1.00  0.00     0.012 A 
HETATM   26  C18 UNL     1       9.056   8.750  24.429  1.00  0.00    -0.025 A 
HETATM   27  C23 UNL     1       8.728   9.936  23.809  1.00  0.00     0.054 A 
HETATM   28  C24 UNL     1       7.863   9.955  22.708  1.00  0.00     0.143 A 
HETATM   29  F1  UNL     1       7.576  11.169  22.137  1.00  0.00    -0.204 F 
BRANCH  26  30
HETATM   30  C19 UNL     1       9.953   8.654  25.591  1.00  0.00     0.218 C 
HETATM   31  C20 UNL     1       9.462   7.518  26.474  1.00  0.00     0.039 C 
HETATM   32  C21 UNL     1      10.669   7.108  27.290  1.00  0.00     0.030 C 
HETATM   33  C22 UNL     1      11.794   7.837  26.602  1.00  0.00     0.233 C 
HETATM   34  N3  UNL     1      11.286   8.189  25.274  1.00  0.00    -0.067 N 
ATOM     35  H32 UNL     1      11.334   7.445  24.578  1.00  0.00     0.277 HD
ATOM     36  H31 UNL     1      11.863   8.845  24.747  1.00  0.00     0.277 HD
ENDBRANCH  26  30
ENDBRANCH   6  23
TORSDOF 5
ENDMDL
