MODEL 12
REMARK VINA RESULT: -9.615457927      1.652      2.336
REMARK  5 active torsions:
REMARK  status: ('A' for Active; 'I' for Inactive)
REMARK    1  A    between atoms: C2_3  and  N1_4 
REMARK    2  A    between atoms: N1_4  and  S1_6 
REMARK    3  A    between atoms: S1_6  and  C3_9 
REMARK    4  A    between atoms: N2_22  and  C15_23 
REMARK    5  A    between atoms: C18_26  and  C19_27 
ROOT
HETATM    1  O1  UNL     1       5.430   5.309  22.757  1.00  0.00    -0.271 OA
HETATM    2  C1  UNL     1       5.173   6.172  21.886  1.00  0.00     0.247 C 
HETATM    3  C2  UNL     1       4.589   7.492  22.134  1.00  0.00     0.187 C 
HETATM    4  C13 UNL     1       3.954   7.832  20.802  1.00  0.00     0.056 C 
HETATM    5  C14 UNL     1       4.797   7.145  19.753  1.00  0.00     0.135 C 
HETATM    6  N2  UNL     1       5.402   6.029  20.496  1.00  0.00    -0.313 N 
ENDROOT
BRANCH   3   7
HETATM    7  N1  UNL     1       5.575   8.507  22.451  1.00  0.00    -0.301 N 
ATOM      8  H1  UNL     1       6.014   9.123  21.767  1.00  0.00     0.173 HD
BRANCH   7   9
HETATM    9  S1  UNL     1       5.905   8.531  24.141  1.00  0.00     0.259 S 
HETATM   10  O2  UNL     1       5.179   7.328  24.730  1.00  0.00    -0.201 OA
HETATM   11  O3  UNL     1       5.396   9.786  24.765  1.00  0.00    -0.201 OA
BRANCH   9  12
HETATM   12  C3  UNL     1       7.611   8.415  24.500  1.00  0.00     0.080 A 
HETATM   13  C4  UNL     1       8.567   8.952  23.635  1.00  0.00     0.026 A 
HETATM   14  C5  UNL     1       9.911   8.860  23.928  1.00  0.00     0.014 A 
HETATM   15  C6  UNL     1      10.370   8.239  25.077  1.00  0.00    -0.024 A 
HETATM   16  C7  UNL     1      11.720   8.145  25.371  1.00  0.00     0.036 A 
HETATM   17  C11 UNL     1       9.442   7.706  25.938  1.00  0.00    -0.024 A 
HETATM   18  C8  UNL     1      12.173   7.525  26.519  1.00  0.00     0.034 A 
HETATM   19 CL1  UNL     1      13.903   7.419  26.875  1.00  0.00    -0.084 Cl
HETATM   20  C9  UNL     1      11.247   6.987  27.389  1.00  0.00     0.024 A 
HETATM   21  C10 UNL     1       9.907   7.088  27.082  1.00  0.00     0.014 A 
HETATM   22  C12 UNL     1       8.090   7.801  25.639  1.00  0.00     0.037 A 
ENDBRANCH   9  12
ENDBRANCH   7   9
ENDBRANCH   3   7
BRANCH   6  23
HETATM   23  C15 UNL     1       6.097   5.006  19.782  1.00  0.00     0.076 A 
HETATM   24  C16 UNL     1       5.527   3.830  19.365  1.00  0.00     0.033 A 
HETATM   25  C17 UNL     1       6.289   2.907  18.684  1.00  0.00     0.012 A 
HETATM   26  C18 UNL     1       7.619   3.095  18.387  1.00  0.00    -0.025 A 
HETATM   27  C23 UNL     1       8.183   4.279  18.808  1.00  0.00     0.054 A 
HETATM   28  C24 UNL     1       7.424   5.229  19.502  1.00  0.00     0.143 A 
HETATM   29  F1  UNL     1       8.046   6.388  19.895  1.00  0.00    -0.204 F 
BRANCH  26  30
HETATM   30  C19 UNL     1       8.355   2.050  17.658  1.00  0.00     0.218 C 
HETATM   31  C20 UNL     1       9.695   1.849  18.348  1.00  0.00     0.039 C 
HETATM   32  C21 UNL     1      10.135   0.458  17.946  1.00  0.00     0.030 C 
HETATM   33  C22 UNL     1       8.891  -0.111  17.313  1.00  0.00     0.233 C 
HETATM   34  N3  UNL     1       7.787   0.726  17.786  1.00  0.00    -0.067 N 
ATOM     35  H32 UNL     1       7.429   0.493  18.713  1.00  0.00     0.277 HD
ATOM     36  H31 UNL     1       6.898   0.585  17.307  1.00  0.00     0.277 HD
ENDBRANCH  26  30
ENDBRANCH   6  23
TORSDOF 5
ENDMDL
