MODEL 3
REMARK VINA RESULT: -10.117554289      3.618      8.073
REMARK  5 active torsions:
REMARK  status: ('A' for Active; 'I' for Inactive)
REMARK    1  A    between atoms: C2_3  and  N1_4 
REMARK    2  A    between atoms: N1_4  and  S1_6 
REMARK    3  A    between atoms: S1_6  and  C3_9 
REMARK    4  A    between atoms: N2_22  and  C15_23 
REMARK    5  A    between atoms: C18_26  and  C19_27 
ROOT
HETATM    1  O1  UNL     1       7.745   8.714  19.619  1.00  0.00    -0.271 OA
HETATM    2  C1  UNL     1       6.655   8.930  20.198  1.00  0.00     0.247 C 
HETATM    3  C2  UNL     1       5.347   9.043  19.548  1.00  0.00     0.187 C 
HETATM    4  C13 UNL     1       4.553   9.869  20.538  1.00  0.00     0.056 C 
HETATM    5  C14 UNL     1       5.116   9.539  21.900  1.00  0.00     0.135 C 
HETATM    6  N2  UNL     1       6.486   9.102  21.593  1.00  0.00    -0.313 N 
ENDROOT
BRANCH   3   7
HETATM    7  N1  UNL     1       4.682   7.768  19.367  1.00  0.00    -0.301 N 
ATOM      8  H1  UNL     1       4.024   7.358  20.031  1.00  0.00     0.173 HD
BRANCH   7   9
HETATM    9  S1  UNL     1       5.152   7.038  17.880  1.00  0.00     0.259 S 
HETATM   10  O2  UNL     1       5.789   8.145  17.050  1.00  0.00    -0.201 OA
HETATM   11  O3  UNL     1       3.970   6.483  17.162  1.00  0.00    -0.201 OA
BRANCH   9  12
HETATM   12  C3  UNL     1       6.299   5.739  18.096  1.00  0.00     0.080 A 
HETATM   13  C4  UNL     1       7.136   5.694  19.215  1.00  0.00     0.026 A 
HETATM   14  C5  UNL     1       8.036   4.663  19.379  1.00  0.00     0.014 A 
HETATM   15  C6  UNL     1       8.152   3.637  18.457  1.00  0.00    -0.024 A 
HETATM   16  C7  UNL     1       9.057   2.601  18.621  1.00  0.00     0.036 A 
HETATM   17  C11 UNL     1       7.336   3.667  17.352  1.00  0.00    -0.024 A 
HETATM   18  C8  UNL     1       9.169   1.580  17.699  1.00  0.00     0.034 A 
HETATM   19 CL1  UNL     1      10.330   0.266  17.931  1.00  0.00    -0.084 Cl
HETATM   20  C9  UNL     1       8.353   1.602  16.586  1.00  0.00     0.024 A 
HETATM   21  C10 UNL     1       7.458   2.640  16.436  1.00  0.00     0.014 A 
HETATM   22  C12 UNL     1       6.432   4.707  17.190  1.00  0.00     0.037 A 
ENDBRANCH   9  12
ENDBRANCH   7   9
ENDBRANCH   3   7
BRANCH   6  23
HETATM   23  C15 UNL     1       7.420   8.919  22.659  1.00  0.00     0.076 A 
HETATM   24  C16 UNL     1       7.634   7.727  23.302  1.00  0.00     0.033 A 
HETATM   25  C17 UNL     1       8.557   7.659  24.322  1.00  0.00     0.012 A 
HETATM   26  C18 UNL     1       9.296   8.739  24.746  1.00  0.00    -0.025 A 
HETATM   27  C23 UNL     1       9.075   9.932  24.094  1.00  0.00     0.054 A 
HETATM   28  C24 UNL     1       8.141  10.020  23.055  1.00  0.00     0.143 A 
HETATM   29  F1  UNL     1       7.967  11.238  22.447  1.00  0.00    -0.204 F 
BRANCH  26  30
HETATM   30  C19 UNL     1      10.258   8.573  25.848  1.00  0.00     0.218 C 
HETATM   31  C20 UNL     1       9.788   7.414  26.712  1.00  0.00     0.039 C 
HETATM   32  C21 UNL     1      11.030   6.942  27.437  1.00  0.00     0.030 C 
HETATM   33  C22 UNL     1      12.132   7.670  26.713  1.00  0.00     0.233 C 
HETATM   34  N3  UNL     1      11.557   8.089  25.433  1.00  0.00    -0.067 N 
ATOM     35  H32 UNL     1      11.543   7.373  24.706  1.00  0.00     0.277 HD
ATOM     36  H31 UNL     1      12.118   8.751  24.899  1.00  0.00     0.277 HD
ENDBRANCH  26  30
ENDBRANCH   6  23
TORSDOF 5
ENDMDL
