MODEL 6
REMARK VINA RESULT: -10.020589136      1.397      2.010
REMARK  5 active torsions:
REMARK  status: ('A' for Active; 'I' for Inactive)
REMARK    1  A    between atoms: C2_3  and  N1_4 
REMARK    2  A    between atoms: N1_4  and  S1_6 
REMARK    3  A    between atoms: S1_6  and  C3_9 
REMARK    4  A    between atoms: N2_22  and  C15_23 
REMARK    5  A    between atoms: C18_26  and  C19_27 
ROOT
HETATM    1  O1  UNL     1       4.470   5.692  20.512  1.00  0.00    -0.271 OA
HETATM    2  C1  UNL     1       5.509   6.281  20.892  1.00  0.00     0.247 C 
HETATM    3  C2  UNL     1       5.555   7.533  21.651  1.00  0.00     0.187 C 
HETATM    4  C13 UNL     1       6.927   8.078  21.311  1.00  0.00     0.056 C 
HETATM    5  C14 UNL     1       7.801   6.874  21.059  1.00  0.00     0.135 C 
HETATM    6  N2  UNL     1       6.834   5.842  20.656  1.00  0.00    -0.313 N 
ENDROOT
BRANCH   3   7
HETATM    7  N1  UNL     1       5.474   7.339  23.086  1.00  0.00    -0.301 N 
ATOM      8  H1  UNL     1       5.123   6.495  23.538  1.00  0.00     0.173 HD
BRANCH   7   9
HETATM    9  S1  UNL     1       6.051   8.728  23.923  1.00  0.00     0.259 S 
HETATM   10  O2  UNL     1       5.180   8.864  25.166  1.00  0.00    -0.201 OA
HETATM   11  O3  UNL     1       5.923   9.950  23.079  1.00  0.00    -0.201 OA
BRANCH   9  12
HETATM   12  C3  UNL     1       7.726   8.586  24.399  1.00  0.00     0.080 A 
HETATM   13  C4  UNL     1       8.735   9.237  23.685  1.00  0.00     0.026 A 
HETATM   14  C5  UNL     1      10.054   9.122  24.070  1.00  0.00     0.014 A 
HETATM   15  C6  UNL     1      10.436   8.367  25.166  1.00  0.00    -0.024 A 
HETATM   16  C7  UNL     1      11.760   8.251  25.552  1.00  0.00     0.036 A 
HETATM   17  C11 UNL     1       9.454   7.721  25.878  1.00  0.00    -0.024 A 
HETATM   18  C8  UNL     1      12.136   7.497  26.646  1.00  0.00     0.034 A 
HETATM   19 CL1  UNL     1      13.834   7.364  27.122  1.00  0.00    -0.084 Cl
HETATM   20  C9  UNL     1      11.156   6.844  27.367  1.00  0.00     0.024 A 
HETATM   21  C10 UNL     1       9.842   6.969  26.970  1.00  0.00     0.014 A 
HETATM   22  C12 UNL     1       8.128   7.840  25.487  1.00  0.00     0.037 A 
ENDBRANCH   9  12
ENDBRANCH   7   9
ENDBRANCH   3   7
BRANCH   6  23
HETATM   23  C15 UNL     1       7.308   4.609  20.113  1.00  0.00     0.076 A 
HETATM   24  C16 UNL     1       8.128   4.513  19.017  1.00  0.00     0.033 A 
HETATM   25  C17 UNL     1       8.526   3.271  18.571  1.00  0.00     0.012 A 
HETATM   26  C18 UNL     1       8.145   2.094  19.172  1.00  0.00    -0.025 A 
HETATM   27  C23 UNL     1       7.323   2.200  20.273  1.00  0.00     0.054 A 
HETATM   28  C24 UNL     1       6.907   3.453  20.739  1.00  0.00     0.143 A 
HETATM   29  F1  UNL     1       6.088   3.491  21.840  1.00  0.00    -0.204 F 
BRANCH  26  30
HETATM   30  C19 UNL     1       8.617   0.813  18.623  1.00  0.00     0.218 C 
HETATM   31  C20 UNL     1       7.543   0.275  17.691  1.00  0.00     0.039 C 
HETATM   32  C21 UNL     1       8.271  -0.677  16.767  1.00  0.00     0.030 C 
HETATM   33  C22 UNL     1       9.718  -0.379  17.060  1.00  0.00     0.233 C 
HETATM   34  N3  UNL     1       9.730   0.935  17.707  1.00  0.00    -0.067 N 
ATOM     35  H32 UNL     1       9.687   1.733  17.074  1.00  0.00     0.277 HD
ATOM     36  H31 UNL     1      10.617   1.203  18.132  1.00  0.00     0.277 HD
ENDBRANCH  26  30
ENDBRANCH   6  23
TORSDOF 5
ENDMDL
