MODEL 2
REMARK VINA RESULT: -10.225793229      3.418      8.027
REMARK  5 active torsions:
REMARK  status: ('A' for Active; 'I' for Inactive)
REMARK    1  A    between atoms: C2_3  and  N1_4 
REMARK    2  A    between atoms: N1_4  and  S1_6 
REMARK    3  A    between atoms: S1_6  and  C3_9 
REMARK    4  A    between atoms: N2_22  and  C15_23 
REMARK    5  A    between atoms: C18_26  and  C19_27 
ROOT
HETATM    1  O1  UNL     1       7.636   8.419  19.093  1.00  0.00    -0.271 OA
HETATM    2  C1  UNL     1       6.511   8.632  19.602  1.00  0.00     0.247 C 
HETATM    3  C2  UNL     1       5.229   8.587  18.897  1.00  0.00     0.187 C 
HETATM    4  C13 UNL     1       4.346   9.472  19.752  1.00  0.00     0.056 C 
HETATM    5  C14 UNL     1       4.867   9.338  21.163  1.00  0.00     0.135 C 
HETATM    6  N2  UNL     1       6.273   8.955  20.960  1.00  0.00    -0.313 N 
ENDROOT
BRANCH   3   7
HETATM    7  N1  UNL     1       4.646   7.260  18.845  1.00  0.00    -0.301 N 
ATOM      8  H1  UNL     1       4.020   6.874  19.551  1.00  0.00     0.173 HD
BRANCH   7   9
HETATM    9  S1  UNL     1       5.155   6.425  17.428  1.00  0.00     0.259 S 
HETATM   10  O2  UNL     1       5.742   7.483  16.502  1.00  0.00    -0.201 OA
HETATM   11  O3  UNL     1       4.002   5.753  16.763  1.00  0.00    -0.201 OA
BRANCH   9  12
HETATM   12  C3  UNL     1       6.361   5.205  17.757  1.00  0.00     0.080 A 
HETATM   13  C4  UNL     1       7.147   5.261  18.911  1.00  0.00     0.026 A 
HETATM   14  C5  UNL     1       8.094   4.292  19.164  1.00  0.00     0.014 A 
HETATM   15  C6  UNL     1       8.308   3.232  18.301  1.00  0.00    -0.024 A 
HETATM   16  C7  UNL     1       9.260   2.258  18.555  1.00  0.00     0.036 A 
HETATM   17  C11 UNL     1       7.543   3.162  17.162  1.00  0.00    -0.024 A 
HETATM   18  C8  UNL     1       9.470   1.202  17.691  1.00  0.00     0.034 A 
HETATM   19 CL1  UNL     1      10.690  -0.031  18.037  1.00  0.00    -0.084 Cl
HETATM   20  C9  UNL     1       8.706   1.125  16.544  1.00  0.00     0.024 A 
HETATM   21  C10 UNL     1       7.762   2.102  16.304  1.00  0.00     0.014 A 
HETATM   22  C12 UNL     1       6.591   4.140  16.910  1.00  0.00     0.037 A 
ENDBRANCH   9  12
ENDBRANCH   7   9
ENDBRANCH   3   7
BRANCH   6  23
HETATM   23  C15 UNL     1       7.168   8.956  22.073  1.00  0.00     0.076 A 
HETATM   24  C16 UNL     1       7.679  10.088  22.653  1.00  0.00     0.033 A 
HETATM   25  C17 UNL     1       8.539   9.977  23.724  1.00  0.00     0.012 A 
HETATM   26  C18 UNL     1       8.925   8.771  24.262  1.00  0.00    -0.025 A 
HETATM   27  C23 UNL     1       8.406   7.639  23.674  1.00  0.00     0.054 A 
HETATM   28  C24 UNL     1       7.531   7.732  22.584  1.00  0.00     0.143 A 
HETATM   29  F1  UNL     1       7.050   6.567  22.044  1.00  0.00    -0.204 F 
BRANCH  26  30
HETATM   30  C19 UNL     1       9.852   8.750  25.404  1.00  0.00     0.218 C 
HETATM   31  C20 UNL     1       9.430   7.623  26.333  1.00  0.00     0.039 C 
HETATM   32  C21 UNL     1      10.672   7.289  27.131  1.00  0.00     0.030 C 
HETATM   33  C22 UNL     1      11.749   8.042  26.394  1.00  0.00     0.233 C 
HETATM   34  N3  UNL     1      11.196   8.330  25.069  1.00  0.00    -0.067 N 
ATOM     35  H32 UNL     1      11.259   7.567  24.395  1.00  0.00     0.277 HD
ATOM     36  H31 UNL     1      11.732   8.992  24.508  1.00  0.00     0.277 HD
ENDBRANCH  26  30
ENDBRANCH   6  23
TORSDOF 5
ENDMDL
