MODEL 14
REMARK VINA RESULT: -9.577696703      0.787      1.401
REMARK  5 active torsions:
REMARK  status: ('A' for Active; 'I' for Inactive)
REMARK    1  A    between atoms: C2_3  and  N1_4 
REMARK    2  A    between atoms: N1_4  and  S1_6 
REMARK    3  A    between atoms: S1_6  and  C3_9 
REMARK    4  A    between atoms: N2_22  and  C15_23 
REMARK    5  A    between atoms: C18_26  and  C19_27 
ROOT
HETATM    1  O1  UNL     1       5.998   5.483  21.979  1.00  0.00    -0.271 OA
HETATM    2  C1  UNL     1       5.843   6.008  20.852  1.00  0.00     0.247 C 
HETATM    3  C2  UNL     1       5.238   7.315  20.592  1.00  0.00     0.187 C 
HETATM    4  C13 UNL     1       4.757   7.183  19.162  1.00  0.00     0.056 C 
HETATM    5  C14 UNL     1       5.711   6.223  18.491  1.00  0.00     0.135 C 
HETATM    6  N2  UNL     1       6.226   5.430  19.618  1.00  0.00    -0.313 N 
ENDROOT
BRANCH   3   7
HETATM    7  N1  UNL     1       6.184   8.412  20.664  1.00  0.00    -0.301 N 
ATOM      8  H1  UNL     1       6.780   8.715  19.895  1.00  0.00     0.173 HD
BRANCH   7   9
HETATM    9  S1  UNL     1       6.164   9.134  22.228  1.00  0.00     0.259 S 
HETATM   10  O2  UNL     1       4.996   8.498  22.971  1.00  0.00    -0.201 OA
HETATM   11  O3  UNL     1       5.961  10.607  22.131  1.00  0.00    -0.201 OA
BRANCH   9  12
HETATM   12  C3  UNL     1       7.640   8.859  23.119  1.00  0.00     0.080 A 
HETATM   13  C4  UNL     1       8.881   9.221  22.589  1.00  0.00     0.026 A 
HETATM   14  C5  UNL     1      10.041   9.004  23.301  1.00  0.00     0.014 A 
HETATM   15  C6  UNL     1      10.032   8.425  24.558  1.00  0.00    -0.024 A 
HETATM   16  C7  UNL     1      11.198   8.206  25.274  1.00  0.00     0.036 A 
HETATM   17  C11 UNL     1       8.820   8.063  25.094  1.00  0.00    -0.024 A 
HETATM   18  C8  UNL     1      11.184   7.629  26.528  1.00  0.00     0.034 A 
HETATM   19 CL1  UNL     1      12.685   7.360  27.424  1.00  0.00    -0.084 Cl
HETATM   20  C9  UNL     1       9.970   7.262  27.074  1.00  0.00     0.024 A 
HETATM   21  C10 UNL     1       8.819   7.486  26.349  1.00  0.00     0.014 A 
HETATM   22  C12 UNL     1       7.655   8.284  24.373  1.00  0.00     0.037 A 
ENDBRANCH   9  12
ENDBRANCH   7   9
ENDBRANCH   3   7
BRANCH   6  23
HETATM   23  C15 UNL     1       6.995   4.255  19.354  1.00  0.00     0.076 A 
HETATM   24  C16 UNL     1       8.277   4.264  18.867  1.00  0.00     0.033 A 
HETATM   25  C17 UNL     1       8.930   3.071  18.645  1.00  0.00     0.012 A 
HETATM   26  C18 UNL     1       8.363   1.842  18.889  1.00  0.00    -0.025 A 
HETATM   27  C23 UNL     1       7.075   1.842  19.379  1.00  0.00     0.054 A 
HETATM   28  C24 UNL     1       6.396   3.045  19.610  1.00  0.00     0.143 A 
HETATM   29  F1  UNL     1       5.116   2.977  20.099  1.00  0.00    -0.204 F 
BRANCH  26  30
HETATM   30  C19 UNL     1       9.135   0.619  18.617  1.00  0.00     0.218 C 
HETATM   31  C20 UNL     1       8.531  -0.059  17.398  1.00  0.00     0.039 C 
HETATM   32  C21 UNL     1       9.640  -0.930  16.847  1.00  0.00     0.030 C 
HETATM   33  C22 UNL     1      10.845  -0.454  17.616  1.00  0.00     0.233 C 
HETATM   34  N3  UNL     1      10.482   0.861  18.148  1.00  0.00    -0.067 N 
ATOM     35  H32 UNL     1      10.583   1.639  17.495  1.00  0.00     0.277 HD
ATOM     36  H31 UNL     1      11.124   1.241  18.843  1.00  0.00     0.277 HD
ENDBRANCH  26  30
ENDBRANCH   6  23
TORSDOF 5
ENDMDL
