MODEL 5
REMARK VINA RESULT: -10.023438650      1.270      1.809
REMARK  5 active torsions:
REMARK  status: ('A' for Active; 'I' for Inactive)
REMARK    1  A    between atoms: C2_3  and  N1_4 
REMARK    2  A    between atoms: N1_4  and  S1_6 
REMARK    3  A    between atoms: S1_6  and  C3_9 
REMARK    4  A    between atoms: N2_22  and  C15_23 
REMARK    5  A    between atoms: C18_26  and  C19_27 
ROOT
HETATM    1  O1  UNL     1       7.865   6.031  22.451  1.00  0.00    -0.271 OA
HETATM    2  C1  UNL     1       6.683   6.065  22.037  1.00  0.00     0.247 C 
HETATM    3  C2  UNL     1       5.631   6.961  22.520  1.00  0.00     0.187 C 
HETATM    4  C13 UNL     1       4.364   6.209  22.170  1.00  0.00     0.056 C 
HETATM    5  C14 UNL     1       4.687   5.405  20.934  1.00  0.00     0.135 C 
HETATM    6  N2  UNL     1       6.146   5.239  21.020  1.00  0.00    -0.313 N 
ENDROOT
BRANCH   3   7
HETATM    7  N1  UNL     1       5.612   8.244  21.843  1.00  0.00    -0.301 N 
ATOM      8  H1  UNL     1       5.295   8.389  20.885  1.00  0.00     0.173 HD
BRANCH   7   9
HETATM    9  S1  UNL     1       6.197   9.489  22.878  1.00  0.00     0.259 S 
HETATM   10  O2  UNL     1       5.155   9.650  23.977  1.00  0.00    -0.201 OA
HETATM   11  O3  UNL     1       6.350  10.772  22.133  1.00  0.00    -0.201 OA
BRANCH   9  12
HETATM   12  C3  UNL     1       7.744   9.105  23.593  1.00  0.00     0.080 A 
HETATM   13  C4  UNL     1       8.937   9.380  22.921  1.00  0.00     0.026 A 
HETATM   14  C5  UNL     1      10.153   9.076  23.495  1.00  0.00     0.014 A 
HETATM   15  C6  UNL     1      10.249   8.493  24.746  1.00  0.00    -0.024 A 
HETATM   16  C7  UNL     1      11.471   8.188  25.323  1.00  0.00     0.036 A 
HETATM   17  C11 UNL     1       9.084   8.217  25.421  1.00  0.00    -0.024 A 
HETATM   18  C8  UNL     1      11.561   7.606  26.572  1.00  0.00     0.034 A 
HETATM   19 CL1  UNL     1      13.133   7.226  27.289  1.00  0.00    -0.084 Cl
HETATM   20  C9  UNL     1      10.396   7.325  27.256  1.00  0.00     0.024 A 
HETATM   21  C10 UNL     1       9.187   7.635  26.669  1.00  0.00     0.014 A 
HETATM   22  C12 UNL     1       7.862   8.524  24.839  1.00  0.00     0.037 A 
ENDBRANCH   9  12
ENDBRANCH   7   9
ENDBRANCH   3   7
BRANCH   6  23
HETATM   23  C15 UNL     1       6.801   4.329  20.135  1.00  0.00     0.076 A 
HETATM   24  C16 UNL     1       7.343   4.683  18.926  1.00  0.00     0.033 A 
HETATM   25  C17 UNL     1       7.952   3.724  18.145  1.00  0.00     0.012 A 
HETATM   26  C18 UNL     1       8.055   2.403  18.514  1.00  0.00    -0.025 A 
HETATM   27  C23 UNL     1       7.509   2.057  19.731  1.00  0.00     0.054 A 
HETATM   28  C24 UNL     1       6.886   3.017  20.537  1.00  0.00     0.143 A 
HETATM   29  F1  UNL     1       6.362   2.608  21.737  1.00  0.00    -0.204 F 
BRANCH  26  30
HETATM   30  C19 UNL     1       8.720   1.448  17.613  1.00  0.00     0.218 C 
HETATM   31  C20 UNL     1      10.023   1.013  18.266  1.00  0.00     0.039 C 
HETATM   32  C21 UNL     1      10.356  -0.315  17.621  1.00  0.00     0.030 C 
HETATM   33  C22 UNL     1       9.085  -0.653  16.886  1.00  0.00     0.233 C 
HETATM   34  N3  UNL     1       8.043   0.175  17.494  1.00  0.00    -0.067 N 
ATOM     35  H32 UNL     1       7.646  -0.190  18.361  1.00  0.00     0.277 HD
ATOM     36  H31 UNL     1       7.156   0.198  16.991  1.00  0.00     0.277 HD
ENDBRANCH  26  30
ENDBRANCH   6  23
TORSDOF 5
ENDMDL
