MODEL 3
REMARK VINA RESULT: -10.777094784      1.380      1.821
REMARK  5 active torsions:
REMARK  status: ('A' for Active; 'I' for Inactive)
REMARK    1  A    between atoms: C2_3  and  N1_4 
REMARK    2  A    between atoms: N1_4  and  S1_6 
REMARK    3  A    between atoms: S1_6  and  C3_9 
REMARK    4  A    between atoms: N2_22  and  C15_23 
REMARK    5  A    between atoms: C18_26  and  C19_27 
ROOT
HETATM    1  O1  UNL     1       8.062   6.376  22.440  1.00  0.00    -0.271 OA
HETATM    2  C1  UNL     1       6.841   6.172  22.241  1.00  0.00     0.247 C 
HETATM    3  C2  UNL     1       5.765   6.868  23.002  1.00  0.00     0.187 C 
HETATM    4  C13 UNL     1       4.602   5.929  22.751  1.00  0.00     0.056 C 
HETATM    5  C14 UNL     1       4.849   5.394  21.365  1.00  0.00     0.135 C 
HETATM    6  N2  UNL     1       6.277   5.279  21.295  1.00  0.00    -0.313 N 
ENDROOT
BRANCH   3   7
HETATM    7  N1  UNL     1       5.529   8.179  22.467  1.00  0.00    -0.301 N 
ATOM      8  H1  UNL     1       5.041   8.354  21.589  1.00  0.00     0.173 HD
BRANCH   7   9
HETATM    9  S1  UNL     1       6.158   9.415  23.469  1.00  0.00     0.259 S 
HETATM   10  O2  UNL     1       5.210   9.560  24.648  1.00  0.00    -0.201 OA
HETATM   11  O3  UNL     1       6.179  10.695  22.683  1.00  0.00    -0.201 OA
BRANCH   9  12
HETATM   12  C3  UNL     1       7.786   9.100  24.007  1.00  0.00     0.080 A 
HETATM   13  C4  UNL     1       8.884   9.486  23.238  1.00  0.00     0.026 A 
HETATM   14  C5  UNL     1      10.168   9.230  23.680  1.00  0.00     0.014 A 
HETATM   15  C6  UNL     1      10.421   8.594  24.877  1.00  0.00    -0.024 A 
HETATM   16  C7  UNL     1      11.704   8.338  25.322  1.00  0.00     0.036 A 
HETATM   17  C11 UNL     1       9.344   8.207  25.647  1.00  0.00    -0.024 A 
HETATM   18  C8  UNL     1      11.954   7.700  26.522  1.00  0.00     0.034 A 
HETATM   19 CL1  UNL     1      13.601   7.385  27.064  1.00  0.00    -0.084 Cl
HETATM   20  C9  UNL     1      10.881   7.309  27.298  1.00  0.00     0.024 A 
HETATM   21  C10 UNL     1       9.605   7.570  26.846  1.00  0.00     0.014 A 
HETATM   22  C12 UNL     1       8.065   8.465  25.202  1.00  0.00     0.037 A 
ENDBRANCH   9  12
ENDBRANCH   7   9
ENDBRANCH   3   7
BRANCH   6  23
HETATM   23  C15 UNL     1       6.942   4.397  20.397  1.00  0.00     0.076 A 
HETATM   24  C16 UNL     1       7.009   3.047  20.655  1.00  0.00     0.033 A 
HETATM   25  C17 UNL     1       7.658   2.198  19.779  1.00  0.00     0.012 A 
HETATM   26  C18 UNL     1       8.264   2.656  18.614  1.00  0.00    -0.025 A 
HETATM   27  C23 UNL     1       8.178   4.014  18.386  1.00  0.00     0.054 A 
HETATM   28  C24 UNL     1       7.534   4.872  19.250  1.00  0.00     0.143 A 
HETATM   29  F1  UNL     1       7.514   6.190  18.919  1.00  0.00    -0.204 F 
BRANCH  26  30
HETATM   30  C19 UNL     1       8.957   1.718  17.686  1.00  0.00     0.218 C 
HETATM   31  C20 UNL     1       7.962   0.638  17.272  1.00  0.00     0.039 C 
HETATM   32  C21 UNL     1       8.918  -0.475  16.867  1.00  0.00     0.030 C 
HETATM   33  C22 UNL     1      10.230  -0.154  17.514  1.00  0.00     0.233 C 
HETATM   34  N3  UNL     1       9.927   0.914  18.416  1.00  0.00    -0.067 N 
ATOM     35  H32 UNL     1      10.742   1.433  18.744  1.00  0.00     0.277 HD
ATOM     36  H31 UNL     1       9.614   0.611  19.338  1.00  0.00     0.277 HD
ENDBRANCH  26  30
ENDBRANCH   6  23
TORSDOF 5
ENDMDL
