MODEL 1
REMARK VINA RESULT: -11.055289286      0.000      0.000
REMARK  5 active torsions:
REMARK  status: ('A' for Active; 'I' for Inactive)
REMARK    1  A    between atoms: C2_3  and  N1_4 
REMARK    2  A    between atoms: N1_4  and  S1_6 
REMARK    3  A    between atoms: S1_6  and  C3_9 
REMARK    4  A    between atoms: N2_22  and  C15_23 
REMARK    5  A    between atoms: C18_26  and  C19_27 
ROOT
HETATM    1  O1  UNL     1       4.497   5.818  20.989  1.00  0.00    -0.271 OA
HETATM    2  C1  UNL     1       5.589   6.378  21.248  1.00  0.00     0.247 C 
HETATM    3  C2  UNL     1       5.684   7.739  21.846  1.00  0.00     0.187 C 
HETATM    4  C13 UNL     1       7.108   8.102  21.473  1.00  0.00     0.056 C 
HETATM    5  C14 UNL     1       7.847   6.790  21.512  1.00  0.00     0.135 C 
HETATM    6  N2  UNL     1       6.884   5.843  21.029  1.00  0.00    -0.313 N 
ENDROOT
BRANCH   3   7
HETATM    7  N1  UNL     1       5.492   7.687  23.267  1.00  0.00    -0.301 N 
ATOM      8  H1  UNL     1       5.026   6.918  23.747  1.00  0.00     0.173 HD
BRANCH   7   9
HETATM    9  S1  UNL     1       6.133   9.058  24.063  1.00  0.00     0.259 S 
HETATM   10  O2  UNL     1       5.263   9.314  25.283  1.00  0.00    -0.201 OA
HETATM   11  O3  UNL     1       6.044  10.231  23.130  1.00  0.00    -0.201 OA
BRANCH   9  12
HETATM   12  C3  UNL     1       7.807   8.869  24.515  1.00  0.00     0.080 A 
HETATM   13  C4  UNL     1       8.818   9.524  23.813  1.00  0.00     0.026 A 
HETATM   14  C5  UNL     1      10.139   9.365  24.185  1.00  0.00     0.014 A 
HETATM   15  C6  UNL     1      10.514   8.568  25.246  1.00  0.00    -0.024 A 
HETATM   16  C7  UNL     1      11.834   8.407  25.621  1.00  0.00     0.036 A 
HETATM   17  C11 UNL     1       9.523   7.914  25.949  1.00  0.00    -0.024 A 
HETATM   18  C8  UNL     1      12.206   7.607  26.685  1.00  0.00     0.034 A 
HETATM   19 CL1  UNL     1      13.899   7.421  27.140  1.00  0.00    -0.084 Cl
HETATM   20  C9  UNL     1      11.220   6.950  27.394  1.00  0.00     0.024 A 
HETATM   21  C10 UNL     1       9.905   7.117  27.012  1.00  0.00     0.014 A 
HETATM   22  C12 UNL     1       8.207   8.077  25.574  1.00  0.00     0.037 A 
ENDBRANCH   9  12
ENDBRANCH   7   9
ENDBRANCH   3   7
BRANCH   6  23
HETATM   23  C15 UNL     1       7.246   4.596  20.446  1.00  0.00     0.076 A 
HETATM   24  C16 UNL     1       8.045   4.546  19.327  1.00  0.00     0.033 A 
HETATM   25  C17 UNL     1       8.391   3.332  18.766  1.00  0.00     0.012 A 
HETATM   26  C18 UNL     1       7.957   2.120  19.294  1.00  0.00    -0.025 A 
HETATM   27  C23 UNL     1       7.156   2.207  20.416  1.00  0.00     0.054 A 
HETATM   28  C24 UNL     1       6.805   3.410  20.986  1.00  0.00     0.143 A 
HETATM   29  F1  UNL     1       6.012   3.369  22.089  1.00  0.00    -0.204 F 
BRANCH  26  30
HETATM   30  C19 UNL     1       8.344   0.825  18.670  1.00  0.00     0.218 C 
HETATM   31  C20 UNL     1       9.857   0.823  18.478  1.00  0.00     0.039 C 
HETATM   32  C21 UNL     1       9.992  -0.206  17.365  1.00  0.00     0.030 C 
HETATM   33  C22 UNL     1       8.643  -0.307  16.724  1.00  0.00     0.233 C 
HETATM   34  N3  UNL     1       7.904   0.784  17.282  1.00  0.00    -0.067 N 
ATOM     35  H32 UNL     1       6.893   0.714  17.162  1.00  0.00     0.277 HD
ATOM     36  H31 UNL     1       8.011   1.666  16.780  1.00  0.00     0.277 HD
ENDBRANCH  26  30
ENDBRANCH   6  23
TORSDOF 5
ENDMDL
