MODEL 6
REMARK VINA RESULT: -10.536431479      3.677      8.470
REMARK  5 active torsions:
REMARK  status: ('A' for Active; 'I' for Inactive)
REMARK    1  A    between atoms: C2_3  and  N1_4 
REMARK    2  A    between atoms: N1_4  and  S1_6 
REMARK    3  A    between atoms: S1_6  and  C3_9 
REMARK    4  A    between atoms: N2_22  and  C15_23 
REMARK    5  A    between atoms: C18_26  and  C19_27 
ROOT
HETATM    1  O1  UNL     1       7.756   8.331  19.876  1.00  0.00    -0.271 OA
HETATM    2  C1  UNL     1       6.680   8.650  20.435  1.00  0.00     0.247 C 
HETATM    3  C2  UNL     1       5.409   8.871  19.688  1.00  0.00     0.187 C 
HETATM    4  C13 UNL     1       4.635   9.688  20.703  1.00  0.00     0.056 C 
HETATM    5  C14 UNL     1       5.091   9.154  22.035  1.00  0.00     0.135 C 
HETATM    6  N2  UNL     1       6.477   8.852  21.824  1.00  0.00    -0.313 N 
ENDROOT
BRANCH   3   7
HETATM    7  N1  UNL     1       4.767   7.622  19.394  1.00  0.00    -0.301 N 
ATOM      8  H1  UNL     1       4.061   7.193  19.991  1.00  0.00     0.173 HD
BRANCH   7   9
HETATM    9  S1  UNL     1       5.320   6.933  17.928  1.00  0.00     0.259 S 
HETATM   10  O2  UNL     1       5.966   8.051  17.126  1.00  0.00    -0.201 OA
HETATM   11  O3  UNL     1       4.132   6.400  17.180  1.00  0.00    -0.201 OA
BRANCH   9  12
HETATM   12  C3  UNL     1       6.430   5.610  18.168  1.00  0.00     0.080 A 
HETATM   13  C4  UNL     1       6.992   5.362  19.420  1.00  0.00     0.026 A 
HETATM   14  C5  UNL     1       7.868   4.308  19.594  1.00  0.00     0.014 A 
HETATM   15  C6  UNL     1       8.222   3.468  18.559  1.00  0.00    -0.024 A 
HETATM   16  C7  UNL     1       9.097   2.412  18.730  1.00  0.00     0.036 A 
HETATM   17  C11 UNL     1       7.673   3.701  17.316  1.00  0.00    -0.024 A 
HETATM   18  C8  UNL     1       9.450   1.571  17.691  1.00  0.00     0.034 A 
HETATM   19 CL1  UNL     1      10.570   0.233  17.938  1.00  0.00    -0.084 Cl
HETATM   20  C9  UNL     1       8.903   1.799  16.444  1.00  0.00     0.024 A 
HETATM   21  C10 UNL     1       8.031   2.854  16.283  1.00  0.00     0.014 A 
HETATM   22  C12 UNL     1       6.799   4.754  17.148  1.00  0.00     0.037 A 
ENDBRANCH   9  12
ENDBRANCH   7   9
ENDBRANCH   3   7
BRANCH   6  23
HETATM   23  C15 UNL     1       7.427   8.782  22.882  1.00  0.00     0.076 A 
HETATM   24  C16 UNL     1       7.487   7.679  23.703  1.00  0.00     0.033 A 
HETATM   25  C17 UNL     1       8.411   7.619  24.728  1.00  0.00     0.012 A 
HETATM   26  C18 UNL     1       9.311   8.651  24.978  1.00  0.00    -0.025 A 
HETATM   27  C23 UNL     1       9.223   9.741  24.136  1.00  0.00     0.054 A 
HETATM   28  C24 UNL     1       8.307   9.814  23.109  1.00  0.00     0.143 A 
HETATM   29  F1  UNL     1       8.316  10.938  22.346  1.00  0.00    -0.204 F 
BRANCH  26  30
HETATM   30  C19 UNL     1      10.297   8.560  26.090  1.00  0.00     0.218 C 
HETATM   31  C20 UNL     1      11.675   8.310  25.485  1.00  0.00     0.039 C 
HETATM   32  C21 UNL     1      12.387   7.679  26.673  1.00  0.00     0.030 C 
HETATM   33  C22 UNL     1      11.311   7.195  27.595  1.00  0.00     0.233 C 
HETATM   34  N3  UNL     1      10.108   7.321  26.831  1.00  0.00    -0.067 N 
ATOM     35  H32 UNL     1       9.251   7.288  27.385  1.00  0.00     0.277 HD
ATOM     36  H31 UNL     1       9.891   6.511  26.249  1.00  0.00     0.277 HD
ENDBRANCH  26  30
ENDBRANCH   6  23
TORSDOF 5
ENDMDL
