MODEL 5
REMARK VINA RESULT: -10.632129431      3.368      8.281
REMARK  5 active torsions:
REMARK  status: ('A' for Active; 'I' for Inactive)
REMARK    1  A    between atoms: C2_3  and  N1_4 
REMARK    2  A    between atoms: N1_4  and  S1_6 
REMARK    3  A    between atoms: S1_6  and  C3_9 
REMARK    4  A    between atoms: N2_22  and  C15_23 
REMARK    5  A    between atoms: C18_26  and  C19_27 
ROOT
HETATM    1  O1  UNL     1       7.551   6.600  21.535  1.00  0.00    -0.271 OA
HETATM    2  C1  UNL     1       6.726   7.309  22.159  1.00  0.00     0.247 C 
HETATM    3  C2  UNL     1       5.332   7.544  21.687  1.00  0.00     0.187 C 
HETATM    4  C13 UNL     1       4.986   8.793  22.471  1.00  0.00     0.056 C 
HETATM    5  C14 UNL     1       5.733   8.637  23.769  1.00  0.00     0.135 C 
HETATM    6  N2  UNL     1       6.954   7.991  23.382  1.00  0.00    -0.313 N 
ENDROOT
BRANCH   3   7
HETATM    7  N1  UNL     1       4.485   6.437  22.028  1.00  0.00    -0.301 N 
ATOM      8  H1  UNL     1       4.173   6.233  22.976  1.00  0.00     0.173 HD
BRANCH   7   9
HETATM    9  S1  UNL     1       4.058   5.498  20.663  1.00  0.00     0.259 S 
HETATM   10  O2  UNL     1       3.908   6.455  19.492  1.00  0.00    -0.201 OA
HETATM   11  O3  UNL     1       2.739   4.834  20.940  1.00  0.00    -0.201 OA
BRANCH   9  12
HETATM   12  C3  UNL     1       5.214   4.243  20.304  1.00  0.00     0.080 A 
HETATM   13  C4  UNL     1       5.029   2.942  20.769  1.00  0.00     0.026 A 
HETATM   14  C5  UNL     1       5.955   1.959  20.475  1.00  0.00     0.014 A 
HETATM   15  C6  UNL     1       7.082   2.211  19.722  1.00  0.00    -0.024 A 
HETATM   16  C7  UNL     1       8.009   1.230  19.425  1.00  0.00     0.036 A 
HETATM   17  C11 UNL     1       7.277   3.495  19.256  1.00  0.00    -0.024 A 
HETATM   18  C8  UNL     1       9.138   1.487  18.670  1.00  0.00     0.034 A 
HETATM   19 CL1  UNL     1      10.303   0.216  18.307  1.00  0.00    -0.084 Cl
HETATM   20  C9  UNL     1       9.339   2.770  18.199  1.00  0.00     0.024 A 
HETATM   21  C10 UNL     1       8.409   3.741  18.501  1.00  0.00     0.014 A 
HETATM   22  C12 UNL     1       6.351   4.472  19.552  1.00  0.00     0.037 A 
ENDBRANCH   9  12
ENDBRANCH   7   9
ENDBRANCH   3   7
BRANCH   6  23
HETATM   23  C15 UNL     1       8.150   8.065  24.150  1.00  0.00     0.076 A 
HETATM   24  C16 UNL     1       8.181   7.618  25.452  1.00  0.00     0.033 A 
HETATM   25  C17 UNL     1       9.345   7.694  26.191  1.00  0.00     0.012 A 
HETATM   26  C18 UNL     1      10.523   8.217  25.668  1.00  0.00    -0.025 A 
HETATM   27  C23 UNL     1      10.457   8.657  24.361  1.00  0.00     0.054 A 
HETATM   28  C24 UNL     1       9.303   8.586  23.612  1.00  0.00     0.143 A 
HETATM   29  F1  UNL     1       9.360   9.050  22.336  1.00  0.00    -0.204 F 
BRANCH  26  30
HETATM   30  C19 UNL     1      11.765   8.289  26.488  1.00  0.00     0.218 C 
HETATM   31  C20 UNL     1      12.939   7.869  25.609  1.00  0.00     0.039 C 
HETATM   32  C21 UNL     1      13.937   7.436  26.673  1.00  0.00     0.030 C 
HETATM   33  C22 UNL     1      13.140   7.180  27.914  1.00  0.00     0.233 C 
HETATM   34  N3  UNL     1      11.779   7.217  27.474  1.00  0.00    -0.067 N 
ATOM     35  H32 UNL     1      11.096   7.325  28.224  1.00  0.00     0.277 HD
ATOM     36  H31 UNL     1      11.422   6.325  27.131  1.00  0.00     0.277 HD
ENDBRANCH  26  30
ENDBRANCH   6  23
TORSDOF 5
ENDMDL
