MODEL 2
REMARK VINA RESULT: -10.784615720      1.165      1.459
REMARK  5 active torsions:
REMARK  status: ('A' for Active; 'I' for Inactive)
REMARK    1  A    between atoms: C2_3  and  N1_4 
REMARK    2  A    between atoms: N1_4  and  S1_6 
REMARK    3  A    between atoms: S1_6  and  C3_9 
REMARK    4  A    between atoms: N2_22  and  C15_23 
REMARK    5  A    between atoms: C18_26  and  C19_27 
ROOT
HETATM    1  O1  UNL     1       8.082   6.299  22.392  1.00  0.00    -0.271 OA
HETATM    2  C1  UNL     1       6.870   6.152  22.106  1.00  0.00     0.247 C 
HETATM    3  C2  UNL     1       5.775   6.896  22.792  1.00  0.00     0.187 C 
HETATM    4  C13 UNL     1       4.592   6.011  22.456  1.00  0.00     0.056 C 
HETATM    5  C14 UNL     1       4.911   5.467  21.088  1.00  0.00     0.135 C 
HETATM    6  N2  UNL     1       6.334   5.286  21.118  1.00  0.00    -0.313 N 
ENDROOT
BRANCH   3   7
HETATM    7  N1  UNL     1       5.638   8.216  22.247  1.00  0.00    -0.301 N 
ATOM      8  H1  UNL     1       5.239   8.413  21.330  1.00  0.00     0.173 HD
BRANCH   7   9
HETATM    9  S1  UNL     1       6.220   9.424  23.310  1.00  0.00     0.259 S 
HETATM   10  O2  UNL     1       5.229   9.524  24.458  1.00  0.00    -0.201 OA
HETATM   11  O3  UNL     1       6.259  10.728  22.567  1.00  0.00    -0.201 OA
BRANCH   9  12
HETATM   12  C3  UNL     1       7.830   9.103  23.897  1.00  0.00     0.080 A 
HETATM   13  C4  UNL     1       8.951   9.479  23.158  1.00  0.00     0.026 A 
HETATM   14  C5  UNL     1      10.221   9.218  23.638  1.00  0.00     0.014 A 
HETATM   15  C6  UNL     1      10.436   8.589  24.846  1.00  0.00    -0.024 A 
HETATM   16  C7  UNL     1      11.704   8.328  25.329  1.00  0.00     0.036 A 
HETATM   17  C11 UNL     1       9.335   8.212  25.587  1.00  0.00    -0.024 A 
HETATM   18  C8  UNL     1      11.915   7.696  26.541  1.00  0.00     0.034 A 
HETATM   19 CL1  UNL     1      13.544   7.376  27.132  1.00  0.00    -0.084 Cl
HETATM   20  C9  UNL     1      10.818   7.317  27.288  1.00  0.00     0.024 A 
HETATM   21  C10 UNL     1       9.557   7.581  26.797  1.00  0.00     0.014 A 
HETATM   22  C12 UNL     1       8.071   8.474  25.104  1.00  0.00     0.037 A 
ENDBRANCH   9  12
ENDBRANCH   7   9
ENDBRANCH   3   7
BRANCH   6  23
HETATM   23  C15 UNL     1       7.019   4.376  20.266  1.00  0.00     0.076 A 
HETATM   24  C16 UNL     1       7.585   4.803  19.086  1.00  0.00     0.033 A 
HETATM   25  C17 UNL     1       8.247   3.912  18.264  1.00  0.00     0.012 A 
HETATM   26  C18 UNL     1       8.375   2.563  18.581  1.00  0.00    -0.025 A 
HETATM   27  C23 UNL     1       7.796   2.169  19.770  1.00  0.00     0.054 A 
HETATM   28  C24 UNL     1       7.133   3.046  20.600  1.00  0.00     0.143 A 
HETATM   29  F1  UNL     1       6.605   2.541  21.746  1.00  0.00    -0.204 F 
BRANCH  26  30
HETATM   30  C19 UNL     1       9.094   1.624  17.676  1.00  0.00     0.218 C 
HETATM   31  C20 UNL     1       8.093   0.589  17.173  1.00  0.00     0.039 C 
HETATM   32  C21 UNL     1       9.036  -0.547  16.802  1.00  0.00     0.030 C 
HETATM   33  C22 UNL     1      10.314  -0.286  17.537  1.00  0.00     0.233 C 
HETATM   34  N3  UNL     1       9.990   0.771  18.445  1.00  0.00    -0.067 N 
ATOM     35  H32 UNL     1      10.799   1.254  18.836  1.00  0.00     0.277 HD
ATOM     36  H31 UNL     1       9.609   0.457  19.338  1.00  0.00     0.277 HD
ENDBRANCH  26  30
ENDBRANCH   6  23
TORSDOF 5
ENDMDL
