MODEL 7
REMARK VINA RESULT: -10.429051602      3.859      8.606
REMARK  5 active torsions:
REMARK  status: ('A' for Active; 'I' for Inactive)
REMARK    1  A    between atoms: C2_3  and  N1_4 
REMARK    2  A    between atoms: N1_4  and  S1_6 
REMARK    3  A    between atoms: S1_6  and  C3_9 
REMARK    4  A    between atoms: N2_22  and  C15_23 
REMARK    5  A    between atoms: C18_26  and  C19_27 
ROOT
HETATM    1  O1  UNL     1       7.831   8.197  19.436  1.00  0.00    -0.271 OA
HETATM    2  C1  UNL     1       6.740   8.637  19.870  1.00  0.00     0.247 C 
HETATM    3  C2  UNL     1       5.565   8.910  18.995  1.00  0.00     0.187 C 
HETATM    4  C13 UNL     1       4.776   9.850  19.883  1.00  0.00     0.056 C 
HETATM    5  C14 UNL     1       5.063   9.369  21.281  1.00  0.00     0.135 C 
HETATM    6  N2  UNL     1       6.431   8.944  21.220  1.00  0.00    -0.313 N 
ENDROOT
BRANCH   3   7
HETATM    7  N1  UNL     1       4.848   7.700  18.713  1.00  0.00    -0.301 N 
ATOM      8  H1  UNL     1       4.280   7.204  19.399  1.00  0.00     0.173 HD
BRANCH   7   9
HETATM    9  S1  UNL     1       5.052   7.182  17.095  1.00  0.00     0.259 S 
HETATM   10  O2  UNL     1       5.679   8.338  16.332  1.00  0.00    -0.201 OA
HETATM   11  O3  UNL     1       3.697   6.880  16.521  1.00  0.00    -0.201 OA
BRANCH   9  12
HETATM   12  C3  UNL     1       6.019   5.738  16.953  1.00  0.00     0.080 A 
HETATM   13  C4  UNL     1       6.046   5.005  15.767  1.00  0.00     0.026 A 
HETATM   14  C5  UNL     1       6.819   3.864  15.671  1.00  0.00     0.014 A 
HETATM   15  C6  UNL     1       7.585   3.404  16.721  1.00  0.00    -0.024 A 
HETATM   16  C7  UNL     1       8.360   2.263  16.628  1.00  0.00     0.036 A 
HETATM   17  C11 UNL     1       7.567   4.119  17.900  1.00  0.00    -0.024 A 
HETATM   18  C8  UNL     1       9.127   1.805  17.683  1.00  0.00     0.034 A 
HETATM   19 CL1  UNL     1      10.104   0.346  17.535  1.00  0.00    -0.084 Cl
HETATM   20  C9  UNL     1       9.114   2.517  18.866  1.00  0.00     0.024 A 
HETATM   21  C10 UNL     1       8.338   3.653  18.949  1.00  0.00     0.014 A 
HETATM   22  C12 UNL     1       6.795   5.258  17.991  1.00  0.00     0.037 A 
ENDBRANCH   9  12
ENDBRANCH   7   9
ENDBRANCH   3   7
BRANCH   6  23
HETATM   23  C15 UNL     1       7.272   8.867  22.366  1.00  0.00     0.076 A 
HETATM   24  C16 UNL     1       7.475   7.668  23.012  1.00  0.00     0.033 A 
HETATM   25  C17 UNL     1       8.292   7.602  24.124  1.00  0.00     0.012 A 
HETATM   26  C18 UNL     1       8.938   8.722  24.638  1.00  0.00    -0.025 A 
HETATM   27  C23 UNL     1       8.712   9.906  23.967  1.00  0.00     0.054 A 
HETATM   28  C24 UNL     1       7.901   9.987  22.857  1.00  0.00     0.143 A 
HETATM   29  F1  UNL     1       7.755  11.209  22.280  1.00  0.00    -0.204 F 
BRANCH  26  30
HETATM   30  C19 UNL     1       9.813   8.622  25.839  1.00  0.00     0.218 C 
HETATM   31  C20 UNL     1      11.241   8.366  25.367  1.00  0.00     0.039 C 
HETATM   32  C21 UNL     1      11.833   7.727  26.615  1.00  0.00     0.030 C 
HETATM   33  C22 UNL     1      10.671   7.246  27.429  1.00  0.00     0.233 C 
HETATM   34  N3  UNL     1       9.547   7.381  26.554  1.00  0.00    -0.067 N 
ATOM     35  H32 UNL     1       8.642   7.352  27.024  1.00  0.00     0.277 HD
ATOM     36  H31 UNL     1       9.383   6.575  25.952  1.00  0.00     0.277 HD
ENDBRANCH  26  30
ENDBRANCH   6  23
TORSDOF 5
ENDMDL
