MODEL 11
REMARK VINA RESULT: -7.760592486      1.043      3.863
REMARK  13 active torsions:
REMARK  status: ('A' for Active; 'I' for Inactive)
REMARK       I    between atoms: C1_2  and  N1_3 
REMARK    1  A    between atoms: C1_2  and  C4_9 
REMARK    2  A    between atoms: N1_3  and  C2_5 
REMARK    3  A    between atoms: C2_5  and  C3_6 
REMARK    4  A    between atoms: C3_6  and  O2_7 
REMARK    5  A    between atoms: C4_9  and  C5_10 
REMARK    6  A    between atoms: C4_9  and  C26_32 
REMARK    7  A    between atoms: C5_10  and  C6_11 
REMARK    8  A    between atoms: C6_11  and  O3_12 
REMARK    9  A    between atoms: O3_12  and  C7_13 
REMARK   10  A    between atoms: C7_13  and  C8_14 
REMARK   11  A    between atoms: C7_13  and  C14_20 
REMARK   12  A    between atoms: C7_13  and  C20_26 
REMARK   13  A    between atoms: C26_32  and  N2_33 
ROOT
HETATM    1  C6  UNL     1      -9.186  25.766  -2.188  1.00  0.00     0.171 C 
ENDROOT
BRANCH   1   2
HETATM    2  C5  UNL     1      -8.399  24.859  -1.319  1.00  0.00     0.042 C 
BRANCH   2   3
HETATM    3  C4  UNL     1      -7.652  25.401  -0.179  1.00  0.00     0.098 C 
BRANCH   3   4
HETATM    4  C1  UNL     1      -6.198  25.005  -0.406  1.00  0.00     0.223 C 
HETATM    5  O1  UNL     1      -5.861  23.805  -0.554  1.00  0.00    -0.273 OA
HETATM    6  N1  UNL     1      -5.173  25.988  -0.455  1.00  0.00    -0.359 N 
ATOM      7  H1  UNL     1      -5.412  26.974  -0.337  1.00  0.00     0.162 HD
BRANCH   6   8
HETATM    8  C2  UNL     1      -3.796  25.606  -0.670  1.00  0.00     0.148 C 
BRANCH   8   9
HETATM    9  C3  UNL     1      -2.860  26.121   0.396  1.00  0.00     0.183 C 
BRANCH   9  10
HETATM   10  O2  UNL     1      -3.121  27.470   0.664  1.00  0.00    -0.399 OA
ATOM     11  H2  UNL     1      -2.397  27.858   1.141  1.00  0.00     0.209 HD
ENDBRANCH   9  10
ENDBRANCH   8   9
ENDBRANCH   6   8
ENDBRANCH   3   4
BRANCH   3  12
HETATM   12  C26 UNL     1      -7.727  26.880   0.058  1.00  0.00     0.147 C 
BRANCH  12  13
HETATM   13  N2  UNL     1      -8.102  27.338   1.345  1.00  0.00    -0.309 N 
HETATM   14  C27 UNL     1      -7.297  27.186   2.395  1.00  0.00     0.101 A 
HETATM   15  C28 UNL     1      -7.637  27.619   3.654  1.00  0.00     0.092 A 
HETATM   16  C29 UNL     1      -8.844  28.229   3.857  1.00  0.00     0.250 A 
HETATM   17  O4  UNL     1      -9.163  28.630   5.027  1.00  0.00    -0.268 OA
HETATM   18  N3  UNL     1      -9.647  28.378   2.798  1.00  0.00    -0.275 N 
HETATM   19  C30 UNL     1      -9.287  27.942   1.562  1.00  0.00     0.329 A 
ATOM     20  H3  UNL     1     -10.553  28.831   2.921  1.00  0.00     0.173 HD
HETATM   21  O5  UNL     1     -10.149  28.160   0.674  1.00  0.00    -0.246 OA
ENDBRANCH  12  13
ENDBRANCH   3  12
ENDBRANCH   2   3
ENDBRANCH   1   2
BRANCH   1  22
HETATM   22  O3  UNL     1      -8.953  25.602  -3.536  1.00  0.00    -0.365 OA
BRANCH  22  23
HETATM   23  C7  UNL     1      -8.487  26.707  -4.215  1.00  0.00     0.142 C 
BRANCH  23  24
HETATM   24  C8  UNL     1      -9.037  27.935  -3.636  1.00  0.00    -0.015 A 
HETATM   25  C9  UNL     1      -8.284  28.922  -3.055  1.00  0.00     0.011 A 
HETATM   26  C10 UNL     1      -8.880  30.054  -2.552  1.00  0.00     0.001 A 
HETATM   27  C11 UNL     1     -10.249  30.181  -2.643  1.00  0.00     0.000 A 
HETATM   28  C12 UNL     1     -11.042  29.218  -3.216  1.00  0.00     0.001 A 
HETATM   29  C13 UNL     1     -10.402  28.103  -3.705  1.00  0.00     0.011 A 
ENDBRANCH  23  24
BRANCH  23  30
HETATM   30  C14 UNL     1      -7.007  26.672  -4.214  1.00  0.00    -0.015 A 
HETATM   31  C15 UNL     1      -6.199  27.782  -4.261  1.00  0.00     0.011 A 
HETATM   32  C16 UNL     1      -4.824  27.650  -4.251  1.00  0.00     0.001 A 
HETATM   33  C17 UNL     1      -4.263  26.375  -4.193  1.00  0.00     0.000 A 
HETATM   34  C18 UNL     1      -5.048  25.247  -4.145  1.00  0.00     0.001 A 
HETATM   35  C19 UNL     1      -6.409  25.424  -4.157  1.00  0.00     0.011 A 
ENDBRANCH  23  30
BRANCH  23  36
HETATM   36  C20 UNL     1      -8.975  26.659  -5.636  1.00  0.00    -0.015 A 
HETATM   37  C21 UNL     1      -9.516  25.504  -6.157  1.00  0.00     0.011 A 
HETATM   38  C22 UNL     1      -9.948  25.533  -7.467  1.00  0.00     0.001 A 
HETATM   39  C23 UNL     1      -9.828  26.700  -8.212  1.00  0.00     0.000 A 
HETATM   40  C24 UNL     1      -9.282  27.848  -7.673  1.00  0.00     0.001 A 
HETATM   41  C25 UNL     1      -8.850  27.822  -6.365  1.00  0.00     0.011 A 
ENDBRANCH  23  36
ENDBRANCH  22  23
ENDBRANCH   1  22
TORSDOF 13
ENDMDL
