MODEL 17
REMARK VINA RESULT: -7.583310719      1.774      2.444
REMARK  13 active torsions:
REMARK  status: ('A' for Active; 'I' for Inactive)
REMARK       I    between atoms: C1_2  and  N1_3 
REMARK    1  A    between atoms: C1_2  and  C4_9 
REMARK    2  A    between atoms: N1_3  and  C2_5 
REMARK    3  A    between atoms: C2_5  and  C3_6 
REMARK    4  A    between atoms: C3_6  and  O2_7 
REMARK    5  A    between atoms: C4_9  and  C5_10 
REMARK    6  A    between atoms: C4_9  and  C26_32 
REMARK    7  A    between atoms: C5_10  and  C6_11 
REMARK    8  A    between atoms: C6_11  and  O3_12 
REMARK    9  A    between atoms: O3_12  and  C7_13 
REMARK   10  A    between atoms: C7_13  and  C8_14 
REMARK   11  A    between atoms: C7_13  and  C14_20 
REMARK   12  A    between atoms: C7_13  and  C20_26 
REMARK   13  A    between atoms: C26_32  and  N2_33 
ROOT
HETATM    1  C6  UNL     1      -8.156  27.698  -2.207  1.00  0.00     0.171 C 
ENDROOT
BRANCH   1   2
HETATM    2  C5  UNL     1      -8.608  26.938  -1.017  1.00  0.00     0.042 C 
BRANCH   2   3
HETATM    3  C4  UNL     1      -7.922  27.112   0.268  1.00  0.00     0.098 C 
BRANCH   3   4
HETATM    4  C1  UNL     1      -9.004  27.487   1.273  1.00  0.00     0.223 C 
HETATM    5  O1  UNL     1      -8.722  27.794   2.456  1.00  0.00    -0.273 OA
HETATM    6  N1  UNL     1     -10.375  27.499   0.899  1.00  0.00    -0.359 N 
ATOM      7  H1  UNL     1     -10.641  27.253  -0.056  1.00  0.00     0.162 HD
BRANCH   6   8
HETATM    8  C2  UNL     1     -11.397  27.855   1.857  1.00  0.00     0.148 C 
BRANCH   8   9
HETATM    9  C3  UNL     1     -12.800  27.669   1.331  1.00  0.00     0.183 C 
BRANCH   9  10
HETATM   10  O2  UNL     1     -13.157  26.316   1.363  1.00  0.00    -0.399 OA
ATOM     11  H2  UNL     1     -12.453  25.797   1.733  1.00  0.00     0.209 HD
ENDBRANCH   9  10
ENDBRANCH   8   9
ENDBRANCH   6   8
ENDBRANCH   3   4
BRANCH   3  12
HETATM   12  C26 UNL     1      -7.142  25.945   0.799  1.00  0.00     0.147 C 
BRANCH  12  13
HETATM   13  N2  UNL     1      -5.810  25.767   0.351  1.00  0.00    -0.309 N 
HETATM   14  C27 UNL     1      -4.868  26.673   0.601  1.00  0.00     0.101 A 
HETATM   15  C28 UNL     1      -3.570  26.525   0.175  1.00  0.00     0.092 A 
HETATM   16  C29 UNL     1      -3.213  25.411  -0.534  1.00  0.00     0.250 A 
HETATM   17  O4  UNL     1      -2.007  25.272  -0.932  1.00  0.00    -0.268 OA
HETATM   18  N3  UNL     1      -4.165  24.505  -0.780  1.00  0.00    -0.275 N 
HETATM   19  C30 UNL     1      -5.442  24.674  -0.348  1.00  0.00     0.329 A 
ATOM     20  H3  UNL     1      -3.926  23.664  -1.307  1.00  0.00     0.173 HD
HETATM   21  O5  UNL     1      -6.214  23.732  -0.658  1.00  0.00    -0.246 OA
ENDBRANCH  12  13
ENDBRANCH   3  12
ENDBRANCH   2   3
ENDBRANCH   1   2
BRANCH   1  22
HETATM   22  O3  UNL     1      -9.037  27.669  -3.265  1.00  0.00    -0.365 OA
BRANCH  22  23
HETATM   23  C7  UNL     1      -8.493  27.419  -4.508  1.00  0.00     0.142 C 
BRANCH  23  24
HETATM   24  C8  UNL     1      -8.580  28.610  -5.355  1.00  0.00    -0.015 A 
HETATM   25  C9  UNL     1      -7.716  28.897  -6.380  1.00  0.00     0.011 A 
HETATM   26  C10 UNL     1      -7.881  30.029  -7.140  1.00  0.00     0.001 A 
HETATM   27  C11 UNL     1      -8.932  30.873  -6.856  1.00  0.00     0.000 A 
HETATM   28  C12 UNL     1      -9.821  30.626  -5.840  1.00  0.00     0.001 A 
HETATM   29  C13 UNL     1      -9.617  29.481  -5.106  1.00  0.00     0.011 A 
ENDBRANCH  23  24
BRANCH  23  30
HETATM   30  C14 UNL     1      -7.107  26.930  -4.327  1.00  0.00    -0.015 A 
HETATM   31  C15 UNL     1      -6.752  25.607  -4.226  1.00  0.00     0.011 A 
HETATM   32  C16 UNL     1      -5.428  25.246  -4.063  1.00  0.00     0.001 A 
HETATM   33  C17 UNL     1      -4.454  26.242  -4.002  1.00  0.00     0.000 A 
HETATM   34  C18 UNL     1      -4.782  27.574  -4.100  1.00  0.00     0.001 A 
HETATM   35  C19 UNL     1      -6.108  27.887  -4.261  1.00  0.00     0.011 A 
ENDBRANCH  23  30
BRANCH  23  36
HETATM   36  C20 UNL     1      -9.299  26.354  -5.197  1.00  0.00    -0.015 A 
HETATM   37  C21 UNL     1      -9.100  26.071  -6.531  1.00  0.00     0.011 A 
HETATM   38  C22 UNL     1      -9.872  25.078  -7.097  1.00  0.00     0.001 A 
HETATM   39  C23 UNL     1     -10.811  24.404  -6.327  1.00  0.00     0.000 A 
HETATM   40  C24 UNL     1     -10.998  24.702  -4.991  1.00  0.00     0.001 A 
HETATM   41  C25 UNL     1     -10.228  25.692  -4.423  1.00  0.00     0.011 A 
ENDBRANCH  23  36
ENDBRANCH  22  23
ENDBRANCH   1  22
TORSDOF 13
ENDMDL
