MODEL 14
REMARK VINA RESULT: -7.594438648      1.534      3.715
REMARK  13 active torsions:
REMARK  status: ('A' for Active; 'I' for Inactive)
REMARK       I    between atoms: C1_2  and  N1_3 
REMARK    1  A    between atoms: C1_2  and  C4_9 
REMARK    2  A    between atoms: N1_3  and  C2_5 
REMARK    3  A    between atoms: C2_5  and  C3_6 
REMARK    4  A    between atoms: C3_6  and  O2_7 
REMARK    5  A    between atoms: C4_9  and  C5_10 
REMARK    6  A    between atoms: C4_9  and  C26_32 
REMARK    7  A    between atoms: C5_10  and  C6_11 
REMARK    8  A    between atoms: C6_11  and  O3_12 
REMARK    9  A    between atoms: O3_12  and  C7_13 
REMARK   10  A    between atoms: C7_13  and  C8_14 
REMARK   11  A    between atoms: C7_13  and  C14_20 
REMARK   12  A    between atoms: C7_13  and  C20_26 
REMARK   13  A    between atoms: C26_32  and  N2_33 
ROOT
HETATM    1  C6  UNL     1      -8.638  25.933  -1.919  1.00  0.00     0.171 C 
ENDROOT
BRANCH   1   2
HETATM    2  C5  UNL     1      -8.992  26.225  -0.510  1.00  0.00     0.042 C 
BRANCH   2   3
HETATM    3  C4  UNL     1      -7.975  26.742   0.411  1.00  0.00     0.098 C 
BRANCH   3   4
HETATM    4  C1  UNL     1      -8.738  27.447   1.525  1.00  0.00     0.223 C 
HETATM    5  O1  UNL     1      -8.183  27.751   2.609  1.00  0.00    -0.273 OA
HETATM    6  N1  UNL     1     -10.110  27.783   1.370  1.00  0.00    -0.359 N 
ATOM      7  H1  UNL     1     -10.593  27.550   0.502  1.00  0.00     0.162 HD
BRANCH   6   8
HETATM    8  C2  UNL     1     -10.829  28.452   2.431  1.00  0.00     0.148 C 
BRANCH   8   9
HETATM    9  C3  UNL     1     -12.167  27.824   2.734  1.00  0.00     0.183 C 
BRANCH   9  10
HETATM   10  O2  UNL     1     -12.604  27.060   1.646  1.00  0.00    -0.399 OA
ATOM     11  H2  UNL     1     -13.428  26.633   1.851  1.00  0.00     0.209 HD
ENDBRANCH   9  10
ENDBRANCH   8   9
ENDBRANCH   6   8
ENDBRANCH   3   4
BRANCH   3  12
HETATM   12  C26 UNL     1      -7.023  25.753   1.017  1.00  0.00     0.147 C 
BRANCH  12  13
HETATM   13  N2  UNL     1      -5.718  25.655   0.475  1.00  0.00    -0.309 N 
HETATM   14  C27 UNL     1      -4.791  26.574   0.733  1.00  0.00     0.101 A 
HETATM   15  C28 UNL     1      -3.519  26.503   0.218  1.00  0.00     0.092 A 
HETATM   16  C29 UNL     1      -3.174  25.458  -0.593  1.00  0.00     0.250 A 
HETATM   17  O4  UNL     1      -1.993  25.391  -1.074  1.00  0.00    -0.268 OA
HETATM   18  N3  UNL     1      -4.111  24.538  -0.847  1.00  0.00    -0.275 N 
HETATM   19  C30 UNL     1      -5.362  24.630  -0.325  1.00  0.00     0.329 A 
ATOM     20  H3  UNL     1      -3.880  23.747  -1.448  1.00  0.00     0.173 HD
HETATM   21  O5  UNL     1      -6.123  23.686  -0.656  1.00  0.00    -0.246 OA
ENDBRANCH  12  13
ENDBRANCH   3  12
ENDBRANCH   2   3
ENDBRANCH   1   2
BRANCH   1  22
HETATM   22  O3  UNL     1      -9.053  26.889  -2.819  1.00  0.00    -0.365 OA
BRANCH  22  23
HETATM   23  C7  UNL     1      -8.538  26.795  -4.094  1.00  0.00     0.142 C 
BRANCH  23  24
HETATM   24  C8  UNL     1      -7.092  26.570  -4.048  1.00  0.00    -0.015 A 
HETATM   25  C9  UNL     1      -6.490  25.352  -4.232  1.00  0.00     0.011 A 
HETATM   26  C10 UNL     1      -5.122  25.233  -4.191  1.00  0.00     0.001 A 
HETATM   27  C11 UNL     1      -4.363  26.359  -3.963  1.00  0.00     0.000 A 
HETATM   28  C12 UNL     1      -4.921  27.598  -3.773  1.00  0.00     0.001 A 
HETATM   29  C13 UNL     1      -6.294  27.670  -3.822  1.00  0.00     0.011 A 
ENDBRANCH  23  24
BRANCH  23  30
HETATM   30  C14 UNL     1      -9.271  25.735  -4.823  1.00  0.00    -0.015 A 
HETATM   31  C15 UNL     1      -8.707  24.888  -5.746  1.00  0.00     0.011 A 
HETATM   32  C16 UNL     1      -9.473  23.923  -6.372  1.00  0.00     0.001 A 
HETATM   33  C17 UNL     1     -10.827  23.819  -6.058  1.00  0.00     0.000 A 
HETATM   34  C18 UNL     1     -11.417  24.654  -5.138  1.00  0.00     0.001 A 
HETATM   35  C19 UNL     1     -10.620  25.597  -4.539  1.00  0.00     0.011 A 
ENDBRANCH  23  30
BRANCH  23  36
HETATM   36  C20 UNL     1      -8.736  28.103  -4.807  1.00  0.00    -0.015 A 
HETATM   37  C21 UNL     1      -9.269  29.191  -4.151  1.00  0.00     0.011 A 
HETATM   38  C22 UNL     1      -9.418  30.361  -4.866  1.00  0.00     0.001 A 
HETATM   39  C23 UNL     1      -9.037  30.412  -6.201  1.00  0.00     0.000 A 
HETATM   40  C24 UNL     1      -8.505  29.311  -6.843  1.00  0.00     0.001 A 
HETATM   41  C25 UNL     1      -8.354  28.142  -6.132  1.00  0.00     0.011 A 
ENDBRANCH  23  36
ENDBRANCH  22  23
ENDBRANCH   1  22
TORSDOF 13
ENDMDL
