MODEL 15
REMARK VINA RESULT: -7.592972788      1.002      5.112
REMARK  13 active torsions:
REMARK  status: ('A' for Active; 'I' for Inactive)
REMARK       I    between atoms: C1_2  and  N1_3 
REMARK    1  A    between atoms: C1_2  and  C4_9 
REMARK    2  A    between atoms: N1_3  and  C2_5 
REMARK    3  A    between atoms: C2_5  and  C3_6 
REMARK    4  A    between atoms: C3_6  and  O2_7 
REMARK    5  A    between atoms: C4_9  and  C5_10 
REMARK    6  A    between atoms: C4_9  and  C26_32 
REMARK    7  A    between atoms: C5_10  and  C6_11 
REMARK    8  A    between atoms: C6_11  and  O3_12 
REMARK    9  A    between atoms: O3_12  and  C7_13 
REMARK   10  A    between atoms: C7_13  and  C8_14 
REMARK   11  A    between atoms: C7_13  and  C14_20 
REMARK   12  A    between atoms: C7_13  and  C20_26 
REMARK   13  A    between atoms: C26_32  and  N2_33 
ROOT
HETATM    1  C6  UNL     1      -9.079  25.680  -2.029  1.00  0.00     0.171 C 
ENDROOT
BRANCH   1   2
HETATM    2  C5  UNL     1      -8.256  24.752  -1.218  1.00  0.00     0.042 C 
BRANCH   2   3
HETATM    3  C4  UNL     1      -7.441  25.268  -0.112  1.00  0.00     0.098 C 
BRANCH   3   4
HETATM    4  C1  UNL     1      -6.016  24.812  -0.395  1.00  0.00     0.223 C 
HETATM    5  O1  UNL     1      -5.720  23.594  -0.467  1.00  0.00    -0.273 OA
HETATM    6  N1  UNL     1      -4.971  25.756  -0.585  1.00  0.00    -0.359 N 
ATOM      7  H1  UNL     1      -5.176  26.754  -0.532  1.00  0.00     0.162 HD
BRANCH   6   8
HETATM    8  C2  UNL     1      -3.620  25.316  -0.852  1.00  0.00     0.148 C 
BRANCH   8   9
HETATM    9  C3  UNL     1      -2.679  25.537   0.307  1.00  0.00     0.183 C 
BRANCH   9  10
HETATM   10  O2  UNL     1      -3.059  26.672   1.033  1.00  0.00    -0.399 OA
ATOM     11  H2  UNL     1      -2.874  26.551   1.956  1.00  0.00     0.209 HD
ENDBRANCH   9  10
ENDBRANCH   8   9
ENDBRANCH   6   8
ENDBRANCH   3   4
BRANCH   3  12
HETATM   12  C26 UNL     1      -7.446  26.751   0.117  1.00  0.00     0.147 C 
BRANCH  12  13
HETATM   13  N2  UNL     1      -7.866  27.235   1.380  1.00  0.00    -0.309 N 
HETATM   14  C27 UNL     1      -7.105  27.096   2.462  1.00  0.00     0.101 A 
HETATM   15  C28 UNL     1      -7.490  27.555   3.699  1.00  0.00     0.092 A 
HETATM   16  C29 UNL     1      -8.698  28.179   3.844  1.00  0.00     0.250 A 
HETATM   17  O4  UNL     1      -9.059  28.605   4.992  1.00  0.00    -0.268 OA
HETATM   18  N3  UNL     1      -9.457  28.316   2.751  1.00  0.00    -0.275 N 
HETATM   19  C30 UNL     1      -9.053  27.854   1.539  1.00  0.00     0.329 A 
ATOM     20  H3  UNL     1     -10.363  28.779   2.830  1.00  0.00     0.173 HD
HETATM   21  O5  UNL     1      -9.878  28.063   0.614  1.00  0.00    -0.246 OA
ENDBRANCH  12  13
ENDBRANCH   3  12
ENDBRANCH   2   3
ENDBRANCH   1   2
BRANCH   1  22
HETATM   22  O3  UNL     1      -8.979  25.485  -3.389  1.00  0.00    -0.365 OA
BRANCH  22  23
HETATM   23  C7  UNL     1      -8.560  26.566  -4.134  1.00  0.00     0.142 C 
BRANCH  23  24
HETATM   24  C8  UNL     1      -9.009  26.438  -5.522  1.00  0.00    -0.015 A 
HETATM   25  C9  UNL     1      -9.014  27.462  -6.433  1.00  0.00     0.011 A 
HETATM   26  C10 UNL     1      -9.434  27.250  -7.724  1.00  0.00     0.001 A 
HETATM   27  C11 UNL     1      -9.851  25.989  -8.089  1.00  0.00     0.000 A 
HETATM   28  C12 UNL     1      -9.863  24.934  -7.210  1.00  0.00     0.001 A 
HETATM   29  C13 UNL     1      -9.434  25.193  -5.930  1.00  0.00     0.011 A 
ENDBRANCH  23  24
BRANCH  23  30
HETATM   30  C14 UNL     1      -9.036  27.805  -3.478  1.00  0.00    -0.015 A 
HETATM   31  C15 UNL     1      -8.232  28.693  -2.806  1.00  0.00     0.011 A 
HETATM   32  C16 UNL     1      -8.768  29.828  -2.228  1.00  0.00     0.001 A 
HETATM   33  C17 UNL     1     -10.138  30.063  -2.334  1.00  0.00     0.000 A 
HETATM   34  C18 UNL     1     -10.967  29.190  -3.001  1.00  0.00     0.001 A 
HETATM   35  C19 UNL     1     -10.392  28.077  -3.560  1.00  0.00     0.011 A 
ENDBRANCH  23  30
BRANCH  23  36
HETATM   36  C20 UNL     1      -7.058  26.586  -4.179  1.00  0.00    -0.015 A 
HETATM   37  C21 UNL     1      -6.369  27.779  -4.218  1.00  0.00     0.011 A 
HETATM   38  C22 UNL     1      -4.991  27.721  -4.254  1.00  0.00     0.001 A 
HETATM   39  C23 UNL     1      -4.346  26.490  -4.251  1.00  0.00     0.000 A 
HETATM   40  C24 UNL     1      -5.054  25.305  -4.212  1.00  0.00     0.001 A 
HETATM   41  C25 UNL     1      -6.429  25.359  -4.176  1.00  0.00     0.011 A 
ENDBRANCH  23  36
ENDBRANCH  22  23
ENDBRANCH   1  22
TORSDOF 13
ENDMDL
