MODEL 2
REMARK VINA RESULT: -7.092676422      1.377      1.729
REMARK  9 active torsions:
REMARK  status: ('A' for Active; 'I' for Inactive)
REMARK       I    between atoms: C2_2  and  N1_4 
REMARK    1  A    between atoms: N1_4  and  C3_6 
REMARK    2  A    between atoms: C4_7  and  O2_8 
REMARK    3  A    between atoms: C6_11  and  C7_12 
REMARK    4  A    between atoms: C8_16  and  C9_17 
REMARK    5  A    between atoms: C9_17  and  O6_18 
REMARK    6  A    between atoms: C9_17  and  C10_20 
REMARK    7  A    between atoms: C10_20  and  O7_21 
REMARK    8  A    between atoms: C10_20  and  C11_23 
REMARK    9  A    between atoms: C11_23  and  O8_24 
ROOT
HETATM    1  C3  UNL     1      16.343 -18.904  41.424  1.00  0.00     0.149 C 
HETATM    2  C4  UNL     1      14.863 -18.756  41.665  1.00  0.00     0.169 C 
HETATM    3  C5  UNL     1      14.513 -19.591  42.833  1.00  0.00     0.050 C 
HETATM    4  C6  UNL     1      15.401 -19.836  43.772  1.00  0.00     0.144 C 
HETATM    5  O5  UNL     1      16.682 -19.335  43.716  1.00  0.00    -0.335 OA
HETATM    6  C8  UNL     1      17.158 -18.539  42.658  1.00  0.00     0.186 C 
ENDROOT
BRANCH   6   7
HETATM    7  C9  UNL     1      18.579 -18.816  42.300  1.00  0.00     0.180 C 
BRANCH   7   8
HETATM    8  O6  UNL     1      18.706 -20.070  41.729  1.00  0.00    -0.390 OA
ATOM      9  H6  UNL     1      19.163 -20.661  42.315  1.00  0.00     0.210 HD
ENDBRANCH   7   8
BRANCH   7  10
HETATM   10  C10 UNL     1      19.561 -18.616  43.398  1.00  0.00     0.173 C 
BRANCH  10  11
HETATM   11  O7  UNL     1      19.286 -19.601  44.378  1.00  0.00    -0.391 OA
ATOM     12  H7  UNL     1      18.924 -19.147  45.130  1.00  0.00     0.210 HD
ENDBRANCH  10  11
BRANCH  10  13
HETATM   13  C11 UNL     1      19.376 -17.285  44.112  1.00  0.00     0.198 C 
BRANCH  13  14
HETATM   14  O8  UNL     1      20.218 -17.206  45.217  1.00  0.00    -0.398 OA
ATOM     15  H8  UNL     1      20.667 -16.369  45.232  1.00  0.00     0.209 HD
ENDBRANCH  13  14
ENDBRANCH  10  13
ENDBRANCH   7  10
ENDBRANCH   6   7
BRANCH   1  16
HETATM   16  N1  UNL     1      16.723 -17.970  40.383  1.00  0.00    -0.351 N 
HETATM   17  C2  UNL     1      16.799 -18.312  39.010  1.00  0.00     0.214 C 
HETATM   18  C1  UNL     1      17.198 -17.304  37.971  1.00  0.00     0.117 C 
HETATM   19  O1  UNL     1      16.522 -19.486  38.675  1.00  0.00    -0.274 OA
ATOM     20  H1  UNL     1      16.948 -17.013  40.653  1.00  0.00     0.163 HD
ENDBRANCH   1  16
BRANCH   2  21
HETATM   21  O2  UNL     1      14.208 -19.275  40.549  1.00  0.00    -0.389 OA
ATOM     22  H2  UNL     1      13.962 -18.541  39.999  1.00  0.00     0.210 HD
ENDBRANCH   2  21
BRANCH   4  23
HETATM   23  C7  UNL     1      14.990 -20.677  44.914  1.00  0.00     0.233 C 
HETATM   24  O3  UNL     1      13.814 -20.717  45.306  1.00  0.00    -0.642 OA
HETATM   25  O4  UNL     1      15.923 -21.459  45.587  1.00  0.00    -0.642 OA
ENDBRANCH   4  23
TORSDOF 9
ENDMDL
