MODEL 5
REMARK VINA RESULT: -6.286444500      1.768      4.482
REMARK  9 active torsions:
REMARK  status: ('A' for Active; 'I' for Inactive)
REMARK       I    between atoms: C2_2  and  N1_4 
REMARK    1  A    between atoms: N1_4  and  C3_6 
REMARK    2  A    between atoms: C4_7  and  O2_8 
REMARK    3  A    between atoms: C6_11  and  C7_12 
REMARK    4  A    between atoms: C8_16  and  C9_17 
REMARK    5  A    between atoms: C9_17  and  O6_18 
REMARK    6  A    between atoms: C9_17  and  C10_20 
REMARK    7  A    between atoms: C10_20  and  O7_21 
REMARK    8  A    between atoms: C10_20  and  C11_23 
REMARK    9  A    between atoms: C11_23  and  O8_24 
ROOT
HETATM    1  C3  UNL     1      17.899 -18.352  40.688  1.00  0.00     0.149 C 
HETATM    2  C4  UNL     1      19.353 -18.743  40.700  1.00  0.00     0.169 C 
HETATM    3  C5  UNL     1      19.849 -18.587  42.084  1.00  0.00     0.050 C 
HETATM    4  C6  UNL     1      19.032 -18.720  43.106  1.00  0.00     0.144 C 
HETATM    5  O5  UNL     1      17.696 -19.005  42.943  1.00  0.00    -0.335 OA
HETATM    6  C8  UNL     1      17.084 -19.165  41.687  1.00  0.00     0.186 C 
ENDROOT
BRANCH   6   7
HETATM    7  C9  UNL     1      15.700 -18.612  41.625  1.00  0.00     0.180 C 
BRANCH   7   8
HETATM    8  O6  UNL     1      15.724 -17.228  41.637  1.00  0.00    -0.390 OA
ATOM      9  H6  UNL     1      15.532 -16.896  42.505  1.00  0.00     0.210 HD
ENDBRANCH   7   8
BRANCH   7  10
HETATM   10  C10 UNL     1      14.757 -19.148  42.641  1.00  0.00     0.173 C 
BRANCH  10  11
HETATM   11  O7  UNL     1      15.013 -20.536  42.746  1.00  0.00    -0.391 OA
ATOM     12  H7  UNL     1      14.178 -20.978  42.657  1.00  0.00     0.210 HD
ENDBRANCH  10  11
BRANCH  10  13
HETATM   13  C11 UNL     1      13.303 -19.047  42.199  1.00  0.00     0.198 C 
BRANCH  13  14
HETATM   14  O8  UNL     1      13.229 -18.719  40.848  1.00  0.00    -0.398 OA
ATOM     15  H8  UNL     1      12.322 -18.679  40.567  1.00  0.00     0.209 HD
ENDBRANCH  13  14
ENDBRANCH  10  13
ENDBRANCH   7  10
ENDBRANCH   6   7
BRANCH   1  16
HETATM   16  N1  UNL     1      17.365 -18.650  39.375  1.00  0.00    -0.351 N 
HETATM   17  C2  UNL     1      17.166 -17.674  38.367  1.00  0.00     0.214 C 
HETATM   18  C1  UNL     1      16.609 -18.039  37.020  1.00  0.00     0.117 C 
HETATM   19  O1  UNL     1      17.469 -16.488  38.623  1.00  0.00    -0.274 OA
ATOM     20  H1  UNL     1      17.118 -19.617  39.163  1.00  0.00     0.163 HD
ENDBRANCH   1  16
BRANCH   2  21
HETATM   21  O2  UNL     1      20.033 -17.833  39.891  1.00  0.00    -0.389 OA
ATOM     22  H2  UNL     1      20.952 -18.073  39.907  1.00  0.00     0.210 HD
ENDBRANCH   2  21
BRANCH   4  23
HETATM   23  C7  UNL     1      19.588 -18.552  44.464  1.00  0.00     0.233 C 
HETATM   24  O3  UNL     1      20.010 -19.516  45.120  1.00  0.00    -0.642 OA
HETATM   25  O4  UNL     1      19.654 -17.293  45.050  1.00  0.00    -0.642 OA
ENDBRANCH   4  23
TORSDOF 9
ENDMDL
