MODEL 4
REMARK VINA RESULT: -6.361653237      2.088      4.963
REMARK  9 active torsions:
REMARK  status: ('A' for Active; 'I' for Inactive)
REMARK       I    between atoms: C2_2  and  N1_4 
REMARK    1  A    between atoms: N1_4  and  C3_6 
REMARK    2  A    between atoms: C4_7  and  O2_8 
REMARK    3  A    between atoms: C6_11  and  C7_12 
REMARK    4  A    between atoms: C8_16  and  C9_17 
REMARK    5  A    between atoms: C9_17  and  O6_18 
REMARK    6  A    between atoms: C9_17  and  C10_20 
REMARK    7  A    between atoms: C10_20  and  O7_21 
REMARK    8  A    between atoms: C10_20  and  C11_23 
REMARK    9  A    between atoms: C11_23  and  O8_24 
ROOT
HETATM    1  C3  UNL     1      17.531 -19.644  41.917  1.00  0.00     0.149 C 
HETATM    2  C4  UNL     1      18.611 -19.603  40.866  1.00  0.00     0.169 C 
HETATM    3  C5  UNL     1      19.912 -19.738  41.554  1.00  0.00     0.050 C 
HETATM    4  C6  UNL     1      20.003 -20.390  42.693  1.00  0.00     0.144 C 
HETATM    5  O5  UNL     1      18.910 -20.972  43.293  1.00  0.00    -0.335 OA
HETATM    6  C8  UNL     1      17.609 -20.911  42.761  1.00  0.00     0.186 C 
ENDROOT
BRANCH   6   7
HETATM    7  C9  UNL     1      16.547 -20.770  43.799  1.00  0.00     0.180 C 
BRANCH   7   8
HETATM    8  O6  UNL     1      16.726 -19.607  44.528  1.00  0.00    -0.390 OA
ATOM      9  H6  UNL     1      17.643 -19.482  44.742  1.00  0.00     0.210 HD
ENDBRANCH   7   8
BRANCH   7  10
HETATM   10  C10 UNL     1      16.371 -21.948  44.689  1.00  0.00     0.173 C 
BRANCH  10  11
HETATM   11  O7  UNL     1      16.675 -23.095  43.917  1.00  0.00    -0.391 OA
ATOM     12  H7  UNL     1      15.876 -23.345  43.469  1.00  0.00     0.210 HD
ENDBRANCH  10  11
BRANCH  10  13
HETATM   13  C11 UNL     1      14.925 -22.137  45.126  1.00  0.00     0.198 C 
BRANCH  13  14
HETATM   14  O8  UNL     1      14.320 -20.904  45.349  1.00  0.00    -0.398 OA
ATOM     15  H8  UNL     1      13.906 -20.887  46.203  1.00  0.00     0.209 HD
ENDBRANCH  13  14
ENDBRANCH  10  13
ENDBRANCH   7  10
ENDBRANCH   6   7
BRANCH   1  16
HETATM   16  N1  UNL     1      16.250 -19.672  41.242  1.00  0.00    -0.351 N 
HETATM   17  C2  UNL     1      15.212 -18.740  41.489  1.00  0.00     0.214 C 
HETATM   18  C1  UNL     1      13.900 -18.814  40.759  1.00  0.00     0.117 C 
HETATM   19  O1  UNL     1      15.411 -17.842  42.337  1.00  0.00    -0.274 OA
ATOM     20  H1  UNL     1      16.086 -20.402  40.549  1.00  0.00     0.163 HD
ENDBRANCH   1  16
BRANCH   2  21
HETATM   21  O2  UNL     1      18.563 -18.342  40.273  1.00  0.00    -0.389 OA
ATOM     22  H2  UNL     1      18.079 -18.431  39.461  1.00  0.00     0.210 HD
ENDBRANCH   2  21
BRANCH   4  23
HETATM   23  C7  UNL     1      21.331 -20.490  43.331  1.00  0.00     0.233 C 
HETATM   24  O3  UNL     1      21.652 -19.769  44.288  1.00  0.00    -0.642 OA
HETATM   25  O4  UNL     1      22.269 -21.408  42.871  1.00  0.00    -0.642 OA
ENDBRANCH   4  23
TORSDOF 9
ENDMDL
