MODEL 1
REMARK VINA RESULT: -7.340661651      0.000      0.000
REMARK  9 active torsions:
REMARK  status: ('A' for Active; 'I' for Inactive)
REMARK       I    between atoms: C2_2  and  N1_4 
REMARK    1  A    between atoms: N1_4  and  C3_6 
REMARK    2  A    between atoms: C4_7  and  O2_8 
REMARK    3  A    between atoms: C6_11  and  C7_12 
REMARK    4  A    between atoms: C8_16  and  C9_17 
REMARK    5  A    between atoms: C9_17  and  O6_18 
REMARK    6  A    between atoms: C9_17  and  C10_20 
REMARK    7  A    between atoms: C10_20  and  O7_21 
REMARK    8  A    between atoms: C10_20  and  C11_23 
REMARK    9  A    between atoms: C11_23  and  O8_24 
ROOT
HETATM    1  C3  UNL     1      15.848 -18.862  40.777  1.00  0.00     0.149 C 
HETATM    2  C4  UNL     1      14.445 -18.611  41.265  1.00  0.00     0.169 C 
HETATM    3  C5  UNL     1      14.255 -19.391  42.506  1.00  0.00     0.050 C 
HETATM    4  C6  UNL     1      15.278 -19.669  43.285  1.00  0.00     0.144 C 
HETATM    5  O5  UNL     1      16.556 -19.255  42.990  1.00  0.00    -0.335 OA
HETATM    6  C8  UNL     1      16.888 -18.519  41.838  1.00  0.00     0.186 C 
ENDROOT
BRANCH   6   7
HETATM    7  C9  UNL     1      18.205 -18.897  41.249  1.00  0.00     0.180 C 
BRANCH   7   8
HETATM    8  O6  UNL     1      18.136 -20.145  40.654  1.00  0.00    -0.390 OA
ATOM      9  H6  UNL     1      17.239 -20.362  40.432  1.00  0.00     0.210 HD
ENDBRANCH   7   8
BRANCH   7  10
HETATM   10  C10 UNL     1      19.364 -18.798  42.174  1.00  0.00     0.173 C 
BRANCH  10  11
HETATM   11  O7  UNL     1      20.370 -18.069  41.496  1.00  0.00    -0.391 OA
ATOM     12  H7  UNL     1      20.312 -17.172  41.799  1.00  0.00     0.210 HD
ENDBRANCH  10  11
BRANCH  10  13
HETATM   13  C11 UNL     1      19.990 -20.153  42.473  1.00  0.00     0.198 C 
BRANCH  13  14
HETATM   14  O8  UNL     1      19.125 -20.930  43.238  1.00  0.00    -0.398 OA
ATOM     15  H8  UNL     1      18.501 -21.378  42.680  1.00  0.00     0.209 HD
ENDBRANCH  13  14
ENDBRANCH  10  13
ENDBRANCH   7  10
ENDBRANCH   6   7
BRANCH   1  16
HETATM   16  N1  UNL     1      16.095 -17.983  39.653  1.00  0.00    -0.351 N 
HETATM   17  C2  UNL     1      16.352 -18.442  38.337  1.00  0.00     0.214 C 
HETATM   18  C1  UNL     1      16.602 -17.486  37.206  1.00  0.00     0.117 C 
HETATM   19  O1  UNL     1      16.365 -19.677  38.132  1.00  0.00    -0.274 OA
ATOM     20  H1  UNL     1      16.085 -16.976  39.817  1.00  0.00     0.163 HD
ENDBRANCH   1  16
BRANCH   2  21
HETATM   21  O2  UNL     1      13.575 -19.116  40.299  1.00  0.00    -0.389 OA
ATOM     22  H2  UNL     1      12.716 -18.753  40.476  1.00  0.00     0.210 HD
ENDBRANCH   2  21
BRANCH   4  23
HETATM   23  C7  UNL     1      15.024 -20.452  44.512  1.00  0.00     0.233 C 
HETATM   24  O3  UNL     1      15.411 -20.066  45.625  1.00  0.00    -0.642 OA
HETATM   25  O4  UNL     1      14.334 -21.657  44.450  1.00  0.00    -0.642 OA
ENDBRANCH   4  23
TORSDOF 9
ENDMDL
