MODEL 6
REMARK VINA RESULT: -6.256577330      1.937      4.759
REMARK  9 active torsions:
REMARK  status: ('A' for Active; 'I' for Inactive)
REMARK       I    between atoms: C2_2  and  N1_4 
REMARK    1  A    between atoms: N1_4  and  C3_6 
REMARK    2  A    between atoms: C4_7  and  O2_8 
REMARK    3  A    between atoms: C6_11  and  C7_12 
REMARK    4  A    between atoms: C8_16  and  C9_17 
REMARK    5  A    between atoms: C9_17  and  O6_18 
REMARK    6  A    between atoms: C9_17  and  C10_20 
REMARK    7  A    between atoms: C10_20  and  O7_21 
REMARK    8  A    between atoms: C10_20  and  C11_23 
REMARK    9  A    between atoms: C11_23  and  O8_24 
ROOT
HETATM    1  C3  UNL     1      16.886 -19.620  42.010  1.00  0.00     0.149 C 
HETATM    2  C4  UNL     1      15.631 -19.491  41.188  1.00  0.00     0.169 C 
HETATM    3  C5  UNL     1      15.890 -18.494  40.127  1.00  0.00     0.050 C 
HETATM    4  C6  UNL     1      17.107 -18.309  39.665  1.00  0.00     0.144 C 
HETATM    5  O5  UNL     1      18.185 -19.021  40.137  1.00  0.00    -0.335 OA
HETATM    6  C8  UNL     1      18.091 -19.990  41.153  1.00  0.00     0.186 C 
ENDROOT
BRANCH   6   7
HETATM    7  C9  UNL     1      19.260 -19.995  42.080  1.00  0.00     0.180 C 
BRANCH   7   8
HETATM    8  O6  UNL     1      19.288 -21.160  42.826  1.00  0.00    -0.390 OA
ATOM      9  H6  UNL     1      18.448 -21.603  42.790  1.00  0.00     0.210 HD
ENDBRANCH   7   8
BRANCH   7  10
HETATM   10  C10 UNL     1      19.389 -18.792  42.944  1.00  0.00     0.173 C 
BRANCH  10  11
HETATM   11  O7  UNL     1      20.239 -17.888  42.264  1.00  0.00    -0.391 OA
ATOM     12  H7  UNL     1      20.544 -18.332  41.482  1.00  0.00     0.210 HD
ENDBRANCH  10  11
BRANCH  10  13
HETATM   13  C11 UNL     1      20.097 -19.090  44.258  1.00  0.00     0.198 C 
BRANCH  13  14
HETATM   14  O8  UNL     1      21.441 -19.373  44.031  1.00  0.00    -0.398 OA
ATOM     15  H8  UNL     1      21.878 -18.620  43.651  1.00  0.00     0.209 HD
ENDBRANCH  13  14
ENDBRANCH  10  13
ENDBRANCH   7  10
ENDBRANCH   6   7
BRANCH   1  16
HETATM   16  N1  UNL     1      16.696 -20.705  42.951  1.00  0.00    -0.351 N 
HETATM   17  C2  UNL     1      16.373 -20.513  44.317  1.00  0.00     0.214 C 
HETATM   18  C1  UNL     1      16.186 -21.676  45.250  1.00  0.00     0.117 C 
HETATM   19  O1  UNL     1      16.244 -19.342  44.737  1.00  0.00    -0.274 OA
ATOM     20  H1  UNL     1      16.800 -21.661  42.611  1.00  0.00     0.163 HD
ENDBRANCH   1  16
BRANCH   2  21
HETATM   21  O2  UNL     1      14.638 -18.985  42.025  1.00  0.00    -0.389 OA
ATOM     22  H2  UNL     1      13.841 -18.920  41.511  1.00  0.00     0.210 HD
ENDBRANCH   2  21
BRANCH   4  23
HETATM   23  C7  UNL     1      17.301 -17.298  38.606  1.00  0.00     0.233 C 
HETATM   24  O3  UNL     1      17.379 -16.088  38.864  1.00  0.00    -0.642 OA
HETATM   25  O4  UNL     1      17.402 -17.682  37.273  1.00  0.00    -0.642 OA
ENDBRANCH   4  23
TORSDOF 9
ENDMDL
