MODEL 3
REMARK VINA RESULT: -6.157891242      3.272      5.910
REMARK  9 active torsions:
REMARK  status: ('A' for Active; 'I' for Inactive)
REMARK       I    between atoms: C2_2  and  N1_4 
REMARK    1  A    between atoms: N1_4  and  C3_6 
REMARK    2  A    between atoms: C4_7  and  N2_8 
REMARK    3  A    between atoms: C7_14  and  C8_15 
REMARK    4  A    between atoms: C9_19  and  C10_20 
REMARK    5  A    between atoms: C10_20  and  O5_21 
REMARK    6  A    between atoms: C10_20  and  C11_23 
REMARK    7  A    between atoms: C11_23  and  O6_24 
REMARK    8  A    between atoms: C11_23  and  C12_26 
REMARK    9  A    between atoms: C12_26  and  O7_27 
ROOT
HETATM    1  C3  UNL     1      18.773 -32.504  19.704  1.00  0.00     0.143 C 
HETATM    2  C4  UNL     1      19.063 -33.678  18.793  1.00  0.00     0.135 C 
HETATM    3  C6  UNL     1      20.394 -33.607  18.186  1.00  0.00     0.044 C 
HETATM    4  C7  UNL     1      21.003 -32.461  17.889  1.00  0.00     0.144 C 
HETATM    5  O4  UNL     1      20.296 -31.321  18.192  1.00  0.00    -0.335 OA
HETATM    6  C9  UNL     1      19.494 -31.247  19.332  1.00  0.00     0.185 C 
ENDROOT
BRANCH   6   7
HETATM    7  C10 UNL     1      18.615 -30.055  19.395  1.00  0.00     0.180 C 
BRANCH   7   8
HETATM    8  O5  UNL     1      17.358 -30.393  18.889  1.00  0.00    -0.390 OA
ATOM      9  H5  UNL     1      17.198 -29.887  18.100  1.00  0.00     0.210 HD
ENDBRANCH   7   8
BRANCH   7  10
HETATM   10  C11 UNL     1      19.122 -28.773  18.857  1.00  0.00     0.173 C 
BRANCH  10  11
HETATM   11  O6  UNL     1      19.604 -28.772  17.580  1.00  0.00    -0.391 OA
ATOM     12  H6  UNL     1      19.557 -29.587  17.094  1.00  0.00     0.210 HD
ENDBRANCH  10  11
BRANCH  10  13
HETATM   13  C12 UNL     1      20.023 -28.043  19.837  1.00  0.00     0.198 C 
BRANCH  13  14
HETATM   14  O7  UNL     1      21.136 -27.478  19.215  1.00  0.00    -0.398 OA
ATOM     15  H7  UNL     1      21.953 -27.835  19.541  1.00  0.00     0.209 HD
ENDBRANCH  13  14
ENDBRANCH  10  13
ENDBRANCH   7  10
ENDBRANCH   6   7
BRANCH   1  16
HETATM   16  N1  UNL     1      19.085 -32.867  21.084  1.00  0.00    -0.352 N 
HETATM   17  C2  UNL     1      18.049 -33.024  22.037  1.00  0.00     0.214 C 
HETATM   18  C1  UNL     1      18.396 -33.395  23.445  1.00  0.00     0.117 C 
HETATM   19  O1  UNL     1      16.870 -32.860  21.724  1.00  0.00    -0.274 OA
ATOM     20  H1  UNL     1      20.055 -33.009  21.364  1.00  0.00     0.163 HD
ENDBRANCH   1  16
BRANCH   2  21
HETATM   21  N2  UNL     1      18.028 -33.886  17.807  1.00  0.00    -0.357 N 
HETATM   22  C5  UNL     1      17.983 -34.856  16.995  1.00  0.00     0.197 C 
HETATM   23  N3  UNL     1      16.930 -34.974  16.065  1.00  0.00    -0.067 NA
HETATM   24  N4  UNL     1      18.991 -35.842  17.012  1.00  0.00    -0.067 NA
ATOM     25  H2  UNL     1      17.277 -33.198  17.761  1.00  0.00     0.162 HD
ENDBRANCH   2  21
BRANCH   4  26
HETATM   26  C8  UNL     1      22.334 -32.467  17.283  1.00  0.00     0.233 C 
HETATM   27  O2  UNL     1      23.020 -33.504  17.166  1.00  0.00    -0.642 OA
HETATM   28  O3  UNL     1      22.873 -31.281  16.813  1.00  0.00    -0.642 OA
ENDBRANCH   4  26
TORSDOF 9
ENDMDL
