MODEL 1
REMARK VINA RESULT: -6.405063113      0.000      0.000
REMARK  9 active torsions:
REMARK  status: ('A' for Active; 'I' for Inactive)
REMARK       I    between atoms: C2_2  and  N1_4 
REMARK    1  A    between atoms: N1_4  and  C3_6 
REMARK    2  A    between atoms: C4_7  and  N2_8 
REMARK    3  A    between atoms: C7_14  and  C8_15 
REMARK    4  A    between atoms: C9_19  and  C10_20 
REMARK    5  A    between atoms: C10_20  and  O5_21 
REMARK    6  A    between atoms: C10_20  and  C11_23 
REMARK    7  A    between atoms: C11_23  and  O6_24 
REMARK    8  A    between atoms: C11_23  and  C12_26 
REMARK    9  A    between atoms: C12_26  and  O7_27 
ROOT
HETATM    1  C3  UNL     1      20.845 -33.777  17.766  1.00  0.00     0.143 C 
HETATM    2  C4  UNL     1      21.220 -32.339  18.054  1.00  0.00     0.135 C 
HETATM    3  C6  UNL     1      21.075 -31.989  19.469  1.00  0.00     0.044 C 
HETATM    4  C7  UNL     1      20.160 -32.536  20.268  1.00  0.00     0.144 C 
HETATM    5  O4  UNL     1      19.342 -33.469  19.677  1.00  0.00    -0.335 OA
HETATM    6  C9  UNL     1      19.826 -34.344  18.703  1.00  0.00     0.185 C 
ENDROOT
BRANCH   6   7
HETATM    7  C10 UNL     1      18.781 -35.120  17.992  1.00  0.00     0.180 C 
BRANCH   7   8
HETATM    8  O5  UNL     1      19.319 -36.346  17.594  1.00  0.00    -0.390 OA
ATOM      9  H5  UNL     1      19.045 -37.016  18.209  1.00  0.00     0.210 HD
ENDBRANCH   7   8
BRANCH   7  10
HETATM   10  C11 UNL     1      18.017 -34.454  16.914  1.00  0.00     0.173 C 
BRANCH  10  11
HETATM   11  O6  UNL     1      17.685 -33.143  17.094  1.00  0.00    -0.391 OA
ATOM     12  H6  UNL     1      17.565 -32.610  16.316  1.00  0.00     0.210 HD
ENDBRANCH  10  11
BRANCH  10  13
HETATM   13  C12 UNL     1      16.862 -35.300  16.407  1.00  0.00     0.198 C 
BRANCH  13  14
HETATM   14  O7  UNL     1      17.246 -36.162  15.380  1.00  0.00    -0.398 OA
ATOM     15  H7  UNL     1      16.532 -36.356  14.785  1.00  0.00     0.209 HD
ENDBRANCH  13  14
ENDBRANCH  10  13
ENDBRANCH   7  10
ENDBRANCH   6   7
BRANCH   1  16
HETATM   16  N1  UNL     1      22.048 -34.607  17.778  1.00  0.00    -0.352 N 
HETATM   17  C2  UNL     1      22.345 -35.454  16.683  1.00  0.00     0.214 C 
HETATM   18  C1  UNL     1      23.583 -36.296  16.721  1.00  0.00     0.117 C 
HETATM   19  O1  UNL     1      21.603 -35.510  15.703  1.00  0.00    -0.274 OA
ATOM     20  H1  UNL     1      22.677 -34.576  18.580  1.00  0.00     0.163 HD
ENDBRANCH   1  16
BRANCH   2  21
HETATM   21  N2  UNL     1      20.536 -31.402  17.192  1.00  0.00    -0.357 N 
HETATM   22  C5  UNL     1      21.103 -30.527  16.476  1.00  0.00     0.197 C 
HETATM   23  N3  UNL     1      20.349 -29.655  15.665  1.00  0.00    -0.067 NA
HETATM   24  N4  UNL     1      22.508 -30.413  16.476  1.00  0.00    -0.067 NA
ATOM     25  H2  UNL     1      19.518 -31.451  17.159  1.00  0.00     0.162 HD
ENDBRANCH   2  21
BRANCH   4  26
HETATM   26  C8  UNL     1      20.074 -32.137  21.673  1.00  0.00     0.233 C 
HETATM   27  O2  UNL     1      21.064 -32.112  22.432  1.00  0.00    -0.642 OA
HETATM   28  O3  UNL     1      18.848 -31.767  22.201  1.00  0.00    -0.642 OA
ENDBRANCH   4  26
TORSDOF 9
ENDMDL
