MODEL 2
REMARK VINA RESULT: -6.350670090      3.021      5.649
REMARK  9 active torsions:
REMARK  status: ('A' for Active; 'I' for Inactive)
REMARK       I    between atoms: C2_2  and  N1_4 
REMARK    1  A    between atoms: N1_4  and  C3_6 
REMARK    2  A    between atoms: C4_7  and  N2_8 
REMARK    3  A    between atoms: C7_14  and  C8_15 
REMARK    4  A    between atoms: C9_19  and  C10_20 
REMARK    5  A    between atoms: C10_20  and  O5_21 
REMARK    6  A    between atoms: C10_20  and  C11_23 
REMARK    7  A    between atoms: C11_23  and  O6_24 
REMARK    8  A    between atoms: C11_23  and  C12_26 
REMARK    9  A    between atoms: C12_26  and  O7_27 
ROOT
HETATM    1  C3  UNL     1      20.056 -32.445  18.389  1.00  0.00     0.143 C 
HETATM    2  C4  UNL     1      20.537 -33.783  17.866  1.00  0.00     0.135 C 
HETATM    3  C6  UNL     1      21.955 -33.770  17.500  1.00  0.00     0.044 C 
HETATM    4  C7  UNL     1      22.582 -32.691  17.036  1.00  0.00     0.144 C 
HETATM    5  O4  UNL     1      21.805 -31.563  16.917  1.00  0.00    -0.335 OA
HETATM    6  C9  UNL     1      20.804 -31.270  17.845  1.00  0.00     0.185 C 
ENDROOT
BRANCH   6   7
HETATM    7  C10 UNL     1      19.901 -30.161  17.454  1.00  0.00     0.180 C 
BRANCH   7   8
HETATM    8  O5  UNL     1      20.251 -29.722  16.175  1.00  0.00    -0.390 OA
ATOM      9  H5  UNL     1      21.177 -29.885  16.036  1.00  0.00     0.210 HD
ENDBRANCH   7   8
BRANCH   7  10
HETATM   10  C11 UNL     1      19.698 -29.045  18.405  1.00  0.00     0.173 C 
BRANCH  10  11
HETATM   11  O6  UNL     1      20.810 -28.464  18.941  1.00  0.00    -0.391 OA
ATOM     12  H6  UNL     1      20.916 -28.508  19.884  1.00  0.00     0.210 HD
ENDBRANCH  10  11
BRANCH  10  13
HETATM   13  C12 UNL     1      18.623 -29.344  19.434  1.00  0.00     0.198 C 
BRANCH  13  14
HETATM   14  O7  UNL     1      17.484 -29.913  18.864  1.00  0.00    -0.398 OA
ATOM     15  H7  UNL     1      16.903 -30.289  19.514  1.00  0.00     0.209 HD
ENDBRANCH  13  14
ENDBRANCH  10  13
ENDBRANCH   7  10
ENDBRANCH   6   7
BRANCH   1  16
HETATM   16  N1  UNL     1      20.116 -32.441  19.849  1.00  0.00    -0.352 N 
HETATM   17  C2  UNL     1      18.933 -32.570  20.615  1.00  0.00     0.214 C 
HETATM   18  C1  UNL     1      19.021 -32.561  22.110  1.00  0.00     0.117 C 
HETATM   19  O1  UNL     1      17.834 -32.688  20.073  1.00  0.00    -0.274 OA
ATOM     20  H1  UNL     1      21.016 -32.346  20.319  1.00  0.00     0.163 HD
ENDBRANCH   1  16
BRANCH   2  21
HETATM   21  N2  UNL     1      19.708 -34.294  16.799  1.00  0.00    -0.357 N 
HETATM   22  C5  UNL     1      18.731 -35.083  16.953  1.00  0.00     0.197 C 
HETATM   23  N3  UNL     1      17.978 -35.528  15.847  1.00  0.00    -0.067 NA
HETATM   24  N4  UNL     1      18.375 -35.527  18.242  1.00  0.00    -0.067 NA
ATOM     25  H2  UNL     1      19.927 -33.995  15.849  1.00  0.00     0.162 HD
ENDBRANCH   2  21
BRANCH   4  26
HETATM   26  C8  UNL     1      24.002 -32.752  16.691  1.00  0.00     0.233 C 
HETATM   27  O2  UNL     1      24.669 -31.743  16.386  1.00  0.00    -0.642 OA
HETATM   28  O3  UNL     1      24.651 -33.976  16.699  1.00  0.00    -0.642 OA
ENDBRANCH   4  26
TORSDOF 9
ENDMDL
