MODEL 5
REMARK VINA RESULT: -6.184862577      2.348      4.854
REMARK  7 active torsions:
REMARK  status: ('A' for Active; 'I' for Inactive)
REMARK    1  A    between atoms: C2_2  and  C3_3 
REMARK    2  A    between atoms: C3_3  and  C4_4 
REMARK    3  A    between atoms: C3_3  and  O1_6 
REMARK    4  A    between atoms: O1_6  and  C6_7 
REMARK    5  A    between atoms: C8_9  and  C9_10 
REMARK    6  A    between atoms: C11_14  and  N1_15 
REMARK    7  A    between atoms: C12_19  and  N2_20 
REMARK       I    between atoms: N2_20  and  C13_22 
ROOT
HETATM    1  C6  UNL     1      17.935 -19.731  41.150  1.00  0.00     0.170 C 
HETATM    2  C7  UNL     1      17.164 -20.721  41.938  1.00  0.00     0.021 C 
HETATM    3  C8  UNL     1      16.161 -20.244  42.629  1.00  0.00     0.019 C 
HETATM    4  C10 UNL     1      15.945 -18.779  42.532  1.00  0.00     0.080 C 
HETATM    5  C11 UNL     1      16.007 -18.232  41.131  1.00  0.00     0.213 C 
HETATM    6  C12 UNL     1      16.918 -19.025  40.284  1.00  0.00     0.147 C 
ENDROOT
BRANCH   1   7
HETATM    7  O1  UNL     1      18.970 -20.299  40.470  1.00  0.00    -0.375 OA
BRANCH   7   8
HETATM    8  C3  UNL     1      20.121 -20.230  41.244  1.00  0.00     0.121 C 
BRANCH   8   9
HETATM    9  C2  UNL     1      21.155 -21.256  40.784  1.00  0.00     0.027 C 
HETATM   10  C1  UNL     1      22.122 -21.590  41.896  1.00  0.00     0.007 C 
ENDBRANCH   8   9
BRANCH   8  11
HETATM   11  C4  UNL     1      20.741 -18.857  41.207  1.00  0.00     0.027 C 
HETATM   12  C5  UNL     1      20.896 -18.373  39.782  1.00  0.00     0.007 C 
ENDBRANCH   8  11
ENDBRANCH   7   8
ENDBRANCH   1   7
BRANCH   6  13
HETATM   13  N2  UNL     1      17.479 -18.367  39.160  1.00  0.00    -0.352 N 
HETATM   14  C13 UNL     1      17.573 -18.973  37.882  1.00  0.00     0.214 C 
HETATM   15  C14 UNL     1      18.172 -18.234  36.733  1.00  0.00     0.117 C 
HETATM   16  O4  UNL     1      17.127 -20.142  37.791  1.00  0.00    -0.274 OA
ATOM     17  H2  UNL     1      17.829 -17.416  39.276  1.00  0.00     0.163 HD
ENDBRANCH   6  13
BRANCH   3  18
HETATM   18  C9  UNL     1      15.331 -21.103  43.438  1.00  0.00     0.205 C 
HETATM   19  O2  UNL     1      15.357 -22.346  43.309  1.00  0.00    -0.644 OA
HETATM   20  O3  UNL     1      14.478 -20.527  44.386  1.00  0.00    -0.644 OA
ENDBRANCH   3  18
BRANCH   5  21
HETATM   21  N1  UNL     1      14.615 -18.267  40.642  1.00  0.00    -0.073 N 
ATOM     22  H13 UNL     1      14.523 -18.611  39.687  1.00  0.00     0.274 HD
ATOM     23  H12 UNL     1      14.042 -18.986  41.082  1.00  0.00     0.274 HD
ATOM     24  H11 UNL     1      14.263 -17.319  40.775  1.00  0.00     0.274 HD
ENDBRANCH   5  21
TORSDOF 7
ENDMDL
