MODEL 2
REMARK VINA RESULT: -6.268175140      2.312      4.222
REMARK  7 active torsions:
REMARK  status: ('A' for Active; 'I' for Inactive)
REMARK    1  A    between atoms: C2_2  and  C3_3 
REMARK    2  A    between atoms: C3_3  and  C4_4 
REMARK    3  A    between atoms: C3_3  and  O1_6 
REMARK    4  A    between atoms: O1_6  and  C6_7 
REMARK    5  A    between atoms: C8_9  and  C9_10 
REMARK    6  A    between atoms: C11_14  and  N1_15 
REMARK    7  A    between atoms: C12_19  and  N2_20 
REMARK       I    between atoms: N2_20  and  C13_22 
ROOT
HETATM    1  C6  UNL     1      18.124 -20.005  40.760  1.00  0.00     0.170 C 
HETATM    2  C7  UNL     1      17.532 -20.574  41.992  1.00  0.00     0.021 C 
HETATM    3  C8  UNL     1      16.773 -19.767  42.687  1.00  0.00     0.019 C 
HETATM    4  C10 UNL     1      16.621 -18.394  42.147  1.00  0.00     0.080 C 
HETATM    5  C11 UNL     1      16.346 -18.333  40.669  1.00  0.00     0.213 C 
HETATM    6  C12 UNL     1      16.957 -19.474  39.960  1.00  0.00     0.147 C 
ENDROOT
BRANCH   1   7
HETATM    7  O1  UNL     1      18.911 -20.898  40.099  1.00  0.00    -0.375 OA
BRANCH   7   8
HETATM    8  C3  UNL     1      20.227 -20.452  40.115  1.00  0.00     0.121 C 
BRANCH   8   9
HETATM    9  C2  UNL     1      20.326 -19.056  40.729  1.00  0.00     0.027 C 
HETATM   10  C1  UNL     1      21.038 -18.102  39.798  1.00  0.00     0.007 C 
ENDBRANCH   8   9
BRANCH   8  11
HETATM   11  C4  UNL     1      21.129 -21.388  40.874  1.00  0.00     0.027 C 
HETATM   12  C5  UNL     1      21.604 -20.754  42.163  1.00  0.00     0.007 C 
ENDBRANCH   8  11
ENDBRANCH   7   8
ENDBRANCH   1   7
BRANCH   6  13
HETATM   13  N2  UNL     1      17.240 -19.291  38.583  1.00  0.00    -0.352 N 
HETATM   14  C13 UNL     1      17.765 -18.083  38.060  1.00  0.00     0.214 C 
HETATM   15  C14 UNL     1      18.044 -17.944  36.602  1.00  0.00     0.117 C 
HETATM   16  O4  UNL     1      17.971 -17.165  38.890  1.00  0.00    -0.274 OA
ATOM     17  H2  UNL     1      17.059 -20.063  37.941  1.00  0.00     0.163 HD
ENDBRANCH   6  13
BRANCH   3  18
HETATM   18  C9  UNL     1      16.136 -20.200  43.908  1.00  0.00     0.205 C 
HETATM   19  O2  UNL     1      16.800 -20.452  44.937  1.00  0.00    -0.644 OA
HETATM   20  O3  UNL     1      14.744 -20.341  43.935  1.00  0.00    -0.644 OA
ENDBRANCH   3  18
BRANCH   5  21
HETATM   21  N1  UNL     1      14.875 -18.325  40.551  1.00  0.00    -0.073 N 
ATOM     22  H13 UNL     1      14.528 -18.745  39.689  1.00  0.00     0.274 HD
ATOM     23  H12 UNL     1      14.407 -18.966  41.191  1.00  0.00     0.274 HD
ATOM     24  H11 UNL     1      14.603 -17.350  40.673  1.00  0.00     0.274 HD
ENDBRANCH   5  21
TORSDOF 7
ENDMDL
