MODEL 10
REMARK VINA RESULT: -6.065537967      2.595      4.571
REMARK  7 active torsions:
REMARK  status: ('A' for Active; 'I' for Inactive)
REMARK    1  A    between atoms: C2_2  and  C3_3 
REMARK    2  A    between atoms: C3_3  and  C4_4 
REMARK    3  A    between atoms: C3_3  and  O1_6 
REMARK    4  A    between atoms: O1_6  and  C6_7 
REMARK    5  A    between atoms: C8_9  and  C9_10 
REMARK    6  A    between atoms: C11_14  and  N1_15 
REMARK    7  A    between atoms: C12_19  and  N2_20 
REMARK       I    between atoms: N2_20  and  C13_22 
ROOT
HETATM    1  C6  UNL     1      18.368 -20.473  41.737  1.00  0.00     0.170 C 
HETATM    2  C7  UNL     1      17.359 -21.021  42.674  1.00  0.00     0.021 C 
HETATM    3  C8  UNL     1      16.748 -20.147  43.430  1.00  0.00     0.019 C 
HETATM    4  C10 UNL     1      17.157 -18.732  43.248  1.00  0.00     0.080 C 
HETATM    5  C11 UNL     1      17.265 -18.295  41.812  1.00  0.00     0.213 C 
HETATM    6  C12 UNL     1      17.641 -19.420  40.934  1.00  0.00     0.147 C 
ENDROOT
BRANCH   1   7
HETATM    7  O1  UNL     1      18.971 -21.443  40.996  1.00  0.00    -0.375 OA
BRANCH   7   8
HETATM    8  C3  UNL     1      20.026 -21.986  41.720  1.00  0.00     0.121 C 
BRANCH   8   9
HETATM    9  C2  UNL     1      19.878 -23.500  41.855  1.00  0.00     0.027 C 
HETATM   10  C1  UNL     1      19.657 -23.899  43.296  1.00  0.00     0.007 C 
ENDBRANCH   8   9
BRANCH   8  11
HETATM   11  C4  UNL     1      21.358 -21.676  41.090  1.00  0.00     0.027 C 
HETATM   12  C5  UNL     1      22.417 -21.453  42.147  1.00  0.00     0.007 C 
ENDBRANCH   8  11
ENDBRANCH   7   8
ENDBRANCH   1   7
BRANCH   6  13
HETATM   13  N2  UNL     1      18.278 -19.089  39.711  1.00  0.00    -0.352 N 
HETATM   14  C13 UNL     1      17.560 -18.786  38.528  1.00  0.00     0.214 C 
HETATM   15  C14 UNL     1      18.281 -18.444  37.268  1.00  0.00     0.117 C 
HETATM   16  O4  UNL     1      16.309 -18.825  38.615  1.00  0.00    -0.274 OA
ATOM     17  H2  UNL     1      19.298 -19.067  39.683  1.00  0.00     0.163 HD
ENDBRANCH   6  13
BRANCH   3  18
HETATM   18  C9  UNL     1      15.743 -20.551  44.384  1.00  0.00     0.205 C 
HETATM   19  O2  UNL     1      15.739 -20.109  45.554  1.00  0.00    -0.644 OA
HETATM   20  O3  UNL     1      14.756 -21.459  43.987  1.00  0.00    -0.644 OA
ENDBRANCH   3  18
BRANCH   5  21
HETATM   21  N1  UNL     1      15.938 -17.744  41.477  1.00  0.00    -0.073 N 
ATOM     22  H13 UNL     1      15.298 -18.427  41.072  1.00  0.00     0.274 HD
ATOM     23  H12 UNL     1      15.368 -17.517  42.291  1.00  0.00     0.274 HD
ATOM     24  H11 UNL     1      16.126 -16.946  40.870  1.00  0.00     0.274 HD
ENDBRANCH   5  21
TORSDOF 7
ENDMDL
