MODEL 9
REMARK VINA RESULT: -6.145341270      2.256      4.469
REMARK  7 active torsions:
REMARK  status: ('A' for Active; 'I' for Inactive)
REMARK    1  A    between atoms: C2_2  and  C3_3 
REMARK    2  A    between atoms: C3_3  and  C4_4 
REMARK    3  A    between atoms: C3_3  and  O1_6 
REMARK    4  A    between atoms: O1_6  and  C6_7 
REMARK    5  A    between atoms: C8_9  and  C9_10 
REMARK    6  A    between atoms: C11_14  and  N1_15 
REMARK    7  A    between atoms: C12_19  and  N2_20 
REMARK       I    between atoms: N2_20  and  C13_22 
ROOT
HETATM    1  C6  UNL     1      18.949 -19.047  42.005  1.00  0.00     0.170 C 
HETATM    2  C7  UNL     1      18.480 -20.072  42.966  1.00  0.00     0.021 C 
HETATM    3  C8  UNL     1      17.295 -19.871  43.482  1.00  0.00     0.019 C 
HETATM    4  C10 UNL     1      16.594 -18.641  43.037  1.00  0.00     0.080 C 
HETATM    5  C11 UNL     1      16.637 -18.402  41.552  1.00  0.00     0.213 C 
HETATM    6  C12 UNL     1      17.868 -18.956  40.954  1.00  0.00     0.147 C 
ENDROOT
BRANCH   1   7
HETATM    7  O1  UNL     1      20.194 -19.317  41.523  1.00  0.00    -0.375 OA
BRANCH   7   8
HETATM    8  C3  UNL     1      20.654 -20.505  42.077  1.00  0.00     0.121 C 
BRANCH   8   9
HETATM    9  C2  UNL     1      21.077 -21.491  40.989  1.00  0.00     0.027 C 
HETATM   10  C1  UNL     1      20.798 -20.934  39.612  1.00  0.00     0.007 C 
ENDBRANCH   8   9
BRANCH   8  11
HETATM   11  C4  UNL     1      21.813 -20.278  43.011  1.00  0.00     0.027 C 
HETATM   12  C5  UNL     1      22.910 -21.291  42.767  1.00  0.00     0.007 C 
ENDBRANCH   8  11
ENDBRANCH   7   8
ENDBRANCH   1   7
BRANCH   6  13
HETATM   13  N2  UNL     1      18.300 -18.377  39.734  1.00  0.00    -0.352 N 
HETATM   14  C13 UNL     1      17.909 -18.875  38.466  1.00  0.00     0.214 C 
HETATM   15  C14 UNL     1      18.393 -18.227  37.213  1.00  0.00     0.117 C 
HETATM   16  O4  UNL     1      17.147 -19.872  38.475  1.00  0.00    -0.274 OA
ATOM     17  H2  UNL     1      18.918 -17.566  39.771  1.00  0.00     0.163 HD
ENDBRANCH   6  13
BRANCH   3  18
HETATM   18  C9  UNL     1      16.722 -20.795  44.432  1.00  0.00     0.205 C 
HETATM   19  O2  UNL     1      16.941 -22.024  44.359  1.00  0.00    -0.644 OA
HETATM   20  O3  UNL     1      15.904 -20.300  45.452  1.00  0.00    -0.644 OA
ENDBRANCH   3  18
BRANCH   5  21
HETATM   21  N1  UNL     1      15.419 -19.046  41.023  1.00  0.00    -0.073 N 
ATOM     22  H13 UNL     1      15.105 -19.846  41.571  1.00  0.00     0.274 HD
ATOM     23  H12 UNL     1      14.575 -18.486  41.138  1.00  0.00     0.274 HD
ATOM     24  H11 UNL     1      15.637 -19.270  40.053  1.00  0.00     0.274 HD
ENDBRANCH   5  21
TORSDOF 7
ENDMDL
