MODEL 3
REMARK VINA RESULT: -6.260682233      2.495      4.671
REMARK  7 active torsions:
REMARK  status: ('A' for Active; 'I' for Inactive)
REMARK    1  A    between atoms: C2_2  and  C3_3 
REMARK    2  A    between atoms: C3_3  and  C4_4 
REMARK    3  A    between atoms: C3_3  and  O1_6 
REMARK    4  A    between atoms: O1_6  and  C6_7 
REMARK    5  A    between atoms: C8_9  and  C9_10 
REMARK    6  A    between atoms: C11_14  and  N1_15 
REMARK    7  A    between atoms: C12_19  and  N2_20 
REMARK       I    between atoms: N2_20  and  C13_22 
ROOT
HETATM    1  C6  UNL     1      17.874 -20.074  41.032  1.00  0.00     0.170 C 
HETATM    2  C7  UNL     1      17.212 -20.687  42.207  1.00  0.00     0.021 C 
HETATM    3  C8  UNL     1      16.398 -19.911  42.874  1.00  0.00     0.019 C 
HETATM    4  C10 UNL     1      16.260 -18.524  42.363  1.00  0.00     0.080 C 
HETATM    5  C11 UNL     1      16.078 -18.425  40.873  1.00  0.00     0.213 C 
HETATM    6  C12 UNL     1      16.752 -19.536  40.174  1.00  0.00     0.147 C 
ENDROOT
BRANCH   1   7
HETATM    7  O1  UNL     1      18.715 -20.937  40.399  1.00  0.00    -0.375 OA
BRANCH   7   8
HETATM    8  C3  UNL     1      20.030 -20.594  40.690  1.00  0.00     0.121 C 
BRANCH   8   9
HETATM    9  C2  UNL     1      20.870 -21.836  40.978  1.00  0.00     0.027 C 
HETATM   10  C1  UNL     1      22.029 -21.508  41.892  1.00  0.00     0.007 C 
ENDBRANCH   8   9
BRANCH   8  11
HETATM   11  C4  UNL     1      20.669 -19.817  39.569  1.00  0.00     0.027 C 
HETATM   12  C5  UNL     1      20.967 -18.398  39.998  1.00  0.00     0.007 C 
ENDBRANCH   8  11
ENDBRANCH   7   8
ENDBRANCH   1   7
BRANCH   6  13
HETATM   13  N2  UNL     1      17.120 -19.310  38.823  1.00  0.00    -0.352 N 
HETATM   14  C13 UNL     1      17.679 -18.088  38.374  1.00  0.00     0.214 C 
HETATM   15  C14 UNL     1      18.048 -17.903  36.940  1.00  0.00     0.117 C 
HETATM   16  O4  UNL     1      17.836 -17.199  39.245  1.00  0.00    -0.274 OA
ATOM     17  H2  UNL     1      16.976 -20.060  38.146  1.00  0.00     0.163 HD
ENDBRANCH   6  13
BRANCH   3  18
HETATM   18  C9  UNL     1      15.691 -20.387  44.039  1.00  0.00     0.205 C 
HETATM   19  O2  UNL     1      16.021 -20.035  45.192  1.00  0.00    -0.644 OA
HETATM   20  O3  UNL     1      14.614 -21.263  43.868  1.00  0.00    -0.644 OA
ENDBRANCH   3  18
BRANCH   5  21
HETATM   21  N1  UNL     1      14.618 -18.434  40.661  1.00  0.00    -0.073 N 
ATOM     22  H13 UNL     1      14.344 -18.466  39.679  1.00  0.00     0.274 HD
ATOM     23  H12 UNL     1      14.167 -19.305  40.938  1.00  0.00     0.274 HD
ATOM     24  H11 UNL     1      14.272 -17.614  41.158  1.00  0.00     0.274 HD
ENDBRANCH   5  21
TORSDOF 7
ENDMDL
