MODEL 12
REMARK VINA RESULT: -6.026906834      2.418      5.496
REMARK  7 active torsions:
REMARK  status: ('A' for Active; 'I' for Inactive)
REMARK    1  A    between atoms: C2_2  and  C3_3 
REMARK    2  A    between atoms: C3_3  and  C4_4 
REMARK    3  A    between atoms: C3_3  and  O1_6 
REMARK    4  A    between atoms: O1_6  and  C6_7 
REMARK    5  A    between atoms: C8_9  and  C9_10 
REMARK    6  A    between atoms: C11_14  and  N1_15 
REMARK    7  A    between atoms: C12_19  and  N2_20 
REMARK       I    between atoms: N2_20  and  C13_22 
ROOT
HETATM    1  C6  UNL     1      17.517 -20.312  40.360  1.00  0.00     0.170 C 
HETATM    2  C7  UNL     1      18.079 -19.162  39.613  1.00  0.00     0.021 C 
HETATM    3  C8  UNL     1      17.212 -18.287  39.175  1.00  0.00     0.019 C 
HETATM    4  C10 UNL     1      15.789 -18.574  39.481  1.00  0.00     0.080 C 
HETATM    5  C11 UNL     1      15.530 -18.997  40.901  1.00  0.00     0.213 C 
HETATM    6  C12 UNL     1      16.693 -19.705  41.472  1.00  0.00     0.147 C 
ENDROOT
BRANCH   1   7
HETATM    7  O1  UNL     1      18.477 -21.186  40.771  1.00  0.00    -0.375 OA
BRANCH   7   8
HETATM    8  C3  UNL     1      19.673 -20.503  40.952  1.00  0.00     0.121 C 
BRANCH   8   9
HETATM    9  C2  UNL     1      19.988 -20.329  42.436  1.00  0.00     0.027 C 
HETATM   10  C1  UNL     1      20.135 -18.868  42.793  1.00  0.00     0.007 C 
ENDBRANCH   8   9
BRANCH   8  11
HETATM   11  C4  UNL     1      20.827 -21.203  40.283  1.00  0.00     0.027 C 
HETATM   12  C5  UNL     1      21.643 -21.982  41.291  1.00  0.00     0.007 C 
ENDBRANCH   8  11
ENDBRANCH   7   8
ENDBRANCH   1   7
BRANCH   6  13
HETATM   13  N2  UNL     1      16.434 -20.594  42.546  1.00  0.00    -0.352 N 
HETATM   14  C13 UNL     1      16.559 -20.214  43.905  1.00  0.00     0.214 C 
HETATM   15  C14 UNL     1      16.274 -21.189  44.997  1.00  0.00     0.117 C 
HETATM   16  O4  UNL     1      16.916 -19.030  44.118  1.00  0.00    -0.274 OA
ATOM     17  H2  UNL     1      16.144 -21.548  42.330  1.00  0.00     0.163 HD
ENDBRANCH   6  13
BRANCH   3  18
HETATM   18  C9  UNL     1      17.631 -17.121  38.433  1.00  0.00     0.205 C 
HETATM   19  O2  UNL     1      17.861 -16.033  39.004  1.00  0.00    -0.644 OA
HETATM   20  O3  UNL     1      17.779 -17.217  37.046  1.00  0.00    -0.644 OA
ENDBRANCH   3  18
BRANCH   5  21
HETATM   21  N1  UNL     1      15.224 -17.749  41.626  1.00  0.00    -0.073 N 
ATOM     22  H13 UNL     1      15.428 -17.791  42.624  1.00  0.00     0.274 HD
ATOM     23  H12 UNL     1      15.859 -16.981  41.408  1.00  0.00     0.274 HD
ATOM     24  H11 UNL     1      14.247 -17.549  41.413  1.00  0.00     0.274 HD
ENDBRANCH   5  21
TORSDOF 7
ENDMDL
