MODEL 19
REMARK VINA RESULT: -5.895885129      2.495      4.436
REMARK  7 active torsions:
REMARK  status: ('A' for Active; 'I' for Inactive)
REMARK    1  A    between atoms: C2_2  and  C3_3 
REMARK    2  A    between atoms: C3_3  and  C4_4 
REMARK    3  A    between atoms: C3_3  and  O1_6 
REMARK    4  A    between atoms: O1_6  and  C6_7 
REMARK    5  A    between atoms: C8_9  and  C9_10 
REMARK    6  A    between atoms: C11_14  and  N1_15 
REMARK    7  A    between atoms: C12_19  and  N2_20 
REMARK       I    between atoms: N2_20  and  C13_22 
ROOT
HETATM    1  C6  UNL     1      18.195 -19.864  40.975  1.00  0.00     0.170 C 
HETATM    2  C7  UNL     1      19.170 -19.051  41.739  1.00  0.00     0.021 C 
HETATM    3  C8  UNL     1      18.831 -18.758  42.967  1.00  0.00     0.019 C 
HETATM    4  C10 UNL     1      17.515 -19.274  43.418  1.00  0.00     0.080 C 
HETATM    5  C11 UNL     1      17.256 -20.713  43.064  1.00  0.00     0.213 C 
HETATM    6  C12 UNL     1      17.948 -21.094  41.818  1.00  0.00     0.147 C 
ENDROOT
BRANCH   1   7
HETATM    7  O1  UNL     1      18.610 -20.116  39.703  1.00  0.00    -0.375 OA
BRANCH   7   8
HETATM    8  C3  UNL     1      17.905 -19.306  38.821  1.00  0.00     0.121 C 
BRANCH   8   9
HETATM    9  C2  UNL     1      18.819 -18.261  38.185  1.00  0.00     0.027 C 
HETATM   10  C1  UNL     1      18.353 -17.906  36.791  1.00  0.00     0.007 C 
ENDBRANCH   8   9
BRANCH   8  11
HETATM   11  C4  UNL     1      17.240 -20.106  37.731  1.00  0.00     0.027 C 
HETATM   12  C5  UNL     1      17.620 -21.567  37.827  1.00  0.00     0.007 C 
ENDBRANCH   8  11
ENDBRANCH   7   8
ENDBRANCH   1   7
BRANCH   6  13
HETATM   13  N2  UNL     1      17.405 -22.186  41.095  1.00  0.00    -0.352 N 
HETATM   14  C13 UNL     1      17.854 -23.519  41.265  1.00  0.00     0.214 C 
HETATM   15  C14 UNL     1      17.247 -24.632  40.478  1.00  0.00     0.117 C 
HETATM   16  O4  UNL     1      18.772 -23.691  42.103  1.00  0.00    -0.274 OA
ATOM     17  H2  UNL     1      16.659 -22.004  40.423  1.00  0.00     0.163 HD
ENDBRANCH   6  13
BRANCH   3  18
HETATM   18  C9  UNL     1      19.694 -17.972  43.817  1.00  0.00     0.205 C 
HETATM   19  O2  UNL     1      19.564 -16.732  43.911  1.00  0.00    -0.644 OA
HETATM   20  O3  UNL     1      20.697 -18.617  44.549  1.00  0.00    -0.644 OA
ENDBRANCH   3  18
BRANCH   5  21
HETATM   21  N1  UNL     1      17.731 -21.487  44.227  1.00  0.00    -0.073 N 
ATOM     22  H13 UNL     1      18.739 -21.432  44.375  1.00  0.00     0.274 HD
ATOM     23  H12 UNL     1      17.459 -21.090  45.126  1.00  0.00     0.274 HD
ATOM     24  H11 UNL     1      17.389 -22.435  44.074  1.00  0.00     0.274 HD
ENDBRANCH   5  21
TORSDOF 7
ENDMDL
