MODEL 15
REMARK VINA RESULT: -5.979356219      3.048      5.007
REMARK  7 active torsions:
REMARK  status: ('A' for Active; 'I' for Inactive)
REMARK    1  A    between atoms: C2_2  and  C3_3 
REMARK    2  A    between atoms: C3_3  and  C4_4 
REMARK    3  A    between atoms: C3_3  and  O1_6 
REMARK    4  A    between atoms: O1_6  and  C6_7 
REMARK    5  A    between atoms: C8_9  and  C9_10 
REMARK    6  A    between atoms: C11_14  and  N1_15 
REMARK    7  A    between atoms: C12_19  and  N2_20 
REMARK       I    between atoms: N2_20  and  C13_22 
ROOT
HETATM    1  C6  UNL     1      20.431 -20.103  41.484  1.00  0.00     0.170 C 
HETATM    2  C7  UNL     1      20.440 -18.792  42.174  1.00  0.00     0.021 C 
HETATM    3  C8  UNL     1      20.026 -18.797  43.414  1.00  0.00     0.019 C 
HETATM    4  C10 UNL     1      19.597 -20.112  43.950  1.00  0.00     0.080 C 
HETATM    5  C11 UNL     1      20.536 -21.247  43.639  1.00  0.00     0.213 C 
HETATM    6  C12 UNL     1      21.242 -21.026  42.363  1.00  0.00     0.147 C 
ENDROOT
BRANCH   1   7
HETATM    7  O1  UNL     1      20.862 -20.016  40.194  1.00  0.00    -0.375 OA
BRANCH   7   8
HETATM    8  C3  UNL     1      19.766 -19.860  39.354  1.00  0.00     0.121 C 
BRANCH   8   9
HETATM    9  C2  UNL     1      18.503 -20.443  39.984  1.00  0.00     0.027 C 
HETATM   10  C1  UNL     1      18.008 -21.638  39.201  1.00  0.00     0.007 C 
ENDBRANCH   8   9
BRANCH   8  11
HETATM   11  C4  UNL     1      19.522 -18.413  39.012  1.00  0.00     0.027 C 
HETATM   12  C5  UNL     1      18.656 -18.289  37.778  1.00  0.00     0.007 C 
ENDBRANCH   8  11
ENDBRANCH   7   8
ENDBRANCH   1   7
BRANCH   6  13
HETATM   13  N2  UNL     1      21.725 -22.180  41.694  1.00  0.00    -0.352 N 
HETATM   14  C13 UNL     1      22.991 -22.754  41.968  1.00  0.00     0.214 C 
HETATM   15  C14 UNL     1      23.449 -23.969  41.234  1.00  0.00     0.117 C 
HETATM   16  O4  UNL     1      23.678 -22.182  42.848  1.00  0.00    -0.274 OA
ATOM     17  H2  UNL     1      21.134 -22.615  40.985  1.00  0.00     0.163 HD
ENDBRANCH   6  13
BRANCH   3  18
HETATM   18  C9  UNL     1      19.986 -17.585  44.197  1.00  0.00     0.205 C 
HETATM   19  O2  UNL     1      19.197 -16.655  43.920  1.00  0.00    -0.644 OA
HETATM   20  O3  UNL     1      20.852 -17.453  45.288  1.00  0.00    -0.644 OA
ENDBRANCH   3  18
BRANCH   5  21
HETATM   21  N1  UNL     1      21.461 -21.307  44.788  1.00  0.00    -0.073 N 
ATOM     22  H13 UNL     1      22.137 -22.068  44.733  1.00  0.00     0.274 HD
ATOM     23  H12 UNL     1      22.141 -20.547  44.809  1.00  0.00     0.274 HD
ATOM     24  H11 UNL     1      20.861 -21.346  45.611  1.00  0.00     0.274 HD
ENDBRANCH   5  21
TORSDOF 7
ENDMDL
