MODEL 2
REMARK VINA RESULT: -8.997368334      1.795      2.903
REMARK  10 active torsions:
REMARK  status: ('A' for Active; 'I' for Inactive)
REMARK    1  A    between atoms: C2_5  and  O2_6 
REMARK    2  A    between atoms: N2_10  and  C5_11 
REMARK    3  A    between atoms: C7_13  and  O3_14 
REMARK    4  A    between atoms: C8_16  and  C9_17 
REMARK    5  A    between atoms: C9_17  and  O4_18 
REMARK    6  A    between atoms: O4_18  and  P1_19 
REMARK    7  A    between atoms: P1_19  and  N3_22 
REMARK    8  A    between atoms: N3_22  and  P2_24 
REMARK    9  A    between atoms: P2_24  and  O9_27 
REMARK   10  A    between atoms: O9_27  and  P3_28 
ROOT
HETATM    1  C5  UNL     1     -10.634  30.085  -2.146  1.00  0.00     0.230 C 
HETATM    2  C6  UNL     1     -10.190  31.381  -1.288  1.00  0.00     0.088 C 
HETATM    3  C7  UNL     1     -10.755  32.444  -2.162  1.00  0.00     0.153 C 
HETATM    4  C8  UNL     1     -12.026  31.746  -2.564  1.00  0.00     0.177 C 
HETATM    5  O13 UNL     1     -11.603  30.506  -2.958  1.00  0.00    -0.356 OA
ENDROOT
BRANCH   4   6
HETATM    6  C9  UNL     1     -12.875  32.467  -3.534  1.00  0.00     0.215 C 
BRANCH   6   7
HETATM    7  O4  UNL     1     -13.489  31.475  -4.356  1.00  0.00    -0.293 OA
BRANCH   7   8
HETATM    8  P1  UNL     1     -14.447  31.978  -5.505  1.00  0.00     0.368 P 
HETATM    9  O5  UNL     1     -13.713  32.812  -6.780  1.00  0.00    -0.629 OA
HETATM   10  O6  UNL     1     -14.346  30.661  -6.256  1.00  0.00    -0.629 OA
BRANCH   8  11
HETATM   11  N3  UNL     1     -16.145  31.946  -5.648  1.00  0.00    -0.225 N 
ATOM     12  H3  UNL     1     -16.690  31.203  -6.087  1.00  0.00     0.178 HD
BRANCH  11  13
HETATM   13  P2  UNL     1     -16.779  33.349  -4.941  1.00  0.00     0.378 P 
HETATM   14  O7  UNL     1     -15.482  34.251  -4.974  1.00  0.00    -0.629 OA
HETATM   15  O8  UNL     1     -18.195  32.883  -4.650  1.00  0.00    -0.629 OA
BRANCH  13  16
HETATM   16  O9  UNL     1     -17.434  34.497  -5.919  1.00  0.00    -0.178 OA
BRANCH  16  17
HETATM   17  P3  UNL     1     -17.813  34.178  -7.430  1.00  0.00     0.431 P 
HETATM   18  O10 UNL     1     -16.367  34.269  -7.936  1.00  0.00    -0.616 OA
HETATM   19  O11 UNL     1     -18.096  32.687  -8.040  1.00  0.00    -0.616 OA
HETATM   20  O12 UNL     1     -18.139  35.505  -8.485  1.00  0.00    -0.616 OA
ENDBRANCH  16  17
ENDBRANCH  13  16
ENDBRANCH  11  13
ENDBRANCH   8  11
ENDBRANCH   7   8
ENDBRANCH   6   7
ENDBRANCH   4   6
BRANCH   3  21
HETATM   21  O3  UNL     1     -11.037  33.614  -1.422  1.00  0.00    -0.393 OA
ATOM     22  H3  UNL     1     -11.385  34.298  -1.982  1.00  0.00     0.210 HD
ENDBRANCH   3  21
BRANCH   1  23
HETATM   23  N2  UNL     1      -9.350  29.790  -2.756  1.00  0.00    -0.303 N 
HETATM   24  C1  UNL     1      -8.294  29.497  -1.853  1.00  0.00     0.326 A 
HETATM   25  O1  UNL     1      -8.482  29.637  -0.609  1.00  0.00    -0.247 OA
HETATM   26  N1  UNL     1      -7.026  29.059  -2.299  1.00  0.00    -0.289 N 
HETATM   27  C2  UNL     1      -6.850  28.930  -3.692  1.00  0.00     0.141 A 
ATOM     28  H1  UNL     1      -6.275  28.846  -1.644  1.00  0.00     0.172 HD
HETATM   29  C3  UNL     1      -7.829  29.207  -4.511  1.00  0.00     0.049 A 
HETATM   30  C4  UNL     1      -9.177  29.660  -4.181  1.00  0.00     0.162 A 
BRANCH  27  31
HETATM   31  O2  UNL     1      -5.587  28.490  -4.162  1.00  0.00    -0.346 OA
ATOM     32  H2  UNL     1      -5.480  28.365  -5.098  1.00  0.00     0.219 HD
ENDBRANCH  27  31
ENDBRANCH   1  23
TORSDOF 10
ENDMDL
