MODEL 5
REMARK VINA RESULT: -8.626018995      4.059      9.263
REMARK  10 active torsions:
REMARK  status: ('A' for Active; 'I' for Inactive)
REMARK    1  A    between atoms: C2_5  and  O2_6 
REMARK    2  A    between atoms: N2_10  and  C5_11 
REMARK    3  A    between atoms: C7_13  and  O3_14 
REMARK    4  A    between atoms: C8_16  and  C9_17 
REMARK    5  A    between atoms: C9_17  and  O4_18 
REMARK    6  A    between atoms: O4_18  and  P1_19 
REMARK    7  A    between atoms: P1_19  and  N3_22 
REMARK    8  A    between atoms: N3_22  and  P2_24 
REMARK    9  A    between atoms: P2_24  and  O9_27 
REMARK   10  A    between atoms: O9_27  and  P3_28 
ROOT
HETATM    1  C5  UNL     1     -17.672  33.666  -4.446  1.00  0.00     0.230 C 
HETATM    2  C6  UNL     1     -17.382  32.565  -5.594  1.00  0.00     0.088 C 
HETATM    3  C7  UNL     1     -15.934  32.830  -5.811  1.00  0.00     0.153 C 
HETATM    4  C8  UNL     1     -15.541  33.091  -4.382  1.00  0.00     0.177 C 
HETATM    5  O13 UNL     1     -16.478  33.989  -3.948  1.00  0.00    -0.356 OA
ENDROOT
BRANCH   4   6
HETATM    6  C9  UNL     1     -14.134  33.484  -4.164  1.00  0.00     0.215 C 
BRANCH   6   7
HETATM    7  O4  UNL     1     -13.615  32.605  -3.166  1.00  0.00    -0.293 OA
BRANCH   7   8
HETATM    8  P1  UNL     1     -12.813  31.339  -3.661  1.00  0.00     0.368 P 
HETATM    9  O5  UNL     1     -13.738  30.045  -4.236  1.00  0.00    -0.629 OA
HETATM   10  O6  UNL     1     -12.661  31.904  -5.063  1.00  0.00    -0.629 OA
BRANCH   8  11
HETATM   11  N3  UNL     1     -11.150  30.973  -3.613  1.00  0.00    -0.225 N 
ATOM     12  H3  UNL     1     -10.572  30.726  -4.418  1.00  0.00     0.178 HD
BRANCH  11  13
HETATM   13  P2  UNL     1     -10.612  31.086  -2.010  1.00  0.00     0.378 P 
HETATM   14  O7  UNL     1     -10.503  29.547  -1.675  1.00  0.00    -0.629 OA
HETATM   15  O8  UNL     1     -10.610  32.596  -1.838  1.00  0.00    -0.629 OA
BRANCH  13  16
HETATM   16  O9  UNL     1      -8.995  31.123  -1.722  1.00  0.00    -0.178 OA
BRANCH  16  17
HETATM   17  P3  UNL     1      -8.053  29.911  -2.139  1.00  0.00     0.431 P 
HETATM   18  O10 UNL     1      -6.751  30.703  -1.950  1.00  0.00    -0.616 OA
HETATM   19  O11 UNL     1      -7.620  28.670  -1.166  1.00  0.00    -0.616 OA
HETATM   20  O12 UNL     1      -7.588  29.774  -3.796  1.00  0.00    -0.616 OA
ENDBRANCH  16  17
ENDBRANCH  13  16
ENDBRANCH  11  13
ENDBRANCH   8  11
ENDBRANCH   7   8
ENDBRANCH   6   7
ENDBRANCH   4   6
BRANCH   3  21
HETATM   21  O3  UNL     1     -15.276  31.684  -6.310  1.00  0.00    -0.393 OA
ATOM     22  H3  UNL     1     -15.392  31.605  -7.250  1.00  0.00     0.210 HD
ENDBRANCH   3  21
BRANCH   1  23
HETATM   23  N2  UNL     1     -18.327  34.662  -5.274  1.00  0.00    -0.303 N 
HETATM   24  C1  UNL     1     -18.697  35.862  -4.613  1.00  0.00     0.326 A 
HETATM   25  O1  UNL     1     -18.568  35.947  -3.356  1.00  0.00    -0.247 OA
HETATM   26  N1  UNL     1     -19.218  36.974  -5.313  1.00  0.00    -0.289 N 
HETATM   27  C2  UNL     1     -19.363  36.838  -6.708  1.00  0.00     0.141 A 
ATOM     28  H1  UNL     1     -19.477  37.835  -4.831  1.00  0.00     0.172 HD
HETATM   29  C3  UNL     1     -19.022  35.725  -7.303  1.00  0.00     0.049 A 
HETATM   30  C4  UNL     1     -18.472  34.516  -6.700  1.00  0.00     0.162 A 
BRANCH  27  31
HETATM   31  O2  UNL     1     -19.882  37.941  -7.433  1.00  0.00    -0.346 OA
ATOM     32  H2  UNL     1     -19.457  38.784  -7.323  1.00  0.00     0.219 HD
ENDBRANCH  27  31
ENDBRANCH   1  23
TORSDOF 10
ENDMDL
