MODEL 14
REMARK VINA RESULT: -8.170880505      1.772      2.902
REMARK  10 active torsions:
REMARK  status: ('A' for Active; 'I' for Inactive)
REMARK    1  A    between atoms: C2_5  and  O2_6 
REMARK    2  A    between atoms: N2_10  and  C5_11 
REMARK    3  A    between atoms: C7_13  and  O3_14 
REMARK    4  A    between atoms: C8_16  and  C9_17 
REMARK    5  A    between atoms: C9_17  and  O4_18 
REMARK    6  A    between atoms: O4_18  and  P1_19 
REMARK    7  A    between atoms: P1_19  and  N3_22 
REMARK    8  A    between atoms: N3_22  and  P2_24 
REMARK    9  A    between atoms: P2_24  and  O9_27 
REMARK   10  A    between atoms: O9_27  and  P3_28 
ROOT
HETATM    1  C5  UNL     1     -10.634  30.092  -2.319  1.00  0.00     0.230 C 
HETATM    2  C6  UNL     1     -10.211  31.238  -1.260  1.00  0.00     0.088 C 
HETATM    3  C7  UNL     1     -10.607  32.438  -2.046  1.00  0.00     0.153 C 
HETATM    4  C8  UNL     1     -11.865  31.892  -2.664  1.00  0.00     0.177 C 
HETATM    5  O13 UNL     1     -11.478  30.680  -3.167  1.00  0.00    -0.356 OA
ENDROOT
BRANCH   4   6
HETATM    6  C9  UNL     1     -12.553  32.786  -3.617  1.00  0.00     0.215 C 
BRANCH   6   7
HETATM    7  O4  UNL     1     -12.733  32.039  -4.821  1.00  0.00    -0.293 OA
BRANCH   7   8
HETATM    8  P1  UNL     1     -14.152  32.108  -5.510  1.00  0.00     0.368 P 
HETATM    9  O5  UNL     1     -14.396  31.072  -6.824  1.00  0.00    -0.629 OA
HETATM   10  O6  UNL     1     -14.740  31.090  -4.548  1.00  0.00    -0.629 OA
BRANCH   8  11
HETATM   11  N3  UNL     1     -15.479  33.144  -5.249  1.00  0.00    -0.225 N 
ATOM     12  H3  UNL     1     -15.542  33.856  -4.520  1.00  0.00     0.178 HD
BRANCH  11  13
HETATM   13  P2  UNL     1     -16.676  32.796  -6.397  1.00  0.00     0.378 P 
HETATM   14  O7  UNL     1     -17.502  31.726  -5.579  1.00  0.00    -0.629 OA
HETATM   15  O8  UNL     1     -16.208  33.678  -7.542  1.00  0.00    -0.629 OA
BRANCH  13  16
HETATM   16  O9  UNL     1     -18.063  33.677  -6.380  1.00  0.00    -0.178 OA
BRANCH  16  17
HETATM   17  P3  UNL     1     -18.265  34.883  -5.363  1.00  0.00     0.431 P 
HETATM   18  O10 UNL     1     -19.654  34.419  -4.903  1.00  0.00    -0.616 OA
HETATM   19  O11 UNL     1     -17.627  34.970  -3.858  1.00  0.00    -0.616 OA
HETATM   20  O12 UNL     1     -19.061  36.305  -5.933  1.00  0.00    -0.616 OA
ENDBRANCH  16  17
ENDBRANCH  13  16
ENDBRANCH  11  13
ENDBRANCH   8  11
ENDBRANCH   7   8
ENDBRANCH   6   7
ENDBRANCH   4   6
BRANCH   3  21
HETATM   21  O3  UNL     1     -10.898  33.528  -1.196  1.00  0.00    -0.393 OA
ATOM     22  H3  UNL     1     -11.355  34.216  -1.666  1.00  0.00     0.210 HD
ENDBRANCH   3  21
BRANCH   1  23
HETATM   23  N2  UNL     1      -9.310  29.777  -2.824  1.00  0.00    -0.303 N 
HETATM   24  C1  UNL     1      -8.334  29.471  -1.840  1.00  0.00     0.326 A 
HETATM   25  O1  UNL     1      -8.618  29.617  -0.615  1.00  0.00    -0.247 OA
HETATM   26  N1  UNL     1      -7.041  29.013  -2.183  1.00  0.00    -0.289 N 
HETATM   27  C2  UNL     1      -6.757  28.878  -3.556  1.00  0.00     0.141 A 
ATOM     28  H1  UNL     1      -6.347  28.792  -1.469  1.00  0.00     0.172 HD
HETATM   29  C3  UNL     1      -7.664  29.167  -4.451  1.00  0.00     0.049 A 
HETATM   30  C4  UNL     1      -9.026  29.640  -4.230  1.00  0.00     0.162 A 
BRANCH  27  31
HETATM   31  O2  UNL     1      -5.467  28.418  -3.924  1.00  0.00    -0.346 OA
ATOM     32  H2  UNL     1      -5.376  27.969  -4.756  1.00  0.00     0.219 HD
ENDBRANCH  27  31
ENDBRANCH   1  23
TORSDOF 10
ENDMDL
