MODEL 4
REMARK VINA RESULT: -8.220907296      1.464      1.807
REMARK  5 active torsions:
REMARK  status: ('A' for Active; 'I' for Inactive)
REMARK    1  A    between atoms: N1_5  and  C4_6 
REMARK    2  A    between atoms: C6_8  and  O2_9 
REMARK    3  A    between atoms: C7_11  and  C8_12 
REMARK    4  A    between atoms: C8_12  and  O3_13 
REMARK    5  A    between atoms: O3_13  and  P1_14 
ROOT
HETATM    1  C4  UNL     1     -17.101  35.873  -9.883  1.00  0.00     0.235 C 
HETATM    2  C5  UNL     1     -18.494  36.367 -10.192  1.00  0.00     0.088 C 
HETATM    3  C6  UNL     1     -18.211  37.097 -11.492  1.00  0.00     0.153 C 
HETATM    4  C7  UNL     1     -16.837  37.668 -11.190  1.00  0.00     0.177 C 
HETATM    5  O7  UNL     1     -16.308  36.958 -10.149  1.00  0.00    -0.356 OA
ENDROOT
BRANCH   1   6
HETATM    6  N1  UNL     1     -16.960  35.344  -8.564  1.00  0.00    -0.282 N 
HETATM    7  C3  UNL     1     -15.951  35.785  -7.787  1.00  0.00     0.104 A 
HETATM    8  C2  UNL     1     -15.731  35.340  -6.506  1.00  0.00     0.092 A 
HETATM    9  C1  UNL     1     -16.610  34.384  -6.009  1.00  0.00     0.250 A 
HETATM   10  O1  UNL     1     -16.476  33.928  -4.850  1.00  0.00    -0.268 OA
HETATM   11  N2  UNL     1     -17.620  33.945  -6.791  1.00  0.00    -0.275 N 
HETATM   12  C9  UNL     1     -17.779  34.421  -8.032  1.00  0.00     0.331 A 
ATOM     13  H2  UNL     1     -18.268  33.244  -6.433  1.00  0.00     0.173 HD
HETATM   14  O8  UNL     1     -18.725  34.022  -8.790  1.00  0.00    -0.246 OA
ENDBRANCH   1   6
BRANCH   3  15
HETATM   15  O2  UNL     1     -18.163  36.133 -12.496  1.00  0.00    -0.393 OA
ATOM     16  H2  UNL     1     -18.442  35.313 -12.105  1.00  0.00     0.210 HD
ENDBRANCH   3  15
BRANCH   4  17
HETATM   17  C8  UNL     1     -17.022  39.093 -10.771  1.00  0.00     0.217 C 
BRANCH  17  18
HETATM   18  O3  UNL     1     -16.087  39.953 -11.285  1.00  0.00    -0.280 OA
BRANCH  18  19
HETATM   19  P1  UNL     1     -16.278  40.601 -12.722  1.00  0.00     0.422 P 
HETATM   20  O4  UNL     1     -15.141  39.850 -13.425  1.00  0.00    -0.617 OA
HETATM   21  O5  UNL     1     -15.595  42.056 -13.137  1.00  0.00    -0.617 OA
HETATM   22  O6  UNL     1     -17.348  39.912 -13.874  1.00  0.00    -0.617 OA
ENDBRANCH  18  19
ENDBRANCH  17  18
ENDBRANCH   4  17
TORSDOF 5
ENDMDL
