MODEL 13
REMARK VINA RESULT: -6.880866375      3.273      7.118
REMARK  5 active torsions:
REMARK  status: ('A' for Active; 'I' for Inactive)
REMARK    1  A    between atoms: N1_5  and  C4_6 
REMARK    2  A    between atoms: C6_8  and  O2_9 
REMARK    3  A    between atoms: C7_11  and  C8_12 
REMARK    4  A    between atoms: C8_12  and  O3_13 
REMARK    5  A    between atoms: O3_13  and  P1_14 
ROOT
HETATM    1  C4  UNL     1     -16.661  36.518 -10.861  1.00  0.00     0.235 C 
HETATM    2  C5  UNL     1     -16.189  36.689  -9.438  1.00  0.00     0.088 C 
HETATM    3  C6  UNL     1     -16.530  35.311  -8.900  1.00  0.00     0.153 C 
HETATM    4  C7  UNL     1     -17.821  35.038  -9.651  1.00  0.00     0.177 C 
HETATM    5  O7  UNL     1     -17.866  35.880 -10.727  1.00  0.00    -0.356 OA
ENDROOT
BRANCH   1   6
HETATM    6  N1  UNL     1     -16.716  37.741 -11.597  1.00  0.00    -0.282 N 
HETATM    7  C3  UNL     1     -17.796  38.535 -11.465  1.00  0.00     0.104 A 
HETATM    8  C2  UNL     1     -17.944  39.729 -12.128  1.00  0.00     0.092 A 
HETATM    9  C1  UNL     1     -16.911  40.115 -12.974  1.00  0.00     0.250 A 
HETATM   10  O1  UNL     1     -16.971  41.191 -13.614  1.00  0.00    -0.268 OA
HETATM   11  N2  UNL     1     -15.830  39.316 -13.105  1.00  0.00    -0.275 N 
HETATM   12  C9  UNL     1     -15.748  38.164 -12.428  1.00  0.00     0.331 A 
ATOM     13  H2  UNL     1     -15.068  39.593 -13.724  1.00  0.00     0.173 HD
HETATM   14  O8  UNL     1     -14.738  37.391 -12.534  1.00  0.00    -0.246 OA
ENDBRANCH   1   6
BRANCH   3  15
HETATM   15  O2  UNL     1     -15.506  34.456  -9.300  1.00  0.00    -0.393 OA
ATOM     16  H2  UNL     1     -15.635  33.636  -8.839  1.00  0.00     0.210 HD
ENDBRANCH   3  15
BRANCH   4  17
HETATM   17  C8  UNL     1     -18.956  35.357  -8.729  1.00  0.00     0.217 C 
BRANCH  17  18
HETATM   18  O3  UNL     1     -18.569  35.650  -7.447  1.00  0.00    -0.280 OA
BRANCH  18  19
HETATM   19  P1  UNL     1     -18.667  34.560  -6.297  1.00  0.00     0.422 P 
HETATM   20  O4  UNL     1     -17.316  34.857  -5.633  1.00  0.00    -0.617 OA
HETATM   21  O5  UNL     1     -18.219  32.979  -6.534  1.00  0.00    -0.617 OA
HETATM   22  O6  UNL     1     -19.405  34.919  -4.789  1.00  0.00    -0.617 OA
ENDBRANCH  18  19
ENDBRANCH  17  18
ENDBRANCH   4  17
TORSDOF 5
ENDMDL
