MODEL 1
REMARK VINA RESULT: -10.153532438      0.000      0.000
REMARK  5 active torsions:
REMARK  status: ('A' for Active; 'I' for Inactive)
REMARK    1  A    between atoms: N1_5  and  C4_6 
REMARK    2  A    between atoms: C6_8  and  O2_9 
REMARK    3  A    between atoms: C7_11  and  C8_12 
REMARK    4  A    between atoms: C8_12  and  O3_13 
REMARK    5  A    between atoms: O3_13  and  P1_14 
ROOT
HETATM    1  C4  UNL     1     -18.246  35.241  -9.185  1.00  0.00     0.235 C 
HETATM    2  C5  UNL     1     -19.206  36.403  -9.097  1.00  0.00     0.088 C 
HETATM    3  C6  UNL     1     -19.513  36.578 -10.574  1.00  0.00     0.153 C 
HETATM    4  C7  UNL     1     -18.154  36.261 -11.173  1.00  0.00     0.177 C 
HETATM    5  O7  UNL     1     -17.434  35.573 -10.236  1.00  0.00    -0.356 OA
ENDROOT
BRANCH   1   6
HETATM    6  N1  UNL     1     -17.555  34.976  -7.963  1.00  0.00    -0.282 N 
HETATM    7  C3  UNL     1     -16.322  35.488  -7.784  1.00  0.00     0.104 A 
HETATM    8  C2  UNL     1     -15.577  35.291  -6.647  1.00  0.00     0.092 A 
HETATM    9  C1  UNL     1     -16.149  34.518  -5.643  1.00  0.00     0.250 A 
HETATM   10  O1  UNL     1     -15.533  34.293  -4.575  1.00  0.00    -0.268 OA
HETATM   11  N2  UNL     1     -17.386  34.006  -5.825  1.00  0.00    -0.275 N 
HETATM   12  C9  UNL     1     -18.058  34.237  -6.959  1.00  0.00     0.331 A 
ATOM     13  H2  UNL     1     -17.811  33.439  -5.093  1.00  0.00     0.173 HD
HETATM   14  O8  UNL     1     -19.228  33.766  -7.156  1.00  0.00    -0.246 OA
ENDBRANCH   1   6
BRANCH   3  15
HETATM   15  O2  UNL     1     -20.464  35.617 -10.906  1.00  0.00    -0.393 OA
ATOM     16  H2  UNL     1     -20.993  35.982 -11.605  1.00  0.00     0.210 HD
ENDBRANCH   3  15
BRANCH   4  17
HETATM   17  C8  UNL     1     -17.472  37.561 -11.461  1.00  0.00     0.217 C 
BRANCH  17  18
HETATM   18  O3  UNL     1     -17.954  38.213 -12.566  1.00  0.00    -0.280 OA
BRANCH  18  19
HETATM   19  P1  UNL     1     -17.000  39.112 -13.462  1.00  0.00     0.422 P 
HETATM   20  O4  UNL     1     -17.446  38.568 -14.825  1.00  0.00    -0.617 OA
HETATM   21  O5  UNL     1     -15.429  38.686 -13.788  1.00  0.00    -0.617 OA
HETATM   22  O6  UNL     1     -17.490  40.666 -14.003  1.00  0.00    -0.617 OA
ENDBRANCH  18  19
ENDBRANCH  17  18
ENDBRANCH   4  17
TORSDOF 5
ENDMDL
