MODEL 14
REMARK VINA RESULT: -6.810434801      3.183      6.880
REMARK  5 active torsions:
REMARK  status: ('A' for Active; 'I' for Inactive)
REMARK    1  A    between atoms: N1_5  and  C4_6 
REMARK    2  A    between atoms: C6_8  and  O2_9 
REMARK    3  A    between atoms: C7_11  and  C8_12 
REMARK    4  A    between atoms: C8_12  and  O3_13 
REMARK    5  A    between atoms: O3_13  and  P1_14 
ROOT
HETATM    1  C4  UNL     1     -17.076  35.424 -10.327  1.00  0.00     0.235 C 
HETATM    2  C5  UNL     1     -15.824  35.072  -9.562  1.00  0.00     0.088 C 
HETATM    3  C6  UNL     1     -16.303  33.803  -8.880  1.00  0.00     0.153 C 
HETATM    4  C7  UNL     1     -17.748  34.175  -8.599  1.00  0.00     0.177 C 
HETATM    5  O7  UNL     1     -18.079  35.219  -9.417  1.00  0.00    -0.356 OA
ENDROOT
BRANCH   1   6
HETATM    6  N1  UNL     1     -17.051  36.734 -10.896  1.00  0.00    -0.282 N 
HETATM    7  C3  UNL     1     -18.032  37.603 -10.583  1.00  0.00     0.104 A 
HETATM    8  C2  UNL     1     -18.097  38.883 -11.075  1.00  0.00     0.092 A 
HETATM    9  C1  UNL     1     -17.084  39.279 -11.942  1.00  0.00     0.250 A 
HETATM   10  O1  UNL     1     -17.073  40.432 -12.434  1.00  0.00    -0.268 OA
HETATM   11  N2  UNL     1     -16.102  38.406 -12.254  1.00  0.00    -0.275 N 
HETATM   12  C9  UNL     1     -16.098  37.171 -11.737  1.00  0.00     0.331 A 
ATOM     13  H2  UNL     1     -15.356  38.690 -12.888  1.00  0.00     0.173 HD
HETATM   14  O8  UNL     1     -15.181  36.328 -12.016  1.00  0.00    -0.246 OA
ENDBRANCH   1   6
BRANCH   3  15
HETATM   15  O2  UNL     1     -16.204  32.778  -9.817  1.00  0.00    -0.393 OA
ATOM     16  H2  UNL     1     -15.565  33.055 -10.463  1.00  0.00     0.210 HD
ENDBRANCH   3  15
BRANCH   4  17
HETATM   17  C8  UNL     1     -17.830  34.623  -7.173  1.00  0.00     0.217 C 
BRANCH  17  18
HETATM   18  O3  UNL     1     -17.059  33.887  -6.311  1.00  0.00    -0.280 OA
BRANCH  18  19
HETATM   19  P1  UNL     1     -16.141  34.599  -5.228  1.00  0.00     0.422 P 
HETATM   20  O4  UNL     1     -14.829  34.545  -6.021  1.00  0.00    -0.617 OA
HETATM   21  O5  UNL     1     -15.437  33.765  -3.977  1.00  0.00    -0.617 OA
HETATM   22  O6  UNL     1     -15.965  36.306  -5.194  1.00  0.00    -0.617 OA
ENDBRANCH  18  19
ENDBRANCH  17  18
ENDBRANCH   4  17
TORSDOF 5
ENDMDL
