MODEL 5
REMARK VINA RESULT: -7.824205620      1.447      1.868
REMARK  5 active torsions:
REMARK  status: ('A' for Active; 'I' for Inactive)
REMARK    1  A    between atoms: N1_5  and  C4_6 
REMARK    2  A    between atoms: C6_8  and  O2_9 
REMARK    3  A    between atoms: C7_11  and  C8_12 
REMARK    4  A    between atoms: C8_12  and  O3_13 
REMARK    5  A    between atoms: O3_13  and  P1_14 
ROOT
HETATM    1  C4  UNL     1     -17.171  35.859  -9.931  1.00  0.00     0.235 C 
HETATM    2  C5  UNL     1     -18.432  36.665 -10.132  1.00  0.00     0.088 C 
HETATM    3  C6  UNL     1     -18.123  37.266 -11.492  1.00  0.00     0.153 C 
HETATM    4  C7  UNL     1     -16.628  37.497 -11.353  1.00  0.00     0.177 C 
HETATM    5  O7  UNL     1     -16.176  36.713 -10.329  1.00  0.00    -0.356 OA
ENDROOT
BRANCH   1   6
HETATM    6  N1  UNL     1     -17.021  35.353  -8.604  1.00  0.00    -0.282 N 
HETATM    7  C3  UNL     1     -15.955  35.735  -7.874  1.00  0.00     0.104 A 
HETATM    8  C2  UNL     1     -15.721  35.305  -6.591  1.00  0.00     0.092 A 
HETATM    9  C1  UNL     1     -16.649  34.429  -6.039  1.00  0.00     0.250 A 
HETATM   10  O1  UNL     1     -16.506  33.992  -4.873  1.00  0.00    -0.268 OA
HETATM   11  N2  UNL     1     -17.717  34.048  -6.773  1.00  0.00    -0.275 N 
HETATM   12  C9  UNL     1     -17.885  34.505  -8.020  1.00  0.00     0.331 A 
ATOM     13  H2  UNL     1     -18.401  33.406  -6.374  1.00  0.00     0.173 HD
HETATM   14  O8  UNL     1     -18.885  34.161  -8.733  1.00  0.00    -0.246 OA
ENDBRANCH   1   6
BRANCH   3  15
HETATM   15  O2  UNL     1     -18.411  36.288 -12.441  1.00  0.00    -0.393 OA
ATOM     16  H2  UNL     1     -18.155  35.455 -12.065  1.00  0.00     0.210 HD
ENDBRANCH   3  15
BRANCH   4  17
HETATM   17  C8  UNL     1     -16.425  38.936 -10.997  1.00  0.00     0.217 C 
BRANCH  17  18
HETATM   18  O3  UNL     1     -15.344  39.517 -11.607  1.00  0.00    -0.280 OA
BRANCH  18  19
HETATM   19  P1  UNL     1     -14.961  39.154 -13.105  1.00  0.00     0.422 P 
HETATM   20  O4  UNL     1     -14.503  37.714 -12.844  1.00  0.00    -0.617 OA
HETATM   21  O5  UNL     1     -13.478  39.524 -13.755  1.00  0.00    -0.617 OA
HETATM   22  O6  UNL     1     -16.124  38.512 -14.191  1.00  0.00    -0.617 OA
ENDBRANCH  18  19
ENDBRANCH  17  18
ENDBRANCH   4  17
TORSDOF 5
ENDMDL
