MODEL 12
REMARK VINA RESULT: -7.094772607      3.398      6.830
REMARK  5 active torsions:
REMARK  status: ('A' for Active; 'I' for Inactive)
REMARK    1  A    between atoms: N1_5  and  C4_6 
REMARK    2  A    between atoms: C6_8  and  O2_9 
REMARK    3  A    between atoms: C7_11  and  C8_12 
REMARK    4  A    between atoms: C8_12  and  O3_13 
REMARK    5  A    between atoms: O3_13  and  P1_14 
ROOT
HETATM    1  C4  UNL     1     -17.556  37.620 -10.586  1.00  0.00     0.235 C 
HETATM    2  C5  UNL     1     -18.476  36.632 -11.262  1.00  0.00     0.088 C 
HETATM    3  C6  UNL     1     -19.140  36.037 -10.033  1.00  0.00     0.153 C 
HETATM    4  C7  UNL     1     -17.968  36.032  -9.067  1.00  0.00     0.177 C 
HETATM    5  O7  UNL     1     -17.032  36.908  -9.540  1.00  0.00    -0.356 OA
ENDROOT
BRANCH   1   6
HETATM    6  N1  UNL     1     -16.582  38.188 -11.464  1.00  0.00    -0.282 N 
HETATM    7  C3  UNL     1     -16.640  39.505 -11.740  1.00  0.00     0.104 A 
HETATM    8  C2  UNL     1     -15.752  40.145 -12.570  1.00  0.00     0.092 A 
HETATM    9  C1  UNL     1     -14.751  39.369 -13.143  1.00  0.00     0.250 A 
HETATM   10  O1  UNL     1     -13.902  39.879 -13.911  1.00  0.00    -0.268 OA
HETATM   11  N2  UNL     1     -14.696  38.049 -12.864  1.00  0.00    -0.275 N 
HETATM   12  C9  UNL     1     -15.593  37.487 -12.045  1.00  0.00     0.331 A 
ATOM     13  H2  UNL     1     -13.964  37.474 -13.280  1.00  0.00     0.173 HD
HETATM   14  O8  UNL     1     -15.563  36.243 -11.765  1.00  0.00    -0.246 OA
ENDBRANCH   1   6
BRANCH   3  15
HETATM   15  O2  UNL     1     -20.134  36.929  -9.638  1.00  0.00    -0.393 OA
ATOM     16  H2  UNL     1     -19.966  37.145  -8.728  1.00  0.00     0.210 HD
ENDBRANCH   3  15
BRANCH   4  17
HETATM   17  C8  UNL     1     -17.392  34.651  -9.064  1.00  0.00     0.217 C 
BRANCH  17  18
HETATM   18  O3  UNL     1     -16.650  34.356  -7.950  1.00  0.00    -0.280 OA
BRANCH  18  19
HETATM   19  P1  UNL     1     -17.320  34.316  -6.511  1.00  0.00     0.422 P 
HETATM   20  O4  UNL     1     -17.646  32.817  -6.491  1.00  0.00    -0.617 OA
HETATM   21  O5  UNL     1     -18.921  34.683  -6.269  1.00  0.00    -0.617 OA
HETATM   22  O6  UNL     1     -16.381  34.057  -5.098  1.00  0.00    -0.617 OA
ENDBRANCH  18  19
ENDBRANCH  17  18
ENDBRANCH   4  17
TORSDOF 5
ENDMDL
