MODEL 2
REMARK VINA RESULT: -9.152622545      1.104      1.427
REMARK  5 active torsions:
REMARK  status: ('A' for Active; 'I' for Inactive)
REMARK    1  A    between atoms: N1_5  and  C4_6 
REMARK    2  A    between atoms: C6_8  and  O2_9 
REMARK    3  A    between atoms: C7_11  and  C8_12 
REMARK    4  A    between atoms: C8_12  and  O3_13 
REMARK    5  A    between atoms: O3_13  and  P1_14 
ROOT
HETATM    1  C4  UNL     1     -18.375  35.357  -9.237  1.00  0.00     0.235 C 
HETATM    2  C5  UNL     1     -19.372  36.488  -9.153  1.00  0.00     0.088 C 
HETATM    3  C6  UNL     1     -19.709  36.626 -10.627  1.00  0.00     0.153 C 
HETATM    4  C7  UNL     1     -18.350  36.344 -11.244  1.00  0.00     0.177 C 
HETATM    5  O7  UNL     1     -17.592  35.698 -10.308  1.00  0.00    -0.356 OA
ENDROOT
BRANCH   1   6
HETATM    6  N1  UNL     1     -17.656  35.137  -8.023  1.00  0.00    -0.282 N 
HETATM    7  C3  UNL     1     -18.339  34.821  -6.906  1.00  0.00     0.104 A 
HETATM    8  C2  UNL     1     -17.742  34.590  -5.691  1.00  0.00     0.092 A 
HETATM    9  C1  UNL     1     -16.356  34.696  -5.638  1.00  0.00     0.250 A 
HETATM   10  O1  UNL     1     -15.737  34.500  -4.566  1.00  0.00    -0.268 OA
HETATM   11  N2  UNL     1     -15.674  35.013  -6.759  1.00  0.00    -0.275 N 
HETATM   12  C9  UNL     1     -16.319  35.225  -7.913  1.00  0.00     0.331 A 
ATOM     13  H2  UNL     1     -14.658  35.093  -6.727  1.00  0.00     0.173 HD
HETATM   14  O8  UNL     1     -15.698  35.526  -8.986  1.00  0.00    -0.246 OA
ENDBRANCH   1   6
BRANCH   3  15
HETATM   15  O2  UNL     1     -20.632  35.628 -10.926  1.00  0.00    -0.393 OA
ATOM     16  H2  UNL     1     -20.140  34.890 -11.266  1.00  0.00     0.210 HD
ENDBRANCH   3  15
BRANCH   4  17
HETATM   17  C8  UNL     1     -17.717  37.661 -11.565  1.00  0.00     0.217 C 
BRANCH  17  18
HETATM   18  O3  UNL     1     -17.999  38.124 -12.824  1.00  0.00    -0.280 OA
BRANCH  18  19
HETATM   19  P1  UNL     1     -16.972  39.055 -13.599  1.00  0.00     0.422 P 
HETATM   20  O4  UNL     1     -17.415  38.690 -15.021  1.00  0.00    -0.617 OA
HETATM   21  O5  UNL     1     -15.421  38.572 -13.941  1.00  0.00    -0.617 OA
HETATM   22  O6  UNL     1     -17.357  40.686 -13.975  1.00  0.00    -0.617 OA
ENDBRANCH  18  19
ENDBRANCH  17  18
ENDBRANCH   4  17
TORSDOF 5
ENDMDL
