MODEL 6
REMARK VINA RESULT: -7.106118635      2.103      5.451
REMARK  4 active torsions:
REMARK  status: ('A' for Active; 'I' for Inactive)
REMARK    1  A    between atoms: N1_5  and  C4_6 
REMARK    2  A    between atoms: C6_8  and  O2_9 
REMARK    3  A    between atoms: C7_11  and  C8_12 
REMARK    4  A    between atoms: C8_12  and  O3_13 
ROOT
HETATM    1  C4  UNL     1     -16.094  34.873  -7.477  1.00  0.00     0.235 C 
HETATM    2  C5  UNL     1     -15.819  35.950  -6.431  1.00  0.00     0.088 C 
HETATM    3  C6  UNL     1     -16.064  35.127  -5.179  1.00  0.00     0.153 C 
HETATM    4  C7  UNL     1     -17.224  34.268  -5.644  1.00  0.00     0.176 C 
HETATM    5  O4  UNL     1     -17.242  34.296  -7.015  1.00  0.00    -0.356 OA
ENDROOT
BRANCH   1   6
HETATM    6  N1  UNL     1     -16.198  35.443  -8.785  1.00  0.00    -0.282 N 
HETATM    7  C3  UNL     1     -16.769  36.678  -8.873  1.00  0.00     0.104 A 
HETATM    8  C2  UNL     1     -16.923  37.328 -10.076  1.00  0.00     0.092 A 
HETATM    9  C1  UNL     1     -16.487  36.703 -11.213  1.00  0.00     0.250 A 
HETATM   10  O1  UNL     1     -16.634  37.308 -12.309  1.00  0.00    -0.268 OA
HETATM   11  N2  UNL     1     -15.932  35.493 -11.100  1.00  0.00    -0.275 N 
HETATM   12  C9  UNL     1     -15.786  34.869  -9.913  1.00  0.00     0.331 A 
ATOM     13  H2  UNL     1     -15.605  35.022 -11.944  1.00  0.00     0.173 HD
HETATM   14  O5  UNL     1     -15.258  33.726  -9.833  1.00  0.00    -0.246 OA
ENDBRANCH   1   6
BRANCH   3  15
HETATM   15  O2  UNL     1     -14.920  34.383  -4.950  1.00  0.00    -0.393 OA
ATOM     16  H2  UNL     1     -15.198  33.501  -4.732  1.00  0.00     0.210 HD
ENDBRANCH   3  15
BRANCH   4  17
HETATM   17  C8  UNL     1     -18.492  34.983  -5.154  1.00  0.00     0.198 C 
BRANCH  17  18
HETATM   18  O3  UNL     1     -19.460  34.999  -6.171  1.00  0.00    -0.398 OA
ATOM     19  H3  UNL     1     -20.176  35.575  -5.932  1.00  0.00     0.209 HD
ENDBRANCH  17  18
ENDBRANCH   4  17
TORSDOF 4
ENDMDL
