MODEL 2
REMARK VINA RESULT: -7.334719747      1.766      5.394
REMARK  4 active torsions:
REMARK  status: ('A' for Active; 'I' for Inactive)
REMARK    1  A    between atoms: N1_5  and  C4_6 
REMARK    2  A    between atoms: C6_8  and  O2_9 
REMARK    3  A    between atoms: C7_11  and  C8_12 
REMARK    4  A    between atoms: C8_12  and  O3_13 
ROOT
HETATM    1  C4  UNL     1     -18.062  35.351  -8.249  1.00  0.00     0.235 C 
HETATM    2  C5  UNL     1     -17.355  33.998  -8.291  1.00  0.00     0.088 C 
HETATM    3  C6  UNL     1     -17.388  33.671  -6.809  1.00  0.00     0.153 C 
HETATM    4  C7  UNL     1     -17.161  35.051  -6.223  1.00  0.00     0.176 C 
HETATM    5  O4  UNL     1     -17.451  35.972  -7.197  1.00  0.00    -0.356 OA
ENDROOT
BRANCH   1   6
HETATM    6  N1  UNL     1     -17.938  36.035  -9.498  1.00  0.00    -0.282 N 
HETATM    7  C3  UNL     1     -16.672  36.250  -9.957  1.00  0.00     0.104 A 
HETATM    8  C2  UNL     1     -16.425  36.896 -11.146  1.00  0.00     0.092 A 
HETATM    9  C1  UNL     1     -17.493  37.333 -11.883  1.00  0.00     0.250 A 
HETATM   10  O1  UNL     1     -17.256  37.924 -12.970  1.00  0.00    -0.268 OA
HETATM   11  N2  UNL     1     -18.724  37.110 -11.411  1.00  0.00    -0.275 N 
HETATM   12  C9  UNL     1     -18.949  36.474 -10.243  1.00  0.00     0.331 A 
ATOM     13  H2  UNL     1     -19.524  37.433 -11.955  1.00  0.00     0.173 HD
HETATM   14  O5  UNL     1     -20.121  36.276  -9.820  1.00  0.00    -0.246 OA
ENDBRANCH   1   6
BRANCH   3  15
HETATM   15  O2  UNL     1     -18.652  33.184  -6.527  1.00  0.00    -0.393 OA
ATOM     16  H2  UNL     1     -18.539  32.348  -6.089  1.00  0.00     0.210 HD
ENDBRANCH   3  15
BRANCH   4  17
HETATM   17  C8  UNL     1     -15.653  35.141  -5.943  1.00  0.00     0.198 C 
BRANCH  17  18
HETATM   18  O3  UNL     1     -15.364  34.607  -4.677  1.00  0.00    -0.398 OA
ATOM     19  H3  UNL     1     -14.628  34.010  -4.735  1.00  0.00     0.209 HD
ENDBRANCH  17  18
ENDBRANCH   4  17
TORSDOF 4
ENDMDL
