MODEL 5
REMARK VINA RESULT: -7.110470240      3.180      5.258
REMARK  4 active torsions:
REMARK  status: ('A' for Active; 'I' for Inactive)
REMARK    1  A    between atoms: N1_5  and  C4_6 
REMARK    2  A    between atoms: C6_8  and  O2_9 
REMARK    3  A    between atoms: C7_11  and  C8_12 
REMARK    4  A    between atoms: C8_12  and  O3_13 
ROOT
HETATM    1  C4  UNL     1     -16.404  38.375 -12.614  1.00  0.00     0.235 C 
HETATM    2  C5  UNL     1     -17.439  39.125 -13.450  1.00  0.00     0.088 C 
HETATM    3  C6  UNL     1     -16.499  40.017 -14.239  1.00  0.00     0.153 C 
HETATM    4  C7  UNL     1     -15.462  40.324 -13.176  1.00  0.00     0.176 C 
HETATM    5  O4  UNL     1     -15.581  39.379 -12.190  1.00  0.00    -0.356 OA
ENDROOT
BRANCH   1   6
HETATM    6  N1  UNL     1     -17.030  37.634 -11.564  1.00  0.00    -0.282 N 
HETATM    7  C3  UNL     1     -18.194  38.141 -11.065  1.00  0.00     0.104 A 
HETATM    8  C2  UNL     1     -18.889  37.519 -10.053  1.00  0.00     0.092 A 
HETATM    9  C1  UNL     1     -18.385  36.353  -9.540  1.00  0.00     0.250 A 
HETATM   10  O1  UNL     1     -19.029  35.792  -8.614  1.00  0.00    -0.268 OA
HETATM   11  N2  UNL     1     -17.244  35.877 -10.048  1.00  0.00    -0.275 N 
HETATM   12  C9  UNL     1     -16.575  36.499 -11.039  1.00  0.00     0.331 A 
ATOM     13  H2  UNL     1     -16.863  35.009  -9.670  1.00  0.00     0.173 HD
HETATM   14  O5  UNL     1     -15.499  36.028 -11.501  1.00  0.00    -0.246 OA
ENDBRANCH   1   6
BRANCH   3  15
HETATM   15  O2  UNL     1     -15.981  39.254 -15.271  1.00  0.00    -0.393 OA
ATOM     16  H2  UNL     1     -15.645  38.453 -14.886  1.00  0.00     0.210 HD
ENDBRANCH   3  15
BRANCH   4  17
HETATM   17  C8  UNL     1     -15.877  41.673 -12.569  1.00  0.00     0.198 C 
BRANCH  17  18
HETATM   18  O3  UNL     1     -15.448  41.754 -11.234  1.00  0.00    -0.398 OA
ATOM     19  H3  UNL     1     -15.469  42.656 -10.939  1.00  0.00     0.209 HD
ENDBRANCH  17  18
ENDBRANCH   4  17
TORSDOF 4
ENDMDL
