MODEL 1
REMARK VINA RESULT: -8.552030664      0.000      0.000
REMARK  4 active torsions:
REMARK  status: ('A' for Active; 'I' for Inactive)
REMARK    1  A    between atoms: N1_5  and  C4_6 
REMARK    2  A    between atoms: C6_8  and  O2_9 
REMARK    3  A    between atoms: C7_11  and  C8_12 
REMARK    4  A    between atoms: C8_12  and  O3_13 
ROOT
HETATM    1  C4  UNL     1     -18.074  35.490  -8.853  1.00  0.00     0.235 C 
HETATM    2  C5  UNL     1     -19.093  36.619  -8.712  1.00  0.00     0.088 C 
HETATM    3  C6  UNL     1     -19.305  36.927 -10.183  1.00  0.00     0.153 C 
HETATM    4  C7  UNL     1     -17.895  36.731 -10.706  1.00  0.00     0.176 C 
HETATM    5  O4  UNL     1     -17.206  35.988  -9.781  1.00  0.00    -0.356 OA
ENDROOT
BRANCH   1   6
HETATM    6  N1  UNL     1     -17.481  35.172  -7.591  1.00  0.00    -0.282 N 
HETATM    7  C3  UNL     1     -16.240  35.684  -7.351  1.00  0.00     0.104 A 
HETATM    8  C2  UNL     1     -15.567  35.449  -6.174  1.00  0.00     0.092 A 
HETATM    9  C1  UNL     1     -16.174  34.674  -5.222  1.00  0.00     0.250 A 
HETATM   10  O1  UNL     1     -15.549  34.465  -4.148  1.00  0.00    -0.268 OA
HETATM   11  N2  UNL     1     -17.391  34.184  -5.483  1.00  0.00    -0.275 N 
HETATM   12  C9  UNL     1     -18.037  34.425  -6.641  1.00  0.00     0.331 A 
ATOM     13  H2  UNL     1     -17.848  33.606  -4.778  1.00  0.00     0.173 HD
HETATM   14  O5  UNL     1     -19.185  33.951  -6.862  1.00  0.00    -0.246 OA
ENDBRANCH   1   6
BRANCH   3  15
HETATM   15  O2  UNL     1     -20.183  35.978 -10.676  1.00  0.00    -0.393 OA
ATOM     16  H2  UNL     1     -19.844  35.692 -11.516  1.00  0.00     0.210 HD
ENDBRANCH   3  15
BRANCH   4  17
HETATM   17  C8  UNL     1     -17.263  38.131 -10.731  1.00  0.00     0.198 C 
BRANCH  17  18
HETATM   18  O3  UNL     1     -18.012  38.984 -11.557  1.00  0.00    -0.398 OA
ATOM     19  H3  UNL     1     -17.686  39.873 -11.489  1.00  0.00     0.209 HD
ENDBRANCH  17  18
ENDBRANCH   4  17
TORSDOF 4
ENDMDL
