MODEL 4
REMARK VINA RESULT: -7.135230591      1.309      1.629
REMARK  4 active torsions:
REMARK  status: ('A' for Active; 'I' for Inactive)
REMARK    1  A    between atoms: N1_5  and  C4_6 
REMARK    2  A    between atoms: C6_8  and  O2_9 
REMARK    3  A    between atoms: C7_11  and  C8_12 
REMARK    4  A    between atoms: C8_12  and  O3_13 
ROOT
HETATM    1  C4  UNL     1     -18.294  35.570  -9.082  1.00  0.00     0.235 C 
HETATM    2  C5  UNL     1     -19.362  36.642  -8.884  1.00  0.00     0.088 C 
HETATM    3  C6  UNL     1     -19.715  36.892 -10.339  1.00  0.00     0.153 C 
HETATM    4  C7  UNL     1     -18.344  36.762 -10.975  1.00  0.00     0.176 C 
HETATM    5  O4  UNL     1     -17.537  36.089 -10.094  1.00  0.00    -0.356 OA
ENDROOT
BRANCH   1   6
HETATM    6  N1  UNL     1     -17.579  35.326  -7.868  1.00  0.00    -0.282 N 
HETATM    7  C3  UNL     1     -18.327  35.074  -6.756  1.00  0.00     0.104 A 
HETATM    8  C2  UNL     1     -17.753  34.824  -5.530  1.00  0.00     0.092 A 
HETATM    9  C1  UNL     1     -16.387  34.834  -5.437  1.00  0.00     0.250 A 
HETATM   10  O1  UNL     1     -15.873  34.605  -4.310  1.00  0.00    -0.268 OA
HETATM   11  N2  UNL     1     -15.677  35.084  -6.543  1.00  0.00    -0.275 N 
HETATM   12  C9  UNL     1     -16.255  35.326  -7.737  1.00  0.00     0.331 A 
ATOM     13  H2  UNL     1     -14.659  35.092  -6.480  1.00  0.00     0.173 HD
HETATM   14  O5  UNL     1     -15.562  35.559  -8.765  1.00  0.00    -0.246 OA
ENDBRANCH   1   6
BRANCH   3  15
HETATM   15  O2  UNL     1     -20.573  35.879 -10.731  1.00  0.00    -0.393 OA
ATOM     16  H2  UNL     1     -21.010  36.173 -11.522  1.00  0.00     0.210 HD
ENDBRANCH   3  15
BRANCH   4  17
HETATM   17  C8  UNL     1     -17.802  38.194 -11.090  1.00  0.00     0.198 C 
BRANCH  17  18
HETATM   18  O3  UNL     1     -18.379  38.842 -12.194  1.00  0.00    -0.398 OA
ATOM     19  H3  UNL     1     -19.324  38.750 -12.170  1.00  0.00     0.209 HD
ENDBRANCH  17  18
ENDBRANCH   4  17
TORSDOF 4
ENDMDL
