MODEL 2
REMARK VINA RESULT: -9.865126472      1.390      1.980
REMARK  11 active torsions:
REMARK  status: ('A' for Active; 'I' for Inactive)
REMARK    1  A    between atoms: C2_2  and  C3_3 
REMARK    2  A    between atoms: C3_3  and  C4_4 
REMARK    3  A    between atoms: C4_4  and  C5_5 
REMARK    4  A    between atoms: C4_4  and  C24_32 
REMARK    5  A    between atoms: C5_5  and  C6_6 
REMARK    6  A    between atoms: C6_6  and  C7_7 
REMARK       I    between atoms: C7_7  and  N1_9 
REMARK    7  A    between atoms: N1_9  and  C8_11 
REMARK    8  A    between atoms: C8_11  and  C9_12 
REMARK    9  A    between atoms: C8_11  and  C19_25 
REMARK   10  A    between atoms: C9_12  and  C10_13 
REMARK   11  A    between atoms: C12_17  and  C13_18 
ROOT
HETATM    1  C7  UNL     1      30.280  43.272  34.845  1.00  0.00     0.231 C 
HETATM    2  O1  UNL     1      31.421  42.925  35.173  1.00  0.00    -0.272 OA
HETATM    3  N1  UNL     1      29.136  42.772  35.521  1.00  0.00    -0.345 N 
ATOM      4  H1  UNL     1      28.204  43.074  35.236  1.00  0.00     0.163 HD
ENDROOT
BRANCH   3   5
HETATM    5  C8  UNL     1      29.290  41.828  36.623  1.00  0.00     0.193 C 
BRANCH   5   6
HETATM    6  C9  UNL     1      30.242  42.435  37.620  1.00  0.00     0.120 C 
BRANCH   6   7
HETATM    7  C10 UNL     1      30.213  41.667  38.892  1.00  0.00     0.126 A 
HETATM    8  N2  UNL     1      29.132  41.110  39.474  1.00  0.00    -0.347 N 
HETATM    9  C11 UNL     1      29.539  40.508  40.607  1.00  0.00     0.128 A 
ATOM     10  H2  UNL     1      28.176  41.139  39.119  1.00  0.00     0.167 HD
HETATM   11  C12 UNL     1      30.899  40.701  40.721  1.00  0.00     0.103 A 
HETATM   12  O2  UNL     1      31.238  41.396  39.673  1.00  0.00    -0.295 OA
BRANCH  11  13
HETATM   13  C13 UNL     1      31.769  40.218  41.805  1.00  0.00    -0.001 A 
HETATM   14  C14 UNL     1      31.254  39.514  42.873  1.00  0.00     0.014 A 
HETATM   15  C15 UNL     1      32.055  39.055  43.891  1.00  0.00     0.001 A 
HETATM   16  C16 UNL     1      33.396  39.302  43.847  1.00  0.00     0.000 A 
HETATM   17  C17 UNL     1      33.909  40.009  42.775  1.00  0.00     0.001 A 
HETATM   18  C18 UNL     1      33.113  40.472  41.748  1.00  0.00     0.014 A 
ENDBRANCH  11  13
ENDBRANCH   6   7
ENDBRANCH   5   6
BRANCH   5  19
HETATM   19  C19 UNL     1      29.738  40.517  36.175  1.00  0.00     0.197 C 
HETATM   20  O3  UNL     1      28.960  39.775  35.517  1.00  0.00    -0.646 OA
HETATM   21  O4  UNL     1      30.994  40.017  36.428  1.00  0.00    -0.646 OA
ENDBRANCH   5  19
ENDBRANCH   3   5
BRANCH   1  22
HETATM   22  C6  UNL     1      30.013  44.269  33.682  1.00  0.00     0.059 C 
HETATM   23  C20 UNL     1      31.336  45.077  33.731  1.00  0.00     0.023 C 
HETATM   24  C21 UNL     1      31.039  46.300  34.516  1.00  0.00     0.002 C 
HETATM   25  C22 UNL     1      29.574  46.363  34.794  1.00  0.00     0.002 C 
HETATM   26  C23 UNL     1      28.958  45.220  34.062  1.00  0.00     0.023 C 
BRANCH  22  27
HETATM   27  C5  UNL     1      29.866  43.430  32.510  1.00  0.00     0.011 C 
BRANCH  27  28
HETATM   28  C4  UNL     1      28.812  43.210  31.584  1.00  0.00     0.037 C 
BRANCH  28  29
HETATM   29  C3  UNL     1      28.695  43.065  30.153  1.00  0.00     0.013 C 
BRANCH  29  30
HETATM   30  C2  UNL     1      27.547  43.440  29.326  1.00  0.00    -0.030 C 
HETATM   31  C1  UNL     1      26.689  42.496  28.613  1.00  0.00     0.036 C 
ENDBRANCH  29  30
ENDBRANCH  28  29
BRANCH  28  32
HETATM   32  C24 UNL     1      28.047  41.955  32.146  1.00  0.00     0.209 C 
HETATM   33  O5  UNL     1      28.125  40.870  31.554  1.00  0.00    -0.644 OA
HETATM   34  O6  UNL     1      27.304  42.089  33.289  1.00  0.00    -0.644 OA
ENDBRANCH  28  32
ENDBRANCH  27  28
ENDBRANCH  22  27
ENDBRANCH   1  22
TORSDOF 11
ENDMDL
