MODEL 5
REMARK VINA RESULT: -9.067066102      2.275      8.048
REMARK  11 active torsions:
REMARK  status: ('A' for Active; 'I' for Inactive)
REMARK    1  A    between atoms: C2_2  and  C3_3 
REMARK    2  A    between atoms: C3_3  and  C4_4 
REMARK    3  A    between atoms: C4_4  and  C5_5 
REMARK    4  A    between atoms: C4_4  and  C24_32 
REMARK    5  A    between atoms: C5_5  and  C6_6 
REMARK    6  A    between atoms: C6_6  and  C7_7 
REMARK       I    between atoms: C7_7  and  N1_9 
REMARK    7  A    between atoms: N1_9  and  C8_11 
REMARK    8  A    between atoms: C8_11  and  C9_12 
REMARK    9  A    between atoms: C8_11  and  C19_25 
REMARK   10  A    between atoms: C9_12  and  C10_13 
REMARK   11  A    between atoms: C12_17  and  C13_18 
ROOT
HETATM    1  C7  UNL     1      28.819  39.834  38.156  1.00  0.00     0.231 C 
HETATM    2  O1  UNL     1      28.780  38.649  38.508  1.00  0.00    -0.272 OA
HETATM    3  N1  UNL     1      28.053  40.301  37.055  1.00  0.00    -0.345 N 
ATOM      4  H1  UNL     1      28.098  41.283  36.784  1.00  0.00     0.163 HD
ENDROOT
BRANCH   3   5
HETATM    5  C8  UNL     1      27.201  39.379  36.312  1.00  0.00     0.193 C 
BRANCH   5   6
HETATM    6  C9  UNL     1      27.769  39.244  34.923  1.00  0.00     0.120 C 
BRANCH   6   7
HETATM    7  C10 UNL     1      27.920  40.583  34.298  1.00  0.00     0.126 A 
HETATM    8  N2  UNL     1      27.168  41.099  33.305  1.00  0.00    -0.347 N 
HETATM    9  C11 UNL     1      27.635  42.332  33.034  1.00  0.00     0.128 A 
ATOM     10  H2  UNL     1      26.385  40.638  32.841  1.00  0.00     0.167 HD
HETATM   11  C12 UNL     1      28.696  42.576  33.880  1.00  0.00     0.103 A 
HETATM   12  O2  UNL     1      28.814  41.500  34.604  1.00  0.00    -0.295 OA
BRANCH  11  13
HETATM   13  C13 UNL     1      29.511  43.799  33.939  1.00  0.00    -0.001 A 
HETATM   14  C14 UNL     1      30.889  43.742  33.898  1.00  0.00     0.014 A 
HETATM   15  C15 UNL     1      31.663  44.875  33.951  1.00  0.00     0.001 A 
HETATM   16  C16 UNL     1      31.055  46.093  34.049  1.00  0.00     0.000 A 
HETATM   17  C17 UNL     1      29.674  46.148  34.090  1.00  0.00     0.001 A 
HETATM   18  C18 UNL     1      28.890  45.015  34.036  1.00  0.00     0.014 A 
ENDBRANCH  11  13
ENDBRANCH   6   7
ENDBRANCH   5   6
BRANCH   5  19
HETATM   19  C19 UNL     1      25.807  39.802  36.289  1.00  0.00     0.197 C 
HETATM   20  O3  UNL     1      25.110  39.623  35.254  1.00  0.00    -0.646 OA
HETATM   21  O4  UNL     1      25.181  40.404  37.355  1.00  0.00    -0.646 OA
ENDBRANCH   5  19
ENDBRANCH   3   5
BRANCH   1  22
HETATM   22  C6  UNL     1      29.699  40.891  38.882  1.00  0.00     0.059 C 
HETATM   23  C20 UNL     1      28.829  42.152  38.642  1.00  0.00     0.023 C 
HETATM   24  C21 UNL     1      29.418  42.836  37.465  1.00  0.00     0.002 C 
HETATM   25  C22 UNL     1      30.693  42.158  37.087  1.00  0.00     0.002 C 
HETATM   26  C23 UNL     1      30.941  41.120  38.127  1.00  0.00     0.023 C 
BRANCH  22  27
HETATM   27  C5  UNL     1      29.742  40.444  40.259  1.00  0.00     0.011 C 
BRANCH  27  28
HETATM   28  C4  UNL     1      30.696  40.567  41.304  1.00  0.00     0.037 C 
BRANCH  28  29
HETATM   29  C3  UNL     1      30.660  40.649  42.745  1.00  0.00     0.013 C 
BRANCH  29  30
HETATM   30  C2  UNL     1      31.374  41.612  43.585  1.00  0.00    -0.030 C 
HETATM   31  C1  UNL     1      32.366  42.568  43.100  1.00  0.00     0.036 C 
ENDBRANCH  29  30
ENDBRANCH  28  29
BRANCH  28  32
HETATM   32  C24 UNL     1      31.739  39.421  41.025  1.00  0.00     0.209 C 
HETATM   33  O5  UNL     1      31.342  38.291  40.711  1.00  0.00    -0.644 OA
HETATM   34  O6  UNL     1      33.075  39.701  41.135  1.00  0.00    -0.644 OA
ENDBRANCH  28  32
ENDBRANCH  27  28
ENDBRANCH  22  27
ENDBRANCH   1  22
TORSDOF 11
ENDMDL
