MODEL 3
REMARK VINA RESULT: -9.714939711      1.658      2.350
REMARK  11 active torsions:
REMARK  status: ('A' for Active; 'I' for Inactive)
REMARK    1  A    between atoms: C2_2  and  C3_3 
REMARK    2  A    between atoms: C3_3  and  C4_4 
REMARK    3  A    between atoms: C4_4  and  C5_5 
REMARK    4  A    between atoms: C4_4  and  C24_32 
REMARK    5  A    between atoms: C5_5  and  C6_6 
REMARK    6  A    between atoms: C6_6  and  C7_7 
REMARK       I    between atoms: C7_7  and  N1_9 
REMARK    7  A    between atoms: N1_9  and  C8_11 
REMARK    8  A    between atoms: C8_11  and  C9_12 
REMARK    9  A    between atoms: C8_11  and  C19_25 
REMARK   10  A    between atoms: C9_12  and  C10_13 
REMARK   11  A    between atoms: C12_17  and  C13_18 
ROOT
HETATM    1  C7  UNL     1      30.303  43.406  34.926  1.00  0.00     0.231 C 
HETATM    2  O1  UNL     1      31.349  42.746  34.941  1.00  0.00    -0.272 OA
HETATM    3  N1  UNL     1      29.241  43.123  35.826  1.00  0.00    -0.345 N 
ATOM      4  H1  UNL     1      28.388  43.682  35.798  1.00  0.00     0.163 HD
ENDROOT
BRANCH   3   5
HETATM    5  C8  UNL     1      29.367  42.034  36.789  1.00  0.00     0.193 C 
BRANCH   5   6
HETATM    6  C9  UNL     1      30.612  42.279  37.601  1.00  0.00     0.120 C 
BRANCH   6   7
HETATM    7  C10 UNL     1      30.518  41.583  38.910  1.00  0.00     0.126 A 
HETATM    8  N2  UNL     1      29.393  41.156  39.517  1.00  0.00    -0.347 N 
HETATM    9  C11 UNL     1      29.747  40.579  40.680  1.00  0.00     0.128 A 
ATOM     10  H2  UNL     1      28.442  41.252  39.160  1.00  0.00     0.167 HD
HETATM   11  C12 UNL     1      31.119  40.655  40.787  1.00  0.00     0.103 A 
HETATM   12  O2  UNL     1      31.517  41.261  39.705  1.00  0.00    -0.295 OA
BRANCH  11  13
HETATM   13  C13 UNL     1      31.945  40.151  41.896  1.00  0.00    -0.001 A 
HETATM   14  C14 UNL     1      31.403  39.366  42.891  1.00  0.00     0.014 A 
HETATM   15  C15 UNL     1      32.162  38.888  43.932  1.00  0.00     0.001 A 
HETATM   16  C16 UNL     1      33.490  39.198  43.985  1.00  0.00     0.000 A 
HETATM   17  C17 UNL     1      34.031  39.985  42.985  1.00  0.00     0.001 A 
HETATM   18  C18 UNL     1      33.277  40.468  41.937  1.00  0.00     0.014 A 
ENDBRANCH  11  13
ENDBRANCH   6   7
ENDBRANCH   5   6
BRANCH   5  19
HETATM   19  C19 UNL     1      29.383  40.725  36.152  1.00  0.00     0.197 C 
HETATM   20  O3  UNL     1      28.399  40.347  35.460  1.00  0.00    -0.646 OA
HETATM   21  O4  UNL     1      30.434  39.844  36.257  1.00  0.00    -0.646 OA
ENDBRANCH   5  19
ENDBRANCH   3   5
BRANCH   1  22
HETATM   22  C6  UNL     1      30.072  44.581  33.934  1.00  0.00     0.059 C 
HETATM   23  C20 UNL     1      31.506  45.170  33.902  1.00  0.00     0.023 C 
HETATM   24  C21 UNL     1      31.503  46.305  34.857  1.00  0.00     0.002 C 
HETATM   25  C22 UNL     1      30.109  46.544  35.334  1.00  0.00     0.002 C 
HETATM   26  C23 UNL     1      29.236  45.615  34.561  1.00  0.00     0.023 C 
BRANCH  22  27
HETATM   27  C5  UNL     1      29.658  43.941  32.703  1.00  0.00     0.011 C 
BRANCH  27  28
HETATM   28  C4  UNL     1      28.772  42.874  32.398  1.00  0.00     0.037 C 
BRANCH  28  29
HETATM   29  C3  UNL     1      27.398  42.544  32.690  1.00  0.00     0.013 C 
BRANCH  29  30
HETATM   30  C2  UNL     1      26.618  41.449  32.111  1.00  0.00    -0.030 C 
HETATM   31  C1  UNL     1      26.833  40.032  32.393  1.00  0.00     0.036 C 
ENDBRANCH  29  30
ENDBRANCH  28  29
BRANCH  28  32
HETATM   32  C24 UNL     1      28.867  42.715  30.835  1.00  0.00     0.209 C 
HETATM   33  O5  UNL     1      28.343  43.560  30.097  1.00  0.00    -0.644 OA
HETATM   34  O6  UNL     1      29.534  41.635  30.318  1.00  0.00    -0.644 OA
ENDBRANCH  28  32
ENDBRANCH  27  28
ENDBRANCH  22  27
ENDBRANCH   1  22
TORSDOF 11
ENDMDL
