MODEL 7
REMARK VINA RESULT: -8.999511702      2.113      7.896
REMARK  11 active torsions:
REMARK  status: ('A' for Active; 'I' for Inactive)
REMARK    1  A    between atoms: C2_2  and  C3_3 
REMARK    2  A    between atoms: C3_3  and  C4_4 
REMARK    3  A    between atoms: C4_4  and  C5_5 
REMARK    4  A    between atoms: C4_4  and  C24_32 
REMARK    5  A    between atoms: C5_5  and  C6_6 
REMARK    6  A    between atoms: C6_6  and  C7_7 
REMARK       I    between atoms: C7_7  and  N1_9 
REMARK    7  A    between atoms: N1_9  and  C8_11 
REMARK    8  A    between atoms: C8_11  and  C9_12 
REMARK    9  A    between atoms: C8_11  and  C19_25 
REMARK   10  A    between atoms: C9_12  and  C10_13 
REMARK   11  A    between atoms: C12_17  and  C13_18 
ROOT
HETATM    1  C7  UNL     1      30.149  39.939  37.083  1.00  0.00     0.231 C 
HETATM    2  O1  UNL     1      30.958  39.166  36.557  1.00  0.00    -0.272 OA
HETATM    3  N1  UNL     1      28.770  39.907  36.742  1.00  0.00    -0.345 N 
ATOM      4  H1  UNL     1      28.120  40.552  37.190  1.00  0.00     0.163 HD
ENDROOT
BRANCH   3   5
HETATM    5  C8  UNL     1      28.283  38.953  35.751  1.00  0.00     0.193 C 
BRANCH   5   6
HETATM    6  C9  UNL     1      27.159  39.609  34.993  1.00  0.00     0.120 C 
BRANCH   6   7
HETATM    7  C10 UNL     1      27.670  40.770  34.219  1.00  0.00     0.126 A 
HETATM    8  N2  UNL     1      27.440  41.038  32.919  1.00  0.00    -0.347 N 
HETATM    9  C11 UNL     1      28.083  42.180  32.614  1.00  0.00     0.128 A 
ATOM     10  H2  UNL     1      26.877  40.475  32.279  1.00  0.00     0.167 HD
HETATM   11  C12 UNL     1      28.721  42.621  33.752  1.00  0.00     0.103 A 
HETATM   12  O2  UNL     1      28.438  41.741  34.670  1.00  0.00    -0.295 OA
BRANCH  11  13
HETATM   13  C13 UNL     1      29.545  43.833  33.887  1.00  0.00    -0.001 A 
HETATM   14  C14 UNL     1      30.923  43.764  33.878  1.00  0.00     0.014 A 
HETATM   15  C15 UNL     1      31.705  44.887  34.001  1.00  0.00     0.001 A 
HETATM   16  C16 UNL     1      31.105  46.105  34.137  1.00  0.00     0.000 A 
HETATM   17  C17 UNL     1      29.724  46.170  34.145  1.00  0.00     0.001 A 
HETATM   18  C18 UNL     1      28.931  45.049  34.021  1.00  0.00     0.014 A 
ENDBRANCH  11  13
ENDBRANCH   6   7
ENDBRANCH   5   6
BRANCH   5  19
HETATM   19  C19 UNL     1      27.870  37.691  36.349  1.00  0.00     0.197 C 
HETATM   20  O3  UNL     1      27.894  36.631  35.666  1.00  0.00    -0.646 OA
HETATM   21  O4  UNL     1      27.442  37.572  37.650  1.00  0.00    -0.646 OA
ENDBRANCH   5  19
ENDBRANCH   3   5
BRANCH   1  22
HETATM   22  C6  UNL     1      30.572  40.993  38.145  1.00  0.00     0.059 C 
HETATM   23  C20 UNL     1      29.208  41.199  38.855  1.00  0.00     0.023 C 
HETATM   24  C21 UNL     1      28.613  42.415  38.249  1.00  0.00     0.002 C 
HETATM   25  C22 UNL     1      29.610  43.053  37.341  1.00  0.00     0.002 C 
HETATM   26  C23 UNL     1      30.873  42.276  37.493  1.00  0.00     0.023 C 
BRANCH  22  27
HETATM   27  C5  UNL     1      31.571  40.319  38.949  1.00  0.00     0.011 C 
BRANCH  27  28
HETATM   28  C4  UNL     1      31.977  40.424  40.306  1.00  0.00     0.037 C 
BRANCH  28  29
HETATM   29  C3  UNL     1      32.036  41.469  41.299  1.00  0.00     0.013 C 
BRANCH  29  30
HETATM   30  C2  UNL     1      33.129  41.724  42.239  1.00  0.00    -0.030 C 
HETATM   31  C1  UNL     1      33.540  40.815  43.306  1.00  0.00     0.036 C 
ENDBRANCH  29  30
ENDBRANCH  28  29
BRANCH  28  32
HETATM   32  C24 UNL     1      31.213  39.260  41.039  1.00  0.00     0.209 C 
HETATM   33  O5  UNL     1      30.493  39.514  42.014  1.00  0.00    -0.644 OA
HETATM   34  O6  UNL     1      31.359  37.978  40.579  1.00  0.00    -0.644 OA
ENDBRANCH  28  32
ENDBRANCH  27  28
ENDBRANCH  22  27
ENDBRANCH   1  22
TORSDOF 11
ENDMDL
