MODEL 4
REMARK VINA RESULT: -9.159865535      2.825      8.548
REMARK  11 active torsions:
REMARK  status: ('A' for Active; 'I' for Inactive)
REMARK    1  A    between atoms: C2_2  and  C3_3 
REMARK    2  A    between atoms: C3_3  and  C4_4 
REMARK    3  A    between atoms: C4_4  and  C5_5 
REMARK    4  A    between atoms: C4_4  and  C24_32 
REMARK    5  A    between atoms: C5_5  and  C6_6 
REMARK    6  A    between atoms: C6_6  and  C7_7 
REMARK       I    between atoms: C7_7  and  N1_9 
REMARK    7  A    between atoms: N1_9  and  C8_11 
REMARK    8  A    between atoms: C8_11  and  C9_12 
REMARK    9  A    between atoms: C8_11  and  C19_25 
REMARK   10  A    between atoms: C9_12  and  C10_13 
REMARK   11  A    between atoms: C12_17  and  C13_18 
ROOT
HETATM    1  C7  UNL     1      30.668  39.804  38.484  1.00  0.00     0.231 C 
HETATM    2  O1  UNL     1      31.553  39.548  37.659  1.00  0.00    -0.272 OA
HETATM    3  N1  UNL     1      29.696  38.832  38.844  1.00  0.00    -0.345 N 
ATOM      4  H1  UNL     1      28.975  39.063  39.529  1.00  0.00     0.163 HD
ENDROOT
BRANCH   3   5
HETATM    5  C8  UNL     1      29.725  37.506  38.237  1.00  0.00     0.193 C 
BRANCH   5   6
HETATM    6  C9  UNL     1      28.306  37.110  37.926  1.00  0.00     0.120 C 
BRANCH   6   7
HETATM    7  C10 UNL     1      27.625  38.191  37.168  1.00  0.00     0.126 A 
HETATM    8  N2  UNL     1      26.451  38.777  37.476  1.00  0.00    -0.347 N 
HETATM    9  C11 UNL     1      26.194  39.704  36.536  1.00  0.00     0.128 A 
ATOM     10  H2  UNL     1      25.861  38.556  38.279  1.00  0.00     0.167 HD
HETATM   11  C12 UNL     1      27.235  39.687  35.632  1.00  0.00     0.103 A 
HETATM   12  O2  UNL     1      28.051  38.768  36.063  1.00  0.00    -0.295 OA
BRANCH  11  13
HETATM   13  C13 UNL     1      27.378  40.535  34.438  1.00  0.00    -0.001 A 
HETATM   14  C14 UNL     1      26.620  40.310  33.308  1.00  0.00     0.014 A 
HETATM   15  C15 UNL     1      26.743  41.094  32.186  1.00  0.00     0.001 A 
HETATM   16  C16 UNL     1      27.639  42.123  32.187  1.00  0.00     0.000 A 
HETATM   17  C17 UNL     1      28.397  42.346  33.321  1.00  0.00     0.001 A 
HETATM   18  C18 UNL     1      28.280  41.565  34.452  1.00  0.00     0.014 A 
ENDBRANCH  11  13
ENDBRANCH   6   7
ENDBRANCH   5   6
BRANCH   5  19
HETATM   19  C19 UNL     1      30.390  36.522  39.080  1.00  0.00     0.197 C 
HETATM   20  O3  UNL     1      31.565  36.730  39.487  1.00  0.00    -0.646 OA
HETATM   21  O4  UNL     1      29.804  35.342  39.476  1.00  0.00    -0.646 OA
ENDBRANCH   5  19
ENDBRANCH   3   5
BRANCH   1  22
HETATM   22  C6  UNL     1      30.551  41.188  39.181  1.00  0.00     0.059 C 
HETATM   23  C20 UNL     1      29.006  41.315  39.235  1.00  0.00     0.023 C 
HETATM   24  C21 UNL     1      28.623  42.148  38.070  1.00  0.00     0.002 C 
HETATM   25  C22 UNL     1      29.856  42.676  37.415  1.00  0.00     0.002 C 
HETATM   26  C23 UNL     1      31.000  42.253  38.271  1.00  0.00     0.023 C 
BRANCH  22  27
HETATM   27  C5  UNL     1      31.184  41.001  40.470  1.00  0.00     0.011 C 
BRANCH  27  28
HETATM   28  C4  UNL     1      32.387  41.479  41.054  1.00  0.00     0.037 C 
BRANCH  28  29
HETATM   29  C3  UNL     1      32.752  42.180  42.262  1.00  0.00     0.013 C 
BRANCH  29  30
HETATM   30  C2  UNL     1      31.902  42.415  43.430  1.00  0.00    -0.030 C 
HETATM   31  C1  UNL     1      31.268  41.367  44.226  1.00  0.00     0.036 C 
ENDBRANCH  29  30
ENDBRANCH  28  29
BRANCH  28  32
HETATM   32  C24 UNL     1      33.355  40.239  41.038  1.00  0.00     0.209 C 
HETATM   33  O5  UNL     1      33.834  39.846  39.966  1.00  0.00    -0.644 OA
HETATM   34  O6  UNL     1      33.652  39.614  42.220  1.00  0.00    -0.644 OA
ENDBRANCH  28  32
ENDBRANCH  27  28
ENDBRANCH  22  27
ENDBRANCH   1  22
TORSDOF 11
ENDMDL
