MODEL 6
REMARK VINA RESULT: -6.347031221      2.271      6.222
REMARK  9 active torsions:
REMARK  status: ('A' for Active; 'I' for Inactive)
REMARK    1  A    between atoms: O1_1  and  C1_3 
REMARK    2  A    between atoms: C1_3  and  C2_4 
REMARK    3  A    between atoms: C3_6  and  O3_7 
REMARK    4  A    between atoms: O3_7  and  C4_8 
REMARK    5  A    between atoms: C4_8  and  C5_9 
REMARK    6  A    between atoms: C7_14  and  O4_15 
REMARK    7  A    between atoms: C8_17  and  O5_18 
REMARK    8  A    between atoms: C9_20  and  O6_21 
REMARK    9  A    between atoms: C10_23  and  O7_24 
ROOT
HETATM    1  O3  UNL     1      67.042  29.137  52.798  1.00  0.00    -0.356 OA
ENDROOT
BRANCH   1   2
HETATM    2  C3  UNL     1      67.074  27.856  53.274  1.00  0.00     0.291 C 
HETATM    3  O2  UNL     1      67.176  26.896  52.274  1.00  0.00    -0.348 OA
HETATM    4  C2  UNL     1      66.792  25.693  52.799  1.00  0.00     0.179 C 
HETATM    5  C10 UNL     1      66.064  25.946  54.094  1.00  0.00     0.182 C 
HETATM    6  C9  UNL     1      65.791  27.432  53.965  1.00  0.00     0.204 C 
BRANCH   4   7
HETATM    7  C1  UNL     1      67.991  24.778  53.000  1.00  0.00     0.198 C 
BRANCH   7   8
HETATM    8  O1  UNL     1      67.942  24.213  54.278  1.00  0.00    -0.398 OA
ATOM      9  H1  UNL     1      67.113  23.768  54.401  1.00  0.00     0.209 HD
ENDBRANCH   7   8
ENDBRANCH   4   7
BRANCH   5  10
HETATM   10  O7  UNL     1      64.897  25.208  54.205  1.00  0.00    -0.390 OA
ATOM     11  H7  UNL     1      64.231  25.647  54.722  1.00  0.00     0.210 HD
ENDBRANCH   5  10
BRANCH   6  12
HETATM   12  O6  UNL     1      65.628  28.042  55.200  1.00  0.00    -0.388 OA
ATOM     13  H6  UNL     1      64.721  28.258  55.381  1.00  0.00     0.210 HD
ENDBRANCH   6  12
ENDBRANCH   1   2
BRANCH   1  14
HETATM   14  C4  UNL     1      65.972  29.254  51.915  1.00  0.00     0.206 C 
BRANCH  14  15
HETATM   15  C5  UNL     1      66.324  30.138  50.729  1.00  0.00     0.240 C 
HETATM   16  N1  UNL     1      65.320  30.098  49.711  1.00  0.00    -0.064 N 
HETATM   17  C6  UNL     1      65.987  29.788  48.459  1.00  0.00     0.267 C 
ATOM     18  H12 UNL     1      64.559  29.455  49.927  1.00  0.00     0.277 HD
ATOM     19  H11 UNL     1      64.764  30.951  49.665  1.00  0.00     0.277 HD
HETATM   20  C7  UNL     1      67.088  28.853  48.940  1.00  0.00     0.174 C 
HETATM   21  C8  UNL     1      67.617  29.637  50.122  1.00  0.00     0.181 C 
BRANCH  20  22
HETATM   22  O4  UNL     1      66.560  27.670  49.416  1.00  0.00    -0.391 OA
ATOM     23  H4  UNL     1      67.223  27.157  49.863  1.00  0.00     0.210 HD
ENDBRANCH  20  22
BRANCH  21  24
HETATM   24  O5  UNL     1      68.365  30.723  49.676  1.00  0.00    -0.391 OA
ATOM     25  H5  UNL     1      67.776  31.419  49.410  1.00  0.00     0.210 HD
ENDBRANCH  21  24
ENDBRANCH  14  15
ENDBRANCH   1  14
TORSDOF 9
ENDMDL
