MODEL 2
REMARK VINA RESULT: -6.494069300      1.188      1.193
REMARK  9 active torsions:
REMARK  status: ('A' for Active; 'I' for Inactive)
REMARK    1  A    between atoms: O1_1  and  C1_3 
REMARK    2  A    between atoms: C1_3  and  C2_4 
REMARK    3  A    between atoms: C3_6  and  O3_7 
REMARK    4  A    between atoms: O3_7  and  C4_8 
REMARK    5  A    between atoms: C4_8  and  C5_9 
REMARK    6  A    between atoms: C7_14  and  O4_15 
REMARK    7  A    between atoms: C8_17  and  O5_18 
REMARK    8  A    between atoms: C9_20  and  O6_21 
REMARK    9  A    between atoms: C10_23  and  O7_24 
ROOT
HETATM    1  O3  UNL     1      66.941  28.715  50.358  1.00  0.00    -0.356 OA
ENDROOT
BRANCH   1   2
HETATM    2  C3  UNL     1      66.397  29.861  49.848  1.00  0.00     0.291 C 
HETATM    3  O2  UNL     1      65.515  29.636  48.798  1.00  0.00    -0.348 OA
HETATM    4  C2  UNL     1      65.358  30.811  48.115  1.00  0.00     0.179 C 
HETATM    5  C10 UNL     1      66.465  31.750  48.519  1.00  0.00     0.182 C 
HETATM    6  C9  UNL     1      67.414  30.778  49.193  1.00  0.00     0.204 C 
BRANCH   4   7
HETATM    7  C1  UNL     1      63.987  31.416  48.377  1.00  0.00     0.198 C 
BRANCH   7   8
HETATM    8  O1  UNL     1      64.109  32.796  48.560  1.00  0.00    -0.398 OA
ATOM      9  H1  UNL     1      64.777  33.139  47.978  1.00  0.00     0.209 HD
ENDBRANCH   7   8
ENDBRANCH   4   7
BRANCH   5  10
HETATM   10  O7  UNL     1      67.050  32.386  47.436  1.00  0.00    -0.390 OA
ATOM     11  H7  UNL     1      67.539  33.162  47.685  1.00  0.00     0.210 HD
ENDBRANCH   5  10
BRANCH   6  12
HETATM   12  O6  UNL     1      68.235  31.405  50.117  1.00  0.00    -0.388 OA
ATOM     13  H6  UNL     1      68.524  32.261  49.824  1.00  0.00     0.210 HD
ENDBRANCH   6  12
ENDBRANCH   1   2
BRANCH   1  14
HETATM   14  C4  UNL     1      66.207  28.339  51.480  1.00  0.00     0.206 C 
BRANCH  14  15
HETATM   15  C5  UNL     1      67.088  27.660  52.517  1.00  0.00     0.240 C 
HETATM   16  N1  UNL     1      67.162  26.245  52.316  1.00  0.00    -0.064 N 
HETATM   17  C6  UNL     1      66.828  25.612  53.579  1.00  0.00     0.267 C 
ATOM     18  H12 UNL     1      66.583  25.921  51.543  1.00  0.00     0.277 HD
ATOM     19  H11 UNL     1      68.062  25.941  51.944  1.00  0.00     0.277 HD
HETATM   20  C7  UNL     1      65.788  26.581  54.124  1.00  0.00     0.174 C 
HETATM   21  C8  UNL     1      66.492  27.900  53.887  1.00  0.00     0.181 C 
BRANCH  20  22
HETATM   22  O4  UNL     1      64.643  26.564  53.353  1.00  0.00    -0.391 OA
ATOM     23  H4  UNL     1      64.082  27.301  53.562  1.00  0.00     0.210 HD
ENDBRANCH  20  22
BRANCH  21  24
HETATM   24  O5  UNL     1      67.519  28.064  54.811  1.00  0.00    -0.391 OA
ATOM     25  H5  UNL     1      67.201  28.575  55.546  1.00  0.00     0.210 HD
ENDBRANCH  21  24
ENDBRANCH  14  15
ENDBRANCH   1  14
TORSDOF 9
ENDMDL
