MODEL 3
REMARK VINA RESULT: -6.456089182      1.708      6.118
REMARK  9 active torsions:
REMARK  status: ('A' for Active; 'I' for Inactive)
REMARK    1  A    between atoms: O1_1  and  C1_3 
REMARK    2  A    between atoms: C1_3  and  C2_4 
REMARK    3  A    between atoms: C3_6  and  O3_7 
REMARK    4  A    between atoms: O3_7  and  C4_8 
REMARK    5  A    between atoms: C4_8  and  C5_9 
REMARK    6  A    between atoms: C7_14  and  O4_15 
REMARK    7  A    between atoms: C8_17  and  O5_18 
REMARK    8  A    between atoms: C9_20  and  O6_21 
REMARK    9  A    between atoms: C10_23  and  O7_24 
ROOT
HETATM    1  O3  UNL     1      66.530  29.552  52.363  1.00  0.00    -0.356 OA
ENDROOT
BRANCH   1   2
HETATM    2  C3  UNL     1      66.606  28.189  52.450  1.00  0.00     0.291 C 
HETATM    3  O2  UNL     1      65.686  27.531  51.642  1.00  0.00    -0.348 OA
HETATM    4  C2  UNL     1      65.563  26.247  52.097  1.00  0.00     0.179 C 
HETATM    5  C10 UNL     1      66.155  26.171  53.481  1.00  0.00     0.182 C 
HETATM    6  C9  UNL     1      66.242  27.646  53.820  1.00  0.00     0.204 C 
BRANCH   4   7
HETATM    7  C1  UNL     1      66.232  25.265  51.148  1.00  0.00     0.198 C 
BRANCH   7   8
HETATM    8  O1  UNL     1      66.856  24.252  51.881  1.00  0.00    -0.398 OA
ATOM      9  H1  UNL     1      66.670  23.409  51.486  1.00  0.00     0.209 HD
ENDBRANCH   7   8
ENDBRANCH   4   7
BRANCH   5  10
HETATM   10  O7  UNL     1      65.350  25.477  54.370  1.00  0.00    -0.390 OA
ATOM     11  H7  UNL     1      65.672  25.513  55.263  1.00  0.00     0.210 HD
ENDBRANCH   5  10
BRANCH   6  12
HETATM   12  O6  UNL     1      67.219  27.907  54.769  1.00  0.00    -0.388 OA
ATOM     13  H6  UNL     1      68.081  28.008  54.384  1.00  0.00     0.210 HD
ENDBRANCH   6  12
ENDBRANCH   1   2
BRANCH   1  14
HETATM   14  C4  UNL     1      67.084  29.947  51.148  1.00  0.00     0.206 C 
BRANCH  14  15
HETATM   15  C5  UNL     1      66.007  30.326  50.144  1.00  0.00     0.240 C 
HETATM   16  N1  UNL     1      65.889  29.362  49.093  1.00  0.00    -0.064 N 
HETATM   17  C6  UNL     1      65.972  30.083  47.836  1.00  0.00     0.267 C 
ATOM     18  H12 UNL     1      66.571  28.608  49.165  1.00  0.00     0.277 HD
ATOM     19  H11 UNL     1      65.049  28.789  49.168  1.00  0.00     0.277 HD
HETATM   20  C7  UNL     1      66.959  31.186  48.197  1.00  0.00     0.174 C 
HETATM   21  C8  UNL     1      66.378  31.652  49.516  1.00  0.00     0.181 C 
BRANCH  20  22
HETATM   22  O4  UNL     1      68.213  30.667  48.444  1.00  0.00    -0.391 OA
ATOM     23  H4  UNL     1      68.880  31.339  48.375  1.00  0.00     0.210 HD
ENDBRANCH  20  22
BRANCH  21  24
HETATM   24  O5  UNL     1      65.221  32.391  49.291  1.00  0.00    -0.391 OA
ATOM     25  H5  UNL     1      65.231  33.164  49.844  1.00  0.00     0.210 HD
ENDBRANCH  21  24
ENDBRANCH  14  15
ENDBRANCH   1  14
TORSDOF 9
ENDMDL
