MODEL 1
REMARK VINA RESULT: -6.561859862      0.000      0.000
REMARK  9 active torsions:
REMARK  status: ('A' for Active; 'I' for Inactive)
REMARK    1  A    between atoms: O1_1  and  C1_3 
REMARK    2  A    between atoms: C1_3  and  C2_4 
REMARK    3  A    between atoms: C3_6  and  O3_7 
REMARK    4  A    between atoms: O3_7  and  C4_8 
REMARK    5  A    between atoms: C4_8  and  C5_9 
REMARK    6  A    between atoms: C7_14  and  O4_15 
REMARK    7  A    between atoms: C8_17  and  O5_18 
REMARK    8  A    between atoms: C9_20  and  O6_21 
REMARK    9  A    between atoms: C10_23  and  O7_24 
ROOT
HETATM    1  O3  UNL     1      65.578  29.095  50.710  1.00  0.00    -0.356 OA
ENDROOT
BRANCH   1   2
HETATM    2  C3  UNL     1      65.889  30.058  49.791  1.00  0.00     0.291 C 
HETATM    3  O2  UNL     1      64.833  30.376  48.944  1.00  0.00    -0.348 OA
HETATM    4  C2  UNL     1      65.346  31.011  47.846  1.00  0.00     0.179 C 
HETATM    5  C10 UNL     1      66.833  30.773  47.808  1.00  0.00     0.182 C 
HETATM    6  C9  UNL     1      66.952  29.629  48.796  1.00  0.00     0.204 C 
BRANCH   4   7
HETATM    7  C1  UNL     1      65.017  32.496  47.871  1.00  0.00     0.198 C 
BRANCH   7   8
HETATM    8  O1  UNL     1      64.007  32.739  48.806  1.00  0.00    -0.398 OA
ATOM      9  H1  UNL     1      63.722  33.642  48.743  1.00  0.00     0.209 HD
ENDBRANCH   7   8
ENDBRANCH   4   7
BRANCH   5  10
HETATM   10  O7  UNL     1      67.287  30.422  46.546  1.00  0.00    -0.390 OA
ATOM     11  H7  UNL     1      67.713  31.142  46.095  1.00  0.00     0.210 HD
ENDBRANCH   5  10
BRANCH   6  12
HETATM   12  O6  UNL     1      68.213  29.560  49.366  1.00  0.00    -0.388 OA
ATOM     13  H6  UNL     1      68.591  28.691  49.308  1.00  0.00     0.210 HD
ENDBRANCH   6  12
ENDBRANCH   1   2
BRANCH   1  14
HETATM   14  C4  UNL     1      65.967  29.545  51.970  1.00  0.00     0.206 C 
BRANCH  14  15
HETATM   15  C5  UNL     1      66.988  28.612  52.601  1.00  0.00     0.240 C 
HETATM   16  N1  UNL     1      67.312  27.511  51.747  1.00  0.00    -0.064 N 
HETATM   17  C6  UNL     1      67.138  26.297  52.523  1.00  0.00     0.267 C 
ATOM     18  H12 UNL     1      66.776  27.509  50.879  1.00  0.00     0.277 HD
ATOM     19  H11 UNL     1      68.239  27.588  51.330  1.00  0.00     0.277 HD
HETATM   20  C7  UNL     1      65.957  26.681  53.404  1.00  0.00     0.174 C 
HETATM   21  C8  UNL     1      66.403  28.049  53.878  1.00  0.00     0.181 C 
BRANCH  20  22
HETATM   22  O4  UNL     1      64.811  26.843  52.653  1.00  0.00    -0.391 OA
ATOM     23  H4  UNL     1      64.098  27.172  53.187  1.00  0.00     0.210 HD
ENDBRANCH  20  22
BRANCH  21  24
HETATM   24  O5  UNL     1      67.412  27.918  54.827  1.00  0.00    -0.391 OA
ATOM     25  H5  UNL     1      67.379  27.046  55.201  1.00  0.00     0.210 HD
ENDBRANCH  21  24
ENDBRANCH  14  15
ENDBRANCH   1  14
TORSDOF 9
ENDMDL
