MODEL 4
REMARK VINA RESULT: -6.448898970      1.808      6.071
REMARK  9 active torsions:
REMARK  status: ('A' for Active; 'I' for Inactive)
REMARK    1  A    between atoms: O1_1  and  C1_3 
REMARK    2  A    between atoms: C1_3  and  C2_4 
REMARK    3  A    between atoms: C3_6  and  O3_7 
REMARK    4  A    between atoms: O3_7  and  C4_8 
REMARK    5  A    between atoms: C4_8  and  C5_9 
REMARK    6  A    between atoms: C7_14  and  O4_15 
REMARK    7  A    between atoms: C8_17  and  O5_18 
REMARK    8  A    between atoms: C9_20  and  O6_21 
REMARK    9  A    between atoms: C10_23  and  O7_24 
ROOT
HETATM    1  O3  UNL     1      67.028  29.557  52.281  1.00  0.00    -0.356 OA
ENDROOT
BRANCH   1   2
HETATM    2  C3  UNL     1      66.895  28.210  52.473  1.00  0.00     0.291 C 
HETATM    3  O2  UNL     1      65.899  27.635  51.692  1.00  0.00    -0.348 OA
HETATM    4  C2  UNL     1      65.576  26.424  52.240  1.00  0.00     0.179 C 
HETATM    5  C10 UNL     1      66.128  26.370  53.641  1.00  0.00     0.182 C 
HETATM    6  C9  UNL     1      66.432  27.838  53.870  1.00  0.00     0.204 C 
BRANCH   4   7
HETATM    7  C1  UNL     1      66.103  25.281  51.386  1.00  0.00     0.198 C 
BRANCH   7   8
HETATM    8  O1  UNL     1      66.720  24.328  52.203  1.00  0.00    -0.398 OA
ATOM      9  H1  UNL     1      66.627  23.466  51.816  1.00  0.00     0.209 HD
ENDBRANCH   7   8
ENDBRANCH   4   7
BRANCH   5  10
HETATM   10  O7  UNL     1      65.213  25.876  54.558  1.00  0.00    -0.390 OA
ATOM     11  H7  UNL     1      65.377  26.184  55.442  1.00  0.00     0.210 HD
ENDBRANCH   5  10
BRANCH   6  12
HETATM   12  O6  UNL     1      67.422  28.023  54.822  1.00  0.00    -0.388 OA
ATOM     13  H6  UNL     1      68.049  27.310  54.837  1.00  0.00     0.210 HD
ENDBRANCH   6  12
ENDBRANCH   1   2
BRANCH   1  14
HETATM   14  C4  UNL     1      66.067  29.968  51.361  1.00  0.00     0.206 C 
BRANCH  14  15
HETATM   15  C5  UNL     1      66.707  30.496  50.087  1.00  0.00     0.240 C 
HETATM   16  N1  UNL     1      66.414  31.879  49.869  1.00  0.00    -0.064 N 
HETATM   17  C6  UNL     1      65.888  32.002  48.522  1.00  0.00     0.267 C 
ATOM     18  H12 UNL     1      65.793  32.271  50.577  1.00  0.00     0.277 HD
ATOM     19  H11 UNL     1      67.213  32.489  50.043  1.00  0.00     0.277 HD
HETATM   20  C7  UNL     1      65.123  30.693  48.387  1.00  0.00     0.174 C 
HETATM   21  C8  UNL     1      66.156  29.717  48.912  1.00  0.00     0.181 C 
BRANCH  20  22
HETATM   22  O4  UNL     1      64.038  30.663  49.238  1.00  0.00    -0.391 OA
ATOM     23  H4  UNL     1      63.816  29.771  49.476  1.00  0.00     0.210 HD
ENDBRANCH  20  22
BRANCH  21  24
HETATM   24  O5  UNL     1      67.163  29.537  47.968  1.00  0.00    -0.391 OA
ATOM     25  H5  UNL     1      66.957  30.042  47.191  1.00  0.00     0.210 HD
ENDBRANCH  21  24
ENDBRANCH  14  15
ENDBRANCH   1  14
TORSDOF 9
ENDMDL
