MODEL 5
REMARK VINA RESULT: -6.406198552      1.509      1.664
REMARK  9 active torsions:
REMARK  status: ('A' for Active; 'I' for Inactive)
REMARK    1  A    between atoms: O1_1  and  C1_3 
REMARK    2  A    between atoms: C1_3  and  C2_4 
REMARK    3  A    between atoms: C3_6  and  O3_7 
REMARK    4  A    between atoms: O3_7  and  C4_8 
REMARK    5  A    between atoms: C4_8  and  C5_9 
REMARK    6  A    between atoms: C7_14  and  O4_15 
REMARK    7  A    between atoms: C8_17  and  O5_18 
REMARK    8  A    between atoms: C9_20  and  O6_21 
REMARK    9  A    between atoms: C10_23  and  O7_24 
ROOT
HETATM    1  O3  UNL     1      67.095  28.835  50.280  1.00  0.00    -0.356 OA
ENDROOT
BRANCH   1   2
HETATM    2  C3  UNL     1      66.492  29.955  49.777  1.00  0.00     0.291 C 
HETATM    3  O2  UNL     1      65.582  29.685  48.762  1.00  0.00    -0.348 OA
HETATM    4  C2  UNL     1      65.359  30.845  48.072  1.00  0.00     0.179 C 
HETATM    5  C10 UNL     1      66.445  31.828  48.425  1.00  0.00     0.182 C 
HETATM    6  C9  UNL     1      67.452  30.899  49.075  1.00  0.00     0.204 C 
BRANCH   4   7
HETATM    7  C1  UNL     1      63.978  31.403  48.375  1.00  0.00     0.198 C 
BRANCH   7   8
HETATM    8  O1  UNL     1      64.057  32.789  48.545  1.00  0.00    -0.398 OA
ATOM      9  H1  UNL     1      63.601  33.225  47.835  1.00  0.00     0.209 HD
ENDBRANCH   7   8
ENDBRANCH   4   7
BRANCH   5  10
HETATM   10  O7  UNL     1      66.968  32.471  47.314  1.00  0.00    -0.390 OA
ATOM     11  H7  UNL     1      67.480  31.891  46.761  1.00  0.00     0.210 HD
ENDBRANCH   5  10
BRANCH   6  12
HETATM   12  O6  UNL     1      68.281  31.567  49.963  1.00  0.00    -0.388 OA
ATOM     13  H6  UNL     1      67.825  32.250  50.441  1.00  0.00     0.210 HD
ENDBRANCH   6  12
ENDBRANCH   1   2
BRANCH   1  14
HETATM   14  C4  UNL     1      66.695  28.676  51.605  1.00  0.00     0.206 C 
BRANCH  14  15
HETATM   15  C5  UNL     1      66.547  27.206  51.966  1.00  0.00     0.240 C 
HETATM   16  N1  UNL     1      65.175  26.819  52.093  1.00  0.00    -0.064 N 
HETATM   17  C6  UNL     1      65.029  26.168  53.382  1.00  0.00     0.267 C 
ATOM     18  H12 UNL     1      64.528  27.596  51.963  1.00  0.00     0.277 HD
ATOM     19  H11 UNL     1      64.850  26.244  51.317  1.00  0.00     0.277 HD
HETATM   20  C7  UNL     1      66.018  26.962  54.224  1.00  0.00     0.174 C 
HETATM   21  C8  UNL     1      67.219  26.969  53.302  1.00  0.00     0.181 C 
BRANCH  20  22
HETATM   22  O4  UNL     1      65.597  28.266  54.385  1.00  0.00    -0.391 OA
ATOM     23  H4  UNL     1      64.821  28.309  54.930  1.00  0.00     0.210 HD
ENDBRANCH  20  22
BRANCH  21  24
HETATM   24  O5  UNL     1      67.821  25.714  53.295  1.00  0.00    -0.391 OA
ATOM     25  H5  UNL     1      68.763  25.820  53.246  1.00  0.00     0.210 HD
ENDBRANCH  21  24
ENDBRANCH  14  15
ENDBRANCH   1  14
TORSDOF 9
ENDMDL
