MODEL 1
REMARK VINA RESULT: -9.341213300      0.000      0.000
REMARK  4 active torsions:
REMARK  status: ('A' for Active; 'I' for Inactive)
REMARK    1  A    between atoms: C17_24  and  N5_25 
REMARK       I    between atoms: N5_25  and  C18_27 
REMARK    2  A    between atoms: C18_27  and  O2_29 
REMARK    3  A    between atoms: O2_29  and  C19_30 
REMARK    4  A    between atoms: C19_30  and  C20_31 
ROOT
HETATM    1  C1  UNL     1       3.319   8.859  15.159  1.00  0.00     0.091 C 
HETATM    2  C2  UNL     1       2.519   8.619  16.374  1.00  0.00     0.100 A 
HETATM    3  N1  UNL     1       1.510   9.384  16.880  1.00  0.00    -0.287 N 
ATOM      4  H1  UNL     1       1.138  10.225  16.439  1.00  0.00     0.188 HD
HETATM    5  N2  UNL     1       1.076   8.874  18.040  1.00  0.00    -0.284 N 
ATOM      6  H2  UNL     1       0.329   9.261  18.617  1.00  0.00     0.188 HD
HETATM    7  C3  UNL     1       1.779   7.779  18.316  1.00  0.00     0.148 A 
HETATM    8  N3  UNL     1       2.661   7.653  17.259  1.00  0.00    -0.284 N 
HETATM    9  C4  UNL     1       3.601   6.595  17.114  1.00  0.00     0.054 A 
HETATM   10  C5  UNL     1       3.749   6.220  15.820  1.00  0.00     0.031 A 
HETATM   11  C6  UNL     1       4.624   5.144  15.606  1.00  0.00     0.002 A 
HETATM   12  C7  UNL     1       5.276   4.522  16.673  1.00  0.00     0.001 A 
HETATM   13  C8  UNL     1       5.087   4.942  17.969  1.00  0.00     0.016 A 
HETATM   14  C9  UNL     1       4.247   5.988  18.200  1.00  0.00     0.018 A 
HETATM   15  C10 UNL     1       4.144   6.304  19.608  1.00  0.00     0.052 C 
HETATM   16  C11 UNL     1       5.249   6.172  20.479  1.00  0.00    -0.009 A 
HETATM   17  C12 UNL     1       5.042   6.280  21.870  1.00  0.00     0.014 A 
HETATM   18  C13 UNL     1       6.065   6.285  22.775  1.00  0.00     0.001 A 
HETATM   19  C14 UNL     1       7.370   6.182  22.363  1.00  0.00     0.000 A 
HETATM   20  C15 UNL     1       7.612   6.077  21.024  1.00  0.00     0.001 A 
HETATM   21  C16 UNL     1       6.558   6.075  20.117  1.00  0.00     0.014 A 
HETATM   22  N4  UNL     1       3.002   6.687  20.145  1.00  0.00    -0.361 N 
ATOM     23  H4  UNL     1       3.039   6.880  21.146  1.00  0.00     0.162 HD
HETATM   24  C17 UNL     1       1.685   6.879  19.523  1.00  0.00     0.257 C 
ENDROOT
BRANCH  24  25
HETATM   25  N5  UNL     1       0.824   7.491  20.493  1.00  0.00    -0.309 N 
HETATM   26  C18 UNL     1       0.471   6.830  21.725  1.00  0.00     0.362 C 
HETATM   27  O1  UNL     1       0.921   5.697  21.965  1.00  0.00    -0.238 OA
ATOM     28  H5  UNL     1       0.449   8.421  20.306  1.00  0.00     0.167 HD
BRANCH  26  29
HETATM   29  O2  UNL     1      -0.362   7.455  22.633  1.00  0.00    -0.299 OA
BRANCH  29  30
HETATM   30  C19 UNL     1      -0.010   8.665  23.243  1.00  0.00     0.219 C 
BRANCH  30  31
HETATM   31  C20 UNL     1      -0.821   9.816  22.797  1.00  0.00    -0.034 A 
HETATM   32  C21 UNL     1      -1.932  10.208  23.508  1.00  0.00     0.009 A 
HETATM   33  C22 UNL     1      -2.710  11.287  23.114  1.00  0.00     0.001 A 
HETATM   34  C23 UNL     1      -2.357  11.985  21.980  1.00  0.00     0.000 A 
HETATM   35  C24 UNL     1      -1.250  11.596  21.271  1.00  0.00     0.001 A 
HETATM   36  C25 UNL     1      -0.474  10.519  21.665  1.00  0.00     0.009 A 
ENDBRANCH  30  31
ENDBRANCH  29  30
ENDBRANCH  26  29
ENDBRANCH  24  25
TORSDOF 4
ENDMDL
