MODEL 2
REMARK VINA RESULT: -9.251918647      3.223      4.388
REMARK  4 active torsions:
REMARK  status: ('A' for Active; 'I' for Inactive)
REMARK    1  A    between atoms: C17_24  and  N5_25 
REMARK       I    between atoms: N5_25  and  C18_27 
REMARK    2  A    between atoms: C18_27  and  O2_29 
REMARK    3  A    between atoms: O2_29  and  C19_30 
REMARK    4  A    between atoms: C19_30  and  C20_31 
ROOT
HETATM    1  C1  UNL     1       5.828   5.267  19.164  1.00  0.00     0.091 C 
HETATM    2  C2  UNL     1       4.635   5.844  19.811  1.00  0.00     0.100 A 
HETATM    3  N1  UNL     1       4.542   7.004  20.522  1.00  0.00    -0.287 N 
ATOM      4  H1  UNL     1       5.306   7.664  20.661  1.00  0.00     0.188 HD
HETATM    5  N2  UNL     1       3.304   7.151  21.011  1.00  0.00    -0.284 N 
ATOM      6  H2  UNL     1       2.979   7.935  21.578  1.00  0.00     0.188 HD
HETATM    7  C3  UNL     1       2.568   6.108  20.637  1.00  0.00     0.148 A 
HETATM    8  N3  UNL     1       3.428   5.322  19.892  1.00  0.00    -0.284 N 
HETATM    9  C4  UNL     1       3.061   4.102  19.258  1.00  0.00     0.054 A 
HETATM   10  C5  UNL     1       3.678   3.944  18.062  1.00  0.00     0.031 A 
HETATM   11  C6  UNL     1       3.324   2.786  17.355  1.00  0.00     0.002 A 
HETATM   12  C7  UNL     1       2.393   1.882  17.872  1.00  0.00     0.001 A 
HETATM   13  C8  UNL     1       1.793   2.093  19.091  1.00  0.00     0.016 A 
HETATM   14  C9  UNL     1       2.126   3.208  19.799  1.00  0.00     0.018 A 
HETATM   15  C10 UNL     1       1.406   3.294  21.050  1.00  0.00     0.052 C 
HETATM   16  C11 UNL     1       1.081   2.141  21.799  1.00  0.00    -0.009 A 
HETATM   17  C12 UNL     1       0.197   2.258  22.890  1.00  0.00     0.014 A 
HETATM   18  C13 UNL     1      -0.079   1.224  23.739  1.00  0.00     0.001 A 
HETATM   19  C14 UNL     1       0.507  -0.005  23.564  1.00  0.00     0.000 A 
HETATM   20  C15 UNL     1       1.371  -0.159  22.519  1.00  0.00     0.001 A 
HETATM   21  C16 UNL     1       1.640   0.906  21.666  1.00  0.00     0.014 A 
HETATM   22  N4  UNL     1       0.986   4.451  21.523  1.00  0.00    -0.361 N 
ATOM     23  H4  UNL     1       0.485   4.399  22.410  1.00  0.00     0.162 HD
HETATM   24  C17 UNL     1       1.128   5.804  20.969  1.00  0.00     0.257 C 
ENDROOT
BRANCH  24  25
HETATM   25  N5  UNL     1       0.672   6.737  21.958  1.00  0.00    -0.309 N 
HETATM   26  C18 UNL     1      -0.715   6.828  22.340  1.00  0.00     0.362 C 
HETATM   27  O1  UNL     1      -1.550   6.081  21.802  1.00  0.00    -0.238 OA
ATOM     28  H5  UNL     1       1.350   7.356  22.405  1.00  0.00     0.167 HD
BRANCH  26  29
HETATM   29  O2  UNL     1      -1.112   7.741  23.297  1.00  0.00    -0.299 OA
BRANCH  29  30
HETATM   30  C19 UNL     1      -0.432   8.950  23.488  1.00  0.00     0.219 C 
BRANCH  30  31
HETATM   31  C20 UNL     1      -1.081  10.108  22.840  1.00  0.00    -0.034 A 
HETATM   32  C21 UNL     1      -2.154  10.733  23.434  1.00  0.00     0.009 A 
HETATM   33  C22 UNL     1      -2.780  11.824  22.850  1.00  0.00     0.001 A 
HETATM   34  C23 UNL     1      -2.312  12.294  21.643  1.00  0.00     0.000 A 
HETATM   35  C24 UNL     1      -1.244  11.674  21.050  1.00  0.00     0.001 A 
HETATM   36  C25 UNL     1      -0.619  10.584  21.634  1.00  0.00     0.009 A 
ENDBRANCH  30  31
ENDBRANCH  29  30
ENDBRANCH  26  29
ENDBRANCH  24  25
TORSDOF 4
ENDMDL
