MODEL 10
REMARK VINA RESULT: -8.730650977      4.740      6.879
REMARK  4 active torsions:
REMARK  status: ('A' for Active; 'I' for Inactive)
REMARK    1  A    between atoms: C17_24  and  N5_25 
REMARK       I    between atoms: N5_25  and  C18_27 
REMARK    2  A    between atoms: C18_27  and  O2_29 
REMARK    3  A    between atoms: O2_29  and  C19_30 
REMARK    4  A    between atoms: C19_30  and  C20_31 
ROOT
HETATM    1  C1  UNL     1      -0.411   9.458  21.364  1.00  0.00     0.091 C 
HETATM    2  C2  UNL     1      -0.491   8.039  21.758  1.00  0.00     0.100 A 
HETATM    3  N1  UNL     1      -1.387   7.450  22.601  1.00  0.00    -0.287 N 
ATOM      4  H1  UNL     1      -2.171   7.928  23.045  1.00  0.00     0.188 HD
HETATM    5  N2  UNL     1      -1.090   6.154  22.764  1.00  0.00    -0.284 N 
ATOM      6  H2  UNL     1      -1.607   5.495  23.346  1.00  0.00     0.188 HD
HETATM    7  C3  UNL     1      -0.010   5.869  22.042  1.00  0.00     0.148 A 
HETATM    8  N3  UNL     1       0.330   7.062  21.431  1.00  0.00    -0.284 N 
HETATM    9  C4  UNL     1       1.419   7.226  20.531  1.00  0.00     0.054 A 
HETATM   10  C5  UNL     1       1.126   8.093  19.531  1.00  0.00     0.031 A 
HETATM   11  C6  UNL     1       2.138   8.265  18.575  1.00  0.00     0.002 A 
HETATM   12  C7  UNL     1       3.346   7.573  18.671  1.00  0.00     0.001 A 
HETATM   13  C8  UNL     1       3.591   6.701  19.706  1.00  0.00     0.016 A 
HETATM   14  C9  UNL     1       2.626   6.522  20.650  1.00  0.00     0.018 A 
HETATM   15  C10 UNL     1       3.024   5.571  21.663  1.00  0.00     0.052 C 
HETATM   16  C11 UNL     1       4.365   5.471  22.099  1.00  0.00    -0.009 A 
HETATM   17  C12 UNL     1       4.740   4.389  22.921  1.00  0.00     0.014 A 
HETATM   18  C13 UNL     1       5.980   4.278  23.485  1.00  0.00     0.001 A 
HETATM   19  C14 UNL     1       6.939   5.236  23.270  1.00  0.00     0.000 A 
HETATM   20  C15 UNL     1       6.614   6.300  22.480  1.00  0.00     0.001 A 
HETATM   21  C16 UNL     1       5.347   6.397  21.916  1.00  0.00     0.014 A 
HETATM   22  N4  UNL     1       2.160   4.727  22.192  1.00  0.00    -0.361 N 
ATOM     23  H4  UNL     1       2.547   4.096  22.894  1.00  0.00     0.162 HD
HETATM   24  C17 UNL     1       0.726   4.556  21.926  1.00  0.00     0.257 C 
ENDROOT
BRANCH  24  25
HETATM   25  N5  UNL     1       0.201   3.643  22.900  1.00  0.00    -0.309 N 
HETATM   26  C18 UNL     1       0.528   2.239  22.882  1.00  0.00     0.362 C 
HETATM   27  O1  UNL     1       1.285   1.795  22.002  1.00  0.00    -0.238 OA
ATOM     28  H5  UNL     1      -0.422   3.997  23.627  1.00  0.00     0.167 HD
BRANCH  26  29
HETATM   29  O2  UNL     1       0.001   1.392  23.839  1.00  0.00    -0.299 OA
BRANCH  29  30
HETATM   30  C19 UNL     1       0.058   0.000  23.701  1.00  0.00     0.219 C 
BRANCH  30  31
HETATM   31  C20 UNL     1      -1.054  -0.711  24.365  1.00  0.00    -0.034 A 
HETATM   32  C21 UNL     1      -1.730  -1.717  23.714  1.00  0.00     0.009 A 
HETATM   33  C22 UNL     1      -2.776  -2.404  24.314  1.00  0.00     0.001 A 
HETATM   34  C23 UNL     1      -3.146  -2.067  25.597  1.00  0.00     0.000 A 
HETATM   35  C24 UNL     1      -2.474  -1.065  26.247  1.00  0.00     0.001 A 
HETATM   36  C25 UNL     1      -1.429  -0.380  25.648  1.00  0.00     0.009 A 
ENDBRANCH  30  31
ENDBRANCH  29  30
ENDBRANCH  26  29
ENDBRANCH  24  25
TORSDOF 4
ENDMDL
