MODEL 17
REMARK VINA RESULT: -8.408483918      4.761      6.908
REMARK  4 active torsions:
REMARK  status: ('A' for Active; 'I' for Inactive)
REMARK    1  A    between atoms: C17_24  and  N5_25 
REMARK       I    between atoms: N5_25  and  C18_27 
REMARK    2  A    between atoms: C18_27  and  O2_29 
REMARK    3  A    between atoms: O2_29  and  C19_30 
REMARK    4  A    between atoms: C19_30  and  C20_31 
ROOT
HETATM    1  C1  UNL     1      -0.327   9.509  21.295  1.00  0.00     0.091 C 
HETATM    2  C2  UNL     1      -0.444   8.095  21.695  1.00  0.00     0.100 A 
HETATM    3  N1  UNL     1      -1.370   7.528  22.521  1.00  0.00    -0.287 N 
ATOM      4  H1  UNL     1      -2.155   8.025  22.944  1.00  0.00     0.188 HD
HETATM    5  N2  UNL     1      -1.103   6.227  22.697  1.00  0.00    -0.284 N 
ATOM      6  H2  UNL     1      -1.647   5.582  23.270  1.00  0.00     0.188 HD
HETATM    7  C3  UNL     1      -0.013   5.917  22.000  1.00  0.00     0.148 A 
HETATM    8  N3  UNL     1       0.363   7.099  21.392  1.00  0.00    -0.284 N 
HETATM    9  C4  UNL     1       1.475   7.237  20.515  1.00  0.00     0.054 A 
HETATM   10  C5  UNL     1       1.223   8.104  19.504  1.00  0.00     0.031 A 
HETATM   11  C6  UNL     1       2.259   8.250  18.570  1.00  0.00     0.002 A 
HETATM   12  C7  UNL     1       3.451   7.535  18.697  1.00  0.00     0.001 A 
HETATM   13  C8  UNL     1       3.654   6.664  19.742  1.00  0.00     0.016 A 
HETATM   14  C9  UNL     1       2.665   6.509  20.665  1.00  0.00     0.018 A 
HETATM   15  C10 UNL     1       3.022   5.556  21.692  1.00  0.00     0.052 C 
HETATM   16  C11 UNL     1       4.350   5.432  22.158  1.00  0.00    -0.009 A 
HETATM   17  C12 UNL     1       4.685   4.347  22.994  1.00  0.00     0.014 A 
HETATM   18  C13 UNL     1       5.909   4.215  23.586  1.00  0.00     0.001 A 
HETATM   19  C14 UNL     1       6.892   5.153  23.388  1.00  0.00     0.000 A 
HETATM   20  C15 UNL     1       6.606   6.218  22.585  1.00  0.00     0.001 A 
HETATM   21  C16 UNL     1       5.354   6.338  21.993  1.00  0.00     0.014 A 
HETATM   22  N4  UNL     1       2.129   4.733  22.206  1.00  0.00    -0.361 N 
ATOM     23  H4  UNL     1       2.488   4.098  22.920  1.00  0.00     0.162 HD
HETATM   24  C17 UNL     1       0.698   4.589  21.908  1.00  0.00     0.257 C 
ENDROOT
BRANCH  24  25
HETATM   25  N5  UNL     1       0.134   3.692  22.875  1.00  0.00    -0.309 N 
HETATM   26  C18 UNL     1       0.405   2.276  22.851  1.00  0.00     0.362 C 
HETATM   27  O1  UNL     1       1.148   1.807  21.972  1.00  0.00    -0.238 OA
ATOM     28  H5  UNL     1      -0.478   4.066  23.601  1.00  0.00     0.167 HD
BRANCH  26  29
HETATM   29  O2  UNL     1      -0.159   1.446  23.801  1.00  0.00    -0.299 OA
BRANCH  29  30
HETATM   30  C19 UNL     1       0.566   1.002  24.914  1.00  0.00     0.219 C 
BRANCH  30  31
HETATM   31  C20 UNL     1      -0.018  -0.186  25.570  1.00  0.00    -0.034 A 
HETATM   32  C21 UNL     1      -1.375  -0.411  25.534  1.00  0.00     0.009 A 
HETATM   33  C22 UNL     1      -1.950  -1.519  26.139  1.00  0.00     0.001 A 
HETATM   34  C23 UNL     1      -1.137  -2.418  26.793  1.00  0.00     0.000 A 
HETATM   35  C24 UNL     1       0.215  -2.196  26.830  1.00  0.00     0.001 A 
HETATM   36  C25 UNL     1       0.788  -1.089  26.226  1.00  0.00     0.009 A 
ENDBRANCH  30  31
ENDBRANCH  29  30
ENDBRANCH  26  29
ENDBRANCH  24  25
TORSDOF 4
ENDMDL
