MODEL 3
REMARK VINA RESULT: -9.214355301      2.744      7.987
REMARK  4 active torsions:
REMARK  status: ('A' for Active; 'I' for Inactive)
REMARK    1  A    between atoms: C17_24  and  N5_25 
REMARK       I    between atoms: N5_25  and  C18_27 
REMARK    2  A    between atoms: C18_27  and  O2_29 
REMARK    3  A    between atoms: O2_29  and  C19_30 
REMARK    4  A    between atoms: C19_30  and  C20_31 
ROOT
HETATM    1  C1  UNL     1       3.810   5.530  22.246  1.00  0.00     0.091 C 
HETATM    2  C2  UNL     1       3.505   6.302  21.027  1.00  0.00     0.100 A 
HETATM    3  N1  UNL     1       4.378   6.775  20.092  1.00  0.00    -0.287 N 
ATOM      4  H1  UNL     1       5.384   6.608  20.097  1.00  0.00     0.188 HD
HETATM    5  N2  UNL     1       3.725   7.491  19.167  1.00  0.00    -0.284 N 
ATOM      6  H2  UNL     1       4.151   7.952  18.363  1.00  0.00     0.188 HD
HETATM    7  C3  UNL     1       2.430   7.502  19.470  1.00  0.00     0.148 A 
HETATM    8  N3  UNL     1       2.334   6.752  20.628  1.00  0.00    -0.284 N 
HETATM    9  C4  UNL     1       1.116   6.467  21.306  1.00  0.00     0.054 A 
HETATM   10  C5  UNL     1       1.106   5.218  21.830  1.00  0.00     0.031 A 
HETATM   11  C6  UNL     1      -0.086   4.848  22.470  1.00  0.00     0.002 A 
HETATM   12  C7  UNL     1      -1.170   5.726  22.540  1.00  0.00     0.001 A 
HETATM   13  C8  UNL     1      -1.107   6.984  21.987  1.00  0.00     0.016 A 
HETATM   14  C9  UNL     1       0.042   7.367  21.365  1.00  0.00     0.018 A 
HETATM   15  C10 UNL     1      -0.049   8.706  20.827  1.00  0.00     0.052 C 
HETATM   16  C11 UNL     1      -0.785   9.719  21.483  1.00  0.00    -0.009 A 
HETATM   17  C12 UNL     1      -1.023  10.936  20.812  1.00  0.00     0.014 A 
HETATM   18  C13 UNL     1      -1.619  12.011  21.411  1.00  0.00     0.001 A 
HETATM   19  C14 UNL     1      -2.021  11.952  22.722  1.00  0.00     0.000 A 
HETATM   20  C15 UNL     1      -1.806  10.791  23.406  1.00  0.00     0.001 A 
HETATM   21  C16 UNL     1      -1.197   9.708  22.781  1.00  0.00     0.014 A 
HETATM   22  N4  UNL     1       0.515   9.026  19.678  1.00  0.00    -0.361 N 
ATOM     23  H4  UNL     1       0.385   9.995  19.389  1.00  0.00     0.162 HD
HETATM   24  C17 UNL     1       1.301   8.200  18.753  1.00  0.00     0.257 C 
ENDROOT
BRANCH  24  25
HETATM   25  N5  UNL     1       1.853   9.065  17.749  1.00  0.00    -0.309 N 
HETATM   26  C18 UNL     1       1.875   8.698  16.355  1.00  0.00     0.362 C 
HETATM   27  O1  UNL     1       1.406   7.604  16.000  1.00  0.00    -0.238 OA
ATOM     28  H5  UNL     1       2.241   9.966  18.030  1.00  0.00     0.167 HD
BRANCH  26  29
HETATM   29  O2  UNL     1       2.417   9.560  15.421  1.00  0.00    -0.299 OA
BRANCH  29  30
HETATM   30  C19 UNL     1       2.901   9.101  14.190  1.00  0.00     0.219 C 
BRANCH  30  31
HETATM   31  C20 UNL     1       4.180   9.720  13.784  1.00  0.00    -0.034 A 
HETATM   32  C21 UNL     1       4.314  11.090  13.746  1.00  0.00     0.009 A 
HETATM   33  C22 UNL     1       5.504  11.698  13.372  1.00  0.00     0.001 A 
HETATM   34  C23 UNL     1       6.578  10.907  13.029  1.00  0.00     0.000 A 
HETATM   35  C24 UNL     1       6.446   9.544  13.067  1.00  0.00     0.001 A 
HETATM   36  C25 UNL     1       5.259   8.937  13.441  1.00  0.00     0.009 A 
ENDBRANCH  30  31
ENDBRANCH  29  30
ENDBRANCH  26  29
ENDBRANCH  24  25
TORSDOF 4
ENDMDL
