MODEL 16
REMARK VINA RESULT: -8.419182205      4.312      6.641
REMARK  4 active torsions:
REMARK  status: ('A' for Active; 'I' for Inactive)
REMARK    1  A    between atoms: C17_24  and  N5_25 
REMARK       I    between atoms: N5_25  and  C18_27 
REMARK    2  A    between atoms: C18_27  and  O2_29 
REMARK    3  A    between atoms: O2_29  and  C19_30 
REMARK    4  A    between atoms: C19_30  and  C20_31 
ROOT
HETATM    1  C1  UNL     1      -0.580   9.231  21.385  1.00  0.00     0.091 C 
HETATM    2  C2  UNL     1      -0.347   7.836  21.804  1.00  0.00     0.100 A 
HETATM    3  N1  UNL     1      -1.004   7.126  22.764  1.00  0.00    -0.287 N 
ATOM      4  H1  UNL     1      -1.800   7.470  23.302  1.00  0.00     0.188 HD
HETATM    5  N2  UNL     1      -0.456   5.911  22.902  1.00  0.00    -0.284 N 
ATOM      6  H2  UNL     1      -0.764   5.191  23.555  1.00  0.00     0.188 HD
HETATM    7  C3  UNL     1       0.557   5.800  22.047  1.00  0.00     0.148 A 
HETATM    8  N3  UNL     1       0.590   7.012  21.382  1.00  0.00    -0.284 N 
HETATM    9  C4  UNL     1       1.506   7.338  20.344  1.00  0.00     0.054 A 
HETATM   10  C5  UNL     1       0.934   8.101  19.381  1.00  0.00     0.031 A 
HETATM   11  C6  UNL     1       1.765   8.418  18.297  1.00  0.00     0.002 A 
HETATM   12  C7  UNL     1       3.083   7.960  18.241  1.00  0.00     0.001 A 
HETATM   13  C8  UNL     1       3.614   7.184  19.245  1.00  0.00     0.016 A 
HETATM   14  C9  UNL     1       2.827   6.868  20.310  1.00  0.00     0.018 A 
HETATM   15  C10 UNL     1       3.520   6.041  21.274  1.00  0.00     0.052 C 
HETATM   16  C11 UNL     1       4.901   6.201  21.529  1.00  0.00    -0.009 A 
HETATM   17  C12 UNL     1       5.570   5.235  22.307  1.00  0.00     0.014 A 
HETATM   18  C13 UNL     1       6.871   5.370  22.703  1.00  0.00     0.001 A 
HETATM   19  C14 UNL     1       7.602   6.477  22.351  1.00  0.00     0.000 A 
HETATM   20  C15 UNL     1       6.989   7.436  21.599  1.00  0.00     0.001 A 
HETATM   21  C16 UNL     1       5.664   7.282  21.207  1.00  0.00     0.014 A 
HETATM   22  N4  UNL     1       2.900   5.075  21.922  1.00  0.00    -0.361 N 
ATOM     23  H4  UNL     1       3.483   4.550  22.574  1.00  0.00     0.162 HD
HETATM   24  C17 UNL     1       1.500   4.638  21.850  1.00  0.00     0.257 C 
ENDROOT
BRANCH  24  25
HETATM   25  N5  UNL     1       1.281   3.681  22.896  1.00  0.00    -0.309 N 
HETATM   26  C18 UNL     1       2.055   2.468  22.993  1.00  0.00     0.362 C 
HETATM   27  O1  UNL     1       2.939   2.234  22.152  1.00  0.00    -0.238 OA
ATOM     28  H5  UNL     1       0.557   3.863  23.591  1.00  0.00     0.167 HD
BRANCH  26  29
HETATM   29  O2  UNL     1       1.812   1.571  24.017  1.00  0.00    -0.299 OA
BRANCH  29  30
HETATM   30  C19 UNL     1       0.511   1.276  24.442  1.00  0.00     0.219 C 
BRANCH  30  31
HETATM   31  C20 UNL     1      -0.012  -0.003  23.918  1.00  0.00    -0.034 A 
HETATM   32  C21 UNL     1      -1.122  -0.590  24.482  1.00  0.00     0.009 A 
HETATM   33  C22 UNL     1      -1.636  -1.788  24.009  1.00  0.00     0.001 A 
HETATM   34  C23 UNL     1      -1.017  -2.405  22.945  1.00  0.00     0.000 A 
HETATM   35  C24 UNL     1       0.089  -1.823  22.382  1.00  0.00     0.001 A 
HETATM   36  C25 UNL     1       0.602  -0.626  22.855  1.00  0.00     0.009 A 
ENDBRANCH  30  31
ENDBRANCH  29  30
ENDBRANCH  26  29
ENDBRANCH  24  25
TORSDOF 4
ENDMDL
