MODEL 7
REMARK VINA RESULT: -8.916822904      4.245      6.440
REMARK  4 active torsions:
REMARK  status: ('A' for Active; 'I' for Inactive)
REMARK    1  A    between atoms: C17_24  and  N5_25 
REMARK       I    between atoms: N5_25  and  C18_27 
REMARK    2  A    between atoms: C18_27  and  O2_29 
REMARK    3  A    between atoms: O2_29  and  C19_30 
REMARK    4  A    between atoms: C19_30  and  C20_31 
ROOT
HETATM    1  C1  UNL     1      -0.690   8.985  21.428  1.00  0.00     0.091 C 
HETATM    2  C2  UNL     1      -0.380   7.596  21.815  1.00  0.00     0.100 A 
HETATM    3  N1  UNL     1      -0.995   6.830  22.761  1.00  0.00    -0.287 N 
ATOM      4  H1  UNL     1      -1.806   7.118  23.307  1.00  0.00     0.188 HD
HETATM    5  N2  UNL     1      -0.381   5.645  22.870  1.00  0.00    -0.284 N 
ATOM      6  H2  UNL     1      -0.648   4.894  23.507  1.00  0.00     0.188 HD
HETATM    7  C3  UNL     1       0.634   5.608  22.010  1.00  0.00     0.148 A 
HETATM    8  N3  UNL     1       0.599   6.834  21.373  1.00  0.00    -0.284 N 
HETATM    9  C4  UNL     1       1.493   7.233  20.341  1.00  0.00     0.054 A 
HETATM   10  C5  UNL     1       0.877   7.985  19.397  1.00  0.00     0.031 A 
HETATM   11  C6  UNL     1       1.687   8.371  18.319  1.00  0.00     0.002 A 
HETATM   12  C7  UNL     1       3.027   7.987  18.250  1.00  0.00     0.001 A 
HETATM   13  C8  UNL     1       3.602   7.219  19.235  1.00  0.00     0.016 A 
HETATM   14  C9  UNL     1       2.837   6.836  20.294  1.00  0.00     0.018 A 
HETATM   15  C10 UNL     1       3.577   6.027  21.238  1.00  0.00     0.052 C 
HETATM   16  C11 UNL     1       4.948   6.256  21.494  1.00  0.00    -0.009 A 
HETATM   17  C12 UNL     1       5.671   5.311  22.250  1.00  0.00     0.014 A 
HETATM   18  C13 UNL     1       6.964   5.508  22.646  1.00  0.00     0.001 A 
HETATM   19  C14 UNL     1       7.633   6.661  22.318  1.00  0.00     0.000 A 
HETATM   20  C15 UNL     1       6.966   7.602  21.588  1.00  0.00     0.001 A 
HETATM   21  C16 UNL     1       5.650   7.385  21.195  1.00  0.00     0.014 A 
HETATM   22  N4  UNL     1       3.013   5.014  21.866  1.00  0.00    -0.361 N 
ATOM     23  H4  UNL     1       3.626   4.508  22.505  1.00  0.00     0.162 HD
HETATM   24  C17 UNL     1       1.638   4.504  21.786  1.00  0.00     0.257 C 
ENDROOT
BRANCH  24  25
HETATM   25  N5  UNL     1       1.475   3.513  22.811  1.00  0.00    -0.309 N 
HETATM   26  C18 UNL     1       2.333   2.357  22.897  1.00  0.00     0.362 C 
HETATM   27  O1  UNL     1       3.244   2.204  22.066  1.00  0.00    -0.238 OA
ATOM     28  H5  UNL     1       0.730   3.629  23.498  1.00  0.00     0.167 HD
BRANCH  26  29
HETATM   29  O2  UNL     1       2.142   1.426  23.900  1.00  0.00    -0.299 OA
BRANCH  29  30
HETATM   30  C19 UNL     1       1.327   0.302  23.714  1.00  0.00     0.219 C 
BRANCH  30  31
HETATM   31  C20 UNL     1       0.243   0.181  24.711  1.00  0.00    -0.034 A 
HETATM   32  C21 UNL     1      -0.779  -0.723  24.527  1.00  0.00     0.009 A 
HETATM   33  C22 UNL     1      -1.808  -0.861  25.447  1.00  0.00     0.001 A 
HETATM   34  C23 UNL     1      -1.804  -0.070  26.575  1.00  0.00     0.000 A 
HETATM   35  C24 UNL     1      -0.787   0.830  26.760  1.00  0.00     0.001 A 
HETATM   36  C25 UNL     1       0.240   0.967  25.840  1.00  0.00     0.009 A 
ENDBRANCH  30  31
ENDBRANCH  29  30
ENDBRANCH  26  29
ENDBRANCH  24  25
TORSDOF 4
ENDMDL
