MODEL 3
REMARK VINA RESULT: -8.132921582      2.822      5.974
REMARK  4 active torsions:
REMARK  status: ('A' for Active; 'I' for Inactive)
REMARK    1  A    between atoms: C2_2  and  N1_3 
REMARK       I    between atoms: N1_3  and  C3_5 
REMARK    2  A    between atoms: C3_5  and  C4_7 
REMARK    3  A    between atoms: C4_7  and  C5_8 
REMARK    4  A    between atoms: C15_21  and  O2_22 
ROOT
HETATM    1  C5  UNL     1      21.690   9.168 -12.075  1.00  0.00     0.160 C 
HETATM    2  N2  UNL     1      21.407  10.610 -12.096  1.00  0.00    -0.376 N 
ATOM      3  H2  UNL     1      22.113  11.179 -12.565  1.00  0.00     0.160 HD
HETATM    4  C6  UNL     1      20.398  11.279 -11.612  1.00  0.00     0.051 C 
HETATM    5  C7  UNL     1      20.405  12.702 -11.785  1.00  0.00    -0.009 A 
HETATM    6  C8  UNL     1      19.568  13.624 -11.274  1.00  0.00     0.015 A 
HETATM    7  C9  UNL     1      19.644  14.946 -11.599  1.00  0.00     0.024 A 
HETATM    8  C10 UNL     1      20.593  15.428 -12.482  1.00  0.00     0.034 A 
HETATM    9 CL1  UNL     1      20.714  17.107 -12.917  1.00  0.00    -0.084 Cl
HETATM   10  C11 UNL     1      21.459  14.496 -13.011  1.00  0.00     0.024 A 
HETATM   11  C12 UNL     1      21.381  13.185 -12.688  1.00  0.00     0.015 A 
HETATM   12  C13 UNL     1      19.268  10.599 -11.001  1.00  0.00     0.021 A 
HETATM   13  C14 UNL     1      18.088  11.202 -11.314  1.00  0.00     0.052 A 
HETATM   14  C15 UNL     1      16.939  10.643 -10.796  1.00  0.00     0.069 A 
HETATM   15  C17 UNL     1      16.971   9.504  -9.986  1.00  0.00     0.039 A 
HETATM   16  C18 UNL     1      18.176   8.872  -9.662  1.00  0.00     0.034 A 
HETATM   17  C19 UNL     1      19.294   9.451 -10.187  1.00  0.00     0.055 A 
HETATM   18  N3  UNL     1      20.484   8.740  -9.850  1.00  0.00    -0.286 N 
HETATM   19  C20 UNL     1      20.664   8.135  -8.682  1.00  0.00     0.100 A 
HETATM   20  C21 UNL     1      19.763   8.153  -7.528  1.00  0.00     0.091 C 
HETATM   21  N4  UNL     1      21.903   7.569  -8.802  1.00  0.00    -0.287 N 
ATOM     22  H4  UNL     1      22.367   7.016  -8.081  1.00  0.00     0.188 HD
HETATM   23  N5  UNL     1      22.418   7.851 -10.013  1.00  0.00    -0.285 N 
ATOM     24  H5  UNL     1      23.330   7.549 -10.357  1.00  0.00     0.188 HD
HETATM   25  C22 UNL     1      21.535   8.593 -10.691  1.00  0.00     0.128 A 
ENDROOT
BRANCH   1  26
HETATM   26  C4  UNL     1      23.101   8.980 -12.516  1.00  0.00     0.135 C 
BRANCH  26  27
HETATM   27  C3  UNL     1      23.465  10.014 -13.513  1.00  0.00     0.219 C 
HETATM   28  N1  UNL     1      24.638  10.791 -13.306  1.00  0.00    -0.361 N 
ATOM     29  H1  UNL     1      25.209  10.625 -12.477  1.00  0.00     0.162 HD
HETATM   30  O1  UNL     1      22.735  10.193 -14.529  1.00  0.00    -0.274 OA
BRANCH  28  31
HETATM   31  C2  UNL     1      25.034  11.801 -14.240  1.00  0.00     0.118 C 
HETATM   32  C1  UNL     1      25.029  13.153 -13.561  1.00  0.00     0.026 C 
ENDBRANCH  28  31
ENDBRANCH  26  27
ENDBRANCH   1  26
BRANCH  14  33
HETATM   33  O2  UNL     1      15.745  11.247 -11.101  1.00  0.00    -0.356 OA
HETATM   34  C16 UNL     1      14.497  10.718 -10.704  1.00  0.00     0.210 C 
ENDBRANCH  14  33
TORSDOF 4
ENDMDL
