MODEL 4
REMARK VINA RESULT: -7.952832066      5.357      8.448
REMARK  4 active torsions:
REMARK  status: ('A' for Active; 'I' for Inactive)
REMARK    1  A    between atoms: C2_2  and  N1_3 
REMARK       I    between atoms: N1_3  and  C3_5 
REMARK    2  A    between atoms: C3_5  and  C4_7 
REMARK    3  A    between atoms: C4_7  and  C5_8 
REMARK    4  A    between atoms: C15_21  and  O2_22 
ROOT
HETATM    1  C5  UNL     1      12.923   8.547 -11.151  1.00  0.00     0.160 C 
HETATM    2  N2  UNL     1      14.339   8.790 -10.840  1.00  0.00    -0.376 N 
ATOM      3  H2  UNL     1      14.812   8.019 -10.368  1.00  0.00     0.160 HD
HETATM    4  C6  UNL     1      15.087   9.832 -11.071  1.00  0.00     0.051 C 
HETATM    5  C7  UNL     1      16.452   9.774 -10.637  1.00  0.00    -0.009 A 
HETATM    6  C8  UNL     1      17.383  10.746 -10.632  1.00  0.00     0.015 A 
HETATM    7  C9  UNL     1      18.678  10.520 -10.268  1.00  0.00     0.024 A 
HETATM    8  C10 UNL     1      19.121   9.270  -9.878  1.00  0.00     0.034 A 
HETATM    9 CL1  UNL     1      20.765   8.952  -9.412  1.00  0.00    -0.084 Cl
HETATM   10  C11 UNL     1      18.178   8.266  -9.876  1.00  0.00     0.024 A 
HETATM   11  C12 UNL     1      16.894   8.491 -10.238  1.00  0.00     0.015 A 
HETATM   12  C13 UNL     1      14.581  10.970 -11.820  1.00  0.00     0.021 A 
HETATM   13  C14 UNL     1      15.530  11.489 -12.649  1.00  0.00     0.052 A 
HETATM   14  C15 UNL     1      15.166  12.574 -13.419  1.00  0.00     0.069 A 
HETATM   15  C17 UNL     1      13.881  13.123 -13.363  1.00  0.00     0.039 A 
HETATM   16  C18 UNL     1      12.897  12.595 -12.522  1.00  0.00     0.034 A 
HETATM   17  C19 UNL     1      13.289  11.526 -11.771  1.00  0.00     0.055 A 
HETATM   18  N3  UNL     1      12.231  11.012 -10.962  1.00  0.00    -0.286 N 
HETATM   19  C20 UNL     1      11.308  11.781 -10.400  1.00  0.00     0.100 A 
HETATM   20  C21 UNL     1      11.242  13.244 -10.417  1.00  0.00     0.091 C 
HETATM   21  N4  UNL     1      10.496  10.888  -9.755  1.00  0.00    -0.287 N 
ATOM     22  H4  UNL     1       9.668  11.134  -9.212  1.00  0.00     0.188 HD
HETATM   23  N5  UNL     1      10.954   9.637  -9.946  1.00  0.00    -0.285 N 
ATOM     24  H5  UNL     1      10.533   8.786  -9.572  1.00  0.00     0.188 HD
HETATM   25  C22 UNL     1      12.053   9.695 -10.706  1.00  0.00     0.128 A 
ENDROOT
BRANCH   1  26
HETATM   26  C4  UNL     1      12.505   7.319 -10.419  1.00  0.00     0.135 C 
BRANCH  26  27
HETATM   27  C3  UNL     1      11.932   6.332 -11.367  1.00  0.00     0.219 C 
HETATM   28  N1  UNL     1      11.642   5.019 -10.904  1.00  0.00    -0.361 N 
ATOM     29  H1  UNL     1      11.831   4.777  -9.932  1.00  0.00     0.162 HD
HETATM   30  O1  UNL     1      11.710   6.667 -12.565  1.00  0.00    -0.274 OA
BRANCH  28  31
HETATM   31  C2  UNL     1      11.087   4.032 -11.779  1.00  0.00     0.118 C 
HETATM   32  C1  UNL     1      11.694   2.680 -11.472  1.00  0.00     0.026 C 
ENDBRANCH  28  31
ENDBRANCH  26  27
ENDBRANCH   1  26
BRANCH  14  33
HETATM   33  O2  UNL     1      16.117  13.108 -14.252  1.00  0.00    -0.356 OA
HETATM   34  C16 UNL     1      17.382  13.535 -13.793  1.00  0.00     0.210 C 
ENDBRANCH  14  33
TORSDOF 4
ENDMDL
