MODEL 2
REMARK VINA RESULT: -8.699249180      0.994      1.000
REMARK  4 active torsions:
REMARK  status: ('A' for Active; 'I' for Inactive)
REMARK    1  A    between atoms: C2_2  and  N1_3 
REMARK       I    between atoms: N1_3  and  C3_5 
REMARK    2  A    between atoms: C3_5  and  C4_7 
REMARK    3  A    between atoms: C4_7  and  C5_8 
REMARK    4  A    between atoms: C15_21  and  O2_22 
ROOT
HETATM    1  C5  UNL     1      20.983   9.342  -9.695  1.00  0.00     0.160 C 
HETATM    2  N2  UNL     1      19.603   9.648 -10.097  1.00  0.00    -0.376 N 
ATOM      3  H2  UNL     1      18.909   8.958  -9.809  1.00  0.00     0.160 HD
HETATM    4  C6  UNL     1      19.123  10.661 -10.763  1.00  0.00     0.051 C 
HETATM    5  C7  UNL     1      17.712  10.679 -11.011  1.00  0.00    -0.009 A 
HETATM    6  C8  UNL     1      16.995  11.525 -11.775  1.00  0.00     0.015 A 
HETATM    7  C9  UNL     1      15.634  11.474 -11.848  1.00  0.00     0.024 A 
HETATM    8  C10 UNL     1      14.898  10.544 -11.137  1.00  0.00     0.034 A 
HETATM    9 CL1  UNL     1      13.163  10.457 -11.209  1.00  0.00    -0.084 Cl
HETATM   10  C11 UNL     1      15.619   9.671 -10.353  1.00  0.00     0.024 A 
HETATM   11  C12 UNL     1      16.968   9.723 -10.281  1.00  0.00     0.015 A 
HETATM   12  C13 UNL     1      19.973  11.772 -11.157  1.00  0.00     0.021 A 
HETATM   13  C14 UNL     1      19.328  12.966 -11.042  1.00  0.00     0.052 A 
HETATM   14  C15 UNL     1      20.035  14.100 -11.383  1.00  0.00     0.069 A 
HETATM   15  C17 UNL     1      21.360  14.039 -11.826  1.00  0.00     0.039 A 
HETATM   16  C18 UNL     1      22.035  12.820 -11.943  1.00  0.00     0.034 A 
HETATM   17  C19 UNL     1      21.308  11.718 -11.602  1.00  0.00     0.055 A 
HETATM   18  N3  UNL     1      22.063  10.512 -11.708  1.00  0.00    -0.286 N 
HETATM   19  C20 UNL     1      22.978  10.308 -12.648  1.00  0.00     0.100 A 
HETATM   20  C21 UNL     1      23.314  11.195 -13.763  1.00  0.00     0.091 C 
HETATM   21  N4  UNL     1      23.461   9.062 -12.360  1.00  0.00    -0.287 N 
ATOM     22  H4  UNL     1      24.191   8.579 -12.885  1.00  0.00     0.188 HD
HETATM   23  N5  UNL     1      22.829   8.567 -11.279  1.00  0.00    -0.285 N 
ATOM     24  H5  UNL     1      23.000   7.654 -10.855  1.00  0.00     0.188 HD
HETATM   25  C22 UNL     1      21.939   9.470 -10.853  1.00  0.00     0.128 A 
ENDROOT
BRANCH   1  26
HETATM   26  C4  UNL     1      21.008   7.933  -9.209  1.00  0.00     0.135 C 
BRANCH  26  27
HETATM   27  C3  UNL     1      20.543   7.873  -7.802  1.00  0.00     0.219 C 
HETATM   28  N1  UNL     1      21.305   7.136  -6.854  1.00  0.00    -0.361 N 
ATOM     29  H1  UNL     1      22.156   6.662  -7.156  1.00  0.00     0.162 HD
HETATM   30  O1  UNL     1      19.483   8.472  -7.464  1.00  0.00    -0.274 OA
BRANCH  28  31
HETATM   31  C2  UNL     1      20.899   7.048  -5.485  1.00  0.00     0.118 C 
HETATM   32  C1  UNL     1      20.181   5.737  -5.249  1.00  0.00     0.026 C 
ENDBRANCH  28  31
ENDBRANCH  26  27
ENDBRANCH   1  26
BRANCH  14  33
HETATM   33  O2  UNL     1      19.391  15.307 -11.276  1.00  0.00    -0.356 OA
HETATM   34  C16 UNL     1      19.821  16.327 -10.399  1.00  0.00     0.210 C 
ENDBRANCH  14  33
TORSDOF 4
ENDMDL
