MODEL 1
REMARK VINA RESULT: -9.330709227      0.000      0.000
REMARK  4 active torsions:
REMARK  status: ('A' for Active; 'I' for Inactive)
REMARK    1  A    between atoms: C2_2  and  N1_3 
REMARK       I    between atoms: N1_3  and  C3_5 
REMARK    2  A    between atoms: C3_5  and  C4_7 
REMARK    3  A    between atoms: C4_7  and  C5_8 
REMARK    4  A    between atoms: C15_21  and  O2_22 
ROOT
HETATM    1  C5  UNL     1      21.407   9.155 -10.102  1.00  0.00     0.160 C 
HETATM    2  N2  UNL     1      19.987   9.454 -10.334  1.00  0.00    -0.376 N 
ATOM      3  H2  UNL     1      19.351   8.675 -10.160  1.00  0.00     0.160 HD
HETATM    4  C6  UNL     1      19.409  10.555 -10.725  1.00  0.00     0.051 C 
HETATM    5  C7  UNL     1      17.983  10.537 -10.869  1.00  0.00    -0.009 A 
HETATM    6  C8  UNL     1      17.168  11.481 -11.377  1.00  0.00     0.015 A 
HETATM    7  C9  UNL     1      15.810  11.361 -11.369  1.00  0.00     0.024 A 
HETATM    8  C10 UNL     1      15.177  10.255 -10.834  1.00  0.00     0.034 A 
HETATM    9 CL1  UNL     1      13.448  10.075 -10.808  1.00  0.00    -0.084 Cl
HETATM   10  C11 UNL     1      15.998   9.279 -10.313  1.00  0.00     0.024 A 
HETATM   11  C12 UNL     1      17.345   9.400 -10.321  1.00  0.00     0.015 A 
HETATM   12  C13 UNL     1      20.171  11.777 -10.920  1.00  0.00     0.021 A 
HETATM   13  C14 UNL     1      19.481  12.874 -10.500  1.00  0.00     0.052 A 
HETATM   14  C15 UNL     1      20.105  14.097 -10.629  1.00  0.00     0.069 A 
HETATM   15  C17 UNL     1      21.393  14.218 -11.162  1.00  0.00     0.039 A 
HETATM   16  C18 UNL     1      22.114  13.099 -11.590  1.00  0.00     0.034 A 
HETATM   17  C19 UNL     1      21.468  11.905 -11.454  1.00  0.00     0.055 A 
HETATM   18  N3  UNL     1      22.269  10.801 -11.874  1.00  0.00    -0.286 N 
HETATM   19  C20 UNL     1      23.115  10.865 -12.894  1.00  0.00     0.100 A 
HETATM   20  C21 UNL     1      23.320  11.992 -13.806  1.00  0.00     0.091 C 
HETATM   21  N4  UNL     1      23.677   9.618 -12.922  1.00  0.00    -0.287 N 
ATOM     22  H4  UNL     1      24.386   9.309 -13.588  1.00  0.00     0.188 HD
HETATM   23  N5  UNL     1      23.156   8.862 -11.938  1.00  0.00    -0.285 N 
ATOM     24  H5  UNL     1      23.404   7.892 -11.739  1.00  0.00     0.188 HD
HETATM   25  C22 UNL     1      22.262   9.593 -11.265  1.00  0.00     0.128 A 
ENDROOT
BRANCH   1  26
HETATM   26  C4  UNL     1      21.537   7.679  -9.942  1.00  0.00     0.135 C 
BRANCH  26  27
HETATM   27  C3  UNL     1      21.901   7.350  -8.544  1.00  0.00     0.219 C 
HETATM   28  N1  UNL     1      20.918   7.485  -7.525  1.00  0.00    -0.361 N 
ATOM     29  H1  UNL     1      19.982   7.806  -7.771  1.00  0.00     0.162 HD
HETATM   30  O1  UNL     1      23.071   6.955  -8.274  1.00  0.00    -0.274 OA
BRANCH  28  31
HETATM   31  C2  UNL     1      21.219   7.179  -6.159  1.00  0.00     0.118 C 
HETATM   32  C1  UNL     1      19.955   6.761  -5.440  1.00  0.00     0.026 C 
ENDBRANCH  28  31
ENDBRANCH  26  27
ENDBRANCH   1  26
BRANCH  14  33
HETATM   33  O2  UNL     1      19.416  15.208 -10.215  1.00  0.00    -0.356 OA
HETATM   34  C16 UNL     1      19.873  16.524 -10.451  1.00  0.00     0.210 C 
ENDBRANCH  14  33
TORSDOF 4
ENDMDL
