MODEL 5
REMARK VINA RESULT: -7.930346455      2.904      6.111
REMARK  4 active torsions:
REMARK  status: ('A' for Active; 'I' for Inactive)
REMARK    1  A    between atoms: C2_2  and  N1_3 
REMARK       I    between atoms: N1_3  and  C3_5 
REMARK    2  A    between atoms: C3_5  and  C4_7 
REMARK    3  A    between atoms: C4_7  and  C5_8 
REMARK    4  A    between atoms: C15_21  and  O2_22 
ROOT
HETATM    1  C5  UNL     1      21.941  10.250 -12.495  1.00  0.00     0.160 C 
HETATM    2  N2  UNL     1      21.565  11.589 -12.022  1.00  0.00    -0.376 N 
ATOM      3  H2  UNL     1      22.187  12.340 -12.323  1.00  0.00     0.160 HD
HETATM    4  C6  UNL     1      20.564  11.972 -11.279  1.00  0.00     0.051 C 
HETATM    5  C7  UNL     1      20.464  13.369 -10.975  1.00  0.00    -0.009 A 
HETATM    6  C8  UNL     1      19.620  13.997 -10.135  1.00  0.00     0.015 A 
HETATM    7  C9  UNL     1      19.581  15.355 -10.012  1.00  0.00     0.024 A 
HETATM    8  C10 UNL     1      20.413  16.180 -10.747  1.00  0.00     0.034 A 
HETATM    9 CL1  UNL     1      20.385  17.913 -10.612  1.00  0.00    -0.084 Cl
HETATM   10  C11 UNL     1      21.284  15.551 -11.609  1.00  0.00     0.024 A 
HETATM   11  C12 UNL     1      21.320  14.204 -11.730  1.00  0.00     0.015 A 
HETATM   12  C13 UNL     1      19.541  11.032 -10.853  1.00  0.00     0.021 A 
HETATM   13  C14 UNL     1      18.301  11.595 -10.873  1.00  0.00     0.052 A 
HETATM   14  C15 UNL     1      17.242  10.797 -10.493  1.00  0.00     0.069 A 
HETATM   15  C17 UNL     1      17.421   9.465 -10.106  1.00  0.00     0.039 A 
HETATM   16  C18 UNL     1      18.689   8.874 -10.089  1.00  0.00     0.034 A 
HETATM   17  C19 UNL     1      19.714   9.690 -10.466  1.00  0.00     0.055 A 
HETATM   18  N3  UNL     1      20.974   9.019 -10.460  1.00  0.00    -0.286 N 
HETATM   19  C20 UNL     1      21.298   8.089  -9.571  1.00  0.00     0.100 A 
HETATM   20  C21 UNL     1      20.507   7.651  -8.419  1.00  0.00     0.091 C 
HETATM   21  N4  UNL     1      22.555   7.706  -9.951  1.00  0.00    -0.287 N 
ATOM     22  H4  UNL     1      23.118   6.995  -9.484  1.00  0.00     0.188 HD
HETATM   23  N5  UNL     1      22.937   8.410 -11.033  1.00  0.00    -0.285 N 
ATOM     24  H5  UNL     1      23.832   8.319 -11.516  1.00  0.00     0.188 HD
HETATM   25  C22 UNL     1      21.950   9.247 -11.370  1.00  0.00     0.128 A 
ENDROOT
BRANCH   1  26
HETATM   26  C4  UNL     1      23.315  10.342 -13.064  1.00  0.00     0.135 C 
BRANCH  26  27
HETATM   27  C3  UNL     1      23.508  11.660 -13.715  1.00  0.00     0.219 C 
HETATM   28  N1  UNL     1      24.634  12.450 -13.354  1.00  0.00    -0.361 N 
ATOM     29  H1  UNL     1      25.288  12.099 -12.654  1.00  0.00     0.162 HD
HETATM   30  O1  UNL     1      22.677  12.064 -14.578  1.00  0.00    -0.274 OA
BRANCH  28  31
HETATM   31  C2  UNL     1      24.866  13.728 -13.954  1.00  0.00     0.118 C 
HETATM   32  C1  UNL     1      24.708  14.816 -12.914  1.00  0.00     0.026 C 
ENDBRANCH  28  31
ENDBRANCH  26  27
ENDBRANCH   1  26
BRANCH  14  33
HETATM   33  O2  UNL     1      15.989  11.357 -10.504  1.00  0.00    -0.356 OA
HETATM   34  C16 UNL     1      14.807  10.584 -10.527  1.00  0.00     0.210 C 
ENDBRANCH  14  33
TORSDOF 4
ENDMDL
