MODEL 1
REMARK VINA RESULT: -10.358760346      0.000      0.000
REMARK  4 active torsions:
REMARK  status: ('A' for Active; 'I' for Inactive)
REMARK    1  A    between atoms: C17_24  and  N5_25 
REMARK       I    between atoms: N5_25  and  C18_27 
REMARK    2  A    between atoms: C18_27  and  O2_29 
REMARK    3  A    between atoms: O2_29  and  C19_30 
REMARK    4  A    between atoms: C19_30  and  C20_31 
ROOT
HETATM    1  C1  UNL     1     -13.043  -8.480   4.533  1.00  0.00     0.091 C 
HETATM    2  C2  UNL     1     -13.351  -7.625   3.372  1.00  0.00     0.100 A 
HETATM    3  N1  UNL     1     -14.516  -7.555   2.666  1.00  0.00    -0.287 N 
ATOM      4  H1  UNL     1     -15.366  -8.072   2.890  1.00  0.00     0.188 HD
HETATM    5  N2  UNL     1     -14.384  -6.710   1.634  1.00  0.00    -0.284 N 
ATOM      6  H2  UNL     1     -15.111  -6.484   0.955  1.00  0.00     0.188 HD
HETATM    7  C3  UNL     1     -13.149  -6.215   1.642  1.00  0.00     0.148 A 
HETATM    8  N3  UNL     1     -12.542  -6.804   2.736  1.00  0.00    -0.284 N 
HETATM    9  C4  UNL     1     -11.207  -6.544   3.154  1.00  0.00     0.054 A 
HETATM   10  C5  UNL     1     -11.089  -6.540   4.504  1.00  0.00     0.031 A 
HETATM   11  C6  UNL     1      -9.809  -6.238   4.991  1.00  0.00     0.002 A 
HETATM   12  C7  UNL     1      -8.753  -5.961   4.120  1.00  0.00     0.001 A 
HETATM   13  C8  UNL     1      -8.929  -5.975   2.756  1.00  0.00     0.016 A 
HETATM   14  C9  UNL     1     -10.162  -6.271   2.260  1.00  0.00     0.018 A 
HETATM   15  C10 UNL     1     -10.191  -6.236   0.815  1.00  0.00     0.052 C 
HETATM   16  C11 UNL     1      -9.081  -6.645   0.042  1.00  0.00    -0.009 A 
HETATM   17  C12 UNL     1      -9.078  -6.388  -1.344  1.00  0.00     0.014 A 
HETATM   18  C13 UNL     1      -8.106  -6.851  -2.185  1.00  0.00     0.001 A 
HETATM   19  C14 UNL     1      -7.063  -7.605  -1.707  1.00  0.00     0.000 A 
HETATM   20  C15 UNL     1      -7.031  -7.877  -0.370  1.00  0.00     0.001 A 
HETATM   21  C16 UNL     1      -8.030  -7.398   0.470  1.00  0.00     0.014 A 
HETATM   22  N4  UNL     1     -11.240  -5.781   0.159  1.00  0.00    -0.361 N 
ATOM     23  H4  UNL     1     -11.154  -5.796  -0.858  1.00  0.00     0.162 HD
HETATM   24  C17 UNL     1     -12.514  -5.255   0.667  1.00  0.00     0.257 C 
ENDROOT
BRANCH  24  25
HETATM   25  N5  UNL     1     -13.396  -5.077  -0.451  1.00  0.00    -0.309 N 
HETATM   26  C18 UNL     1     -14.249  -3.921  -0.572  1.00  0.00     0.362 C 
HETATM   27  O1  UNL     1     -14.229  -3.047   0.311  1.00  0.00    -0.238 OA
ATOM     28  H5  UNL     1     -13.420  -5.788  -1.181  1.00  0.00     0.167 HD
BRANCH  26  29
HETATM   29  O2  UNL     1     -15.084  -3.788  -1.665  1.00  0.00    -0.299 OA
BRANCH  29  30
HETATM   30  C19 UNL     1     -15.000  -2.687  -2.525  1.00  0.00     0.219 C 
BRANCH  30  31
HETATM   31  C20 UNL     1     -13.825  -2.718  -3.421  1.00  0.00    -0.034 A 
HETATM   32  C21 UNL     1     -12.552  -2.799  -2.904  1.00  0.00     0.009 A 
HETATM   33  C22 UNL     1     -11.432  -2.833  -3.721  1.00  0.00     0.001 A 
HETATM   34  C23 UNL     1     -11.601  -2.784  -5.088  1.00  0.00     0.000 A 
HETATM   35  C24 UNL     1     -12.868  -2.703  -5.604  1.00  0.00     0.001 A 
HETATM   36  C25 UNL     1     -13.986  -2.669  -4.787  1.00  0.00     0.009 A 
ENDBRANCH  30  31
ENDBRANCH  29  30
ENDBRANCH  26  29
ENDBRANCH  24  25
TORSDOF 4
ENDMDL
