MODEL 3
REMARK VINA RESULT: -10.207503526      2.893      7.088
REMARK  4 active torsions:
REMARK  status: ('A' for Active; 'I' for Inactive)
REMARK    1  A    between atoms: C17_24  and  N5_25 
REMARK       I    between atoms: N5_25  and  C18_27 
REMARK    2  A    between atoms: C18_27  and  O2_29 
REMARK    3  A    between atoms: O2_29  and  C19_30 
REMARK    4  A    between atoms: C19_30  and  C20_31 
ROOT
HETATM    1  C1  UNL     1     -10.581  -5.859   3.498  1.00  0.00     0.091 C 
HETATM    2  C2  UNL     1      -9.935  -6.123   2.200  1.00  0.00     0.100 A 
HETATM    3  N1  UNL     1      -8.603  -6.245   1.933  1.00  0.00    -0.287 N 
ATOM      4  H1  UNL     1      -7.863  -6.213   2.634  1.00  0.00     0.188 HD
HETATM    5  N2  UNL     1      -8.405  -6.413   0.619  1.00  0.00    -0.284 N 
ATOM      6  H2  UNL     1      -7.499  -6.527   0.165  1.00  0.00     0.188 HD
HETATM    7  C3  UNL     1      -9.585  -6.406   0.004  1.00  0.00     0.148 A 
HETATM    8  N3  UNL     1     -10.508  -6.227   1.018  1.00  0.00    -0.284 N 
HETATM    9  C4  UNL     1     -11.917  -6.185   0.828  1.00  0.00     0.054 A 
HETATM   10  C5  UNL     1     -12.586  -6.776   1.848  1.00  0.00     0.031 A 
HETATM   11  C6  UNL     1     -13.980  -6.817   1.703  1.00  0.00     0.002 A 
HETATM   12  C7  UNL     1     -14.604  -6.284   0.573  1.00  0.00     0.001 A 
HETATM   13  C8  UNL     1     -13.876  -5.698  -0.436  1.00  0.00     0.016 A 
HETATM   14  C9  UNL     1     -12.521  -5.641  -0.314  1.00  0.00     0.018 A 
HETATM   15  C10 UNL     1     -11.897  -5.007  -1.455  1.00  0.00     0.052 C 
HETATM   16  C11 UNL     1     -12.519  -3.939  -2.141  1.00  0.00    -0.009 A 
HETATM   17  C12 UNL     1     -11.979  -3.505  -3.368  1.00  0.00     0.014 A 
HETATM   18  C13 UNL     1     -12.440  -2.407  -4.038  1.00  0.00     0.001 A 
HETATM   19  C14 UNL     1     -13.476  -1.660  -3.534  1.00  0.00     0.000 A 
HETATM   20  C15 UNL     1     -14.026  -2.048  -2.346  1.00  0.00     0.001 A 
HETATM   21  C16 UNL     1     -13.542  -3.167  -1.679  1.00  0.00     0.014 A 
HETATM   22  N4  UNL     1     -10.742  -5.429  -1.929  1.00  0.00    -0.361 N 
ATOM     23  H4  UNL     1     -10.394  -4.915  -2.739  1.00  0.00     0.162 HD
HETATM   24  C17 UNL     1      -9.878  -6.525  -1.471  1.00  0.00     0.257 C 
ENDROOT
BRANCH  24  25
HETATM   25  N5  UNL     1      -8.644  -6.449  -2.198  1.00  0.00    -0.309 N 
HETATM   26  C18 UNL     1      -8.304  -7.401  -3.225  1.00  0.00     0.362 C 
HETATM   27  O1  UNL     1      -9.095  -8.320  -3.498  1.00  0.00    -0.238 OA
ATOM     28  H5  UNL     1      -7.987  -5.699  -1.981  1.00  0.00     0.167 HD
BRANCH  26  29
HETATM   29  O2  UNL     1      -7.104  -7.292  -3.902  1.00  0.00    -0.299 OA
BRANCH  29  30
HETATM   30  C19 UNL     1      -6.175  -8.339  -3.925  1.00  0.00     0.219 C 
BRANCH  30  31
HETATM   31  C20 UNL     1      -5.233  -8.327  -2.786  1.00  0.00    -0.034 A 
HETATM   32  C21 UNL     1      -5.492  -9.068  -1.655  1.00  0.00     0.009 A 
HETATM   33  C22 UNL     1      -4.624  -9.078  -0.573  1.00  0.00     0.001 A 
HETATM   34  C23 UNL     1      -3.473  -8.324  -0.635  1.00  0.00     0.000 A 
HETATM   35  C24 UNL     1      -3.213  -7.586  -1.760  1.00  0.00     0.001 A 
HETATM   36  C25 UNL     1      -4.080  -7.577  -2.840  1.00  0.00     0.009 A 
ENDBRANCH  30  31
ENDBRANCH  29  30
ENDBRANCH  26  29
ENDBRANCH  24  25
TORSDOF 4
ENDMDL
