MODEL 2
REMARK VINA RESULT: -10.295617707      2.884      6.627
REMARK  4 active torsions:
REMARK  status: ('A' for Active; 'I' for Inactive)
REMARK    1  A    between atoms: C17_24  and  N5_25 
REMARK       I    between atoms: N5_25  and  C18_27 
REMARK    2  A    between atoms: C18_27  and  O2_29 
REMARK    3  A    between atoms: O2_29  and  C19_30 
REMARK    4  A    between atoms: C19_30  and  C20_31 
ROOT
HETATM    1  C1  UNL     1     -10.832  -6.058   5.050  1.00  0.00     0.091 C 
HETATM    2  C2  UNL     1      -9.998  -6.267   3.853  1.00  0.00     0.100 A 
HETATM    3  N1  UNL     1      -8.639  -6.214   3.756  1.00  0.00    -0.287 N 
ATOM      4  H1  UNL     1      -8.004  -6.063   4.539  1.00  0.00     0.188 HD
HETATM    5  N2  UNL     1      -8.256  -6.389   2.484  1.00  0.00    -0.284 N 
ATOM      6  H2  UNL     1      -7.293  -6.392   2.148  1.00  0.00     0.188 HD
HETATM    7  C3  UNL     1      -9.339  -6.559   1.731  1.00  0.00     0.148 A 
HETATM    8  N3  UNL     1     -10.398  -6.479   2.616  1.00  0.00    -0.284 N 
HETATM    9  C4  UNL     1     -11.766  -6.633   2.254  1.00  0.00     0.054 A 
HETATM   10  C5  UNL     1     -12.475  -7.282   3.210  1.00  0.00     0.031 A 
HETATM   11  C6  UNL     1     -13.822  -7.515   2.898  1.00  0.00     0.002 A 
HETATM   12  C7  UNL     1     -14.363  -7.102   1.679  1.00  0.00     0.001 A 
HETATM   13  C8  UNL     1     -13.596  -6.450   0.742  1.00  0.00     0.016 A 
HETATM   14  C9  UNL     1     -12.287  -6.207   1.024  1.00  0.00     0.018 A 
HETATM   15  C10 UNL     1     -11.612  -5.526  -0.059  1.00  0.00     0.052 C 
HETATM   16  C11 UNL     1     -12.277  -4.571  -0.861  1.00  0.00    -0.009 A 
HETATM   17  C12 UNL     1     -11.647  -4.101  -2.032  1.00  0.00     0.014 A 
HETATM   18  C13 UNL     1     -12.161  -3.094  -2.800  1.00  0.00     0.001 A 
HETATM   19  C14 UNL     1     -13.341  -2.482  -2.459  1.00  0.00     0.000 A 
HETATM   20  C15 UNL     1     -13.980  -2.907  -1.331  1.00  0.00     0.001 A 
HETATM   21  C16 UNL     1     -13.442  -3.932  -0.561  1.00  0.00     0.014 A 
HETATM   22  N4  UNL     1     -10.361  -5.801  -0.371  1.00  0.00    -0.361 N 
ATOM     23  H4  UNL     1      -9.984  -5.266  -1.154  1.00  0.00     0.162 HD
HETATM   24  C17 UNL     1      -9.426  -6.757   0.237  1.00  0.00     0.257 C 
ENDROOT
BRANCH  24  25
HETATM   25  N5  UNL     1      -8.130  -6.533  -0.337  1.00  0.00    -0.309 N 
HETATM   26  C18 UNL     1      -7.879  -6.716  -1.745  1.00  0.00     0.362 C 
HETATM   27  O1  UNL     1      -8.803  -7.076  -2.493  1.00  0.00    -0.238 OA
ATOM     28  H5  UNL     1      -7.365  -6.237   0.269  1.00  0.00     0.167 HD
BRANCH  26  29
HETATM   29  O2  UNL     1      -6.615  -6.490  -2.257  1.00  0.00    -0.299 OA
BRANCH  29  30
HETATM   30  C19 UNL     1      -5.560  -7.382  -2.031  1.00  0.00     0.219 C 
BRANCH  30  31
HETATM   31  C20 UNL     1      -5.728  -8.688  -2.701  1.00  0.00    -0.034 A 
HETATM   32  C21 UNL     1      -5.989  -9.823  -1.968  1.00  0.00     0.009 A 
HETATM   33  C22 UNL     1      -6.155 -11.061  -2.571  1.00  0.00     0.001 A 
HETATM   34  C23 UNL     1      -6.055 -11.154  -3.941  1.00  0.00     0.000 A 
HETATM   35  C24 UNL     1      -5.796 -10.025  -4.673  1.00  0.00     0.001 A 
HETATM   36  C25 UNL     1      -5.631  -8.789  -4.071  1.00  0.00     0.009 A 
ENDBRANCH  30  31
ENDBRANCH  29  30
ENDBRANCH  26  29
ENDBRANCH  24  25
TORSDOF 4
ENDMDL
