MODEL 1
REMARK VINA RESULT: -5.547683494      0.000      0.000
REMARK  4 active torsions:
REMARK  status: ('A' for Active; 'I' for Inactive)
REMARK    1  A    between atoms: C1_2  and  C2_4 
REMARK    2  A    between atoms: C2_4  and  C3_5 
REMARK    3  A    between atoms: C3_5  and  O3_6 
REMARK    4  A    between atoms: C3_5  and  C4_8 
ROOT
HETATM    1  C3  UNL     1     -61.840  26.958  18.967  1.00  0.00     0.228 C 
ENDROOT
BRANCH   1   2
HETATM    2  C2  UNL     1     -62.126  26.533  17.571  1.00  0.00     0.156 C 
BRANCH   2   3
HETATM    3  C1  UNL     1     -63.028  27.388  16.805  1.00  0.00     0.175 C 
HETATM    4  O1  UNL     1     -64.264  27.388  16.791  1.00  0.00    -0.648 OA
HETATM    5  O2  UNL     1     -62.408  28.340  15.972  1.00  0.00    -0.648 OA
ENDBRANCH   2   3
ENDBRANCH   1   2
BRANCH   1   6
HETATM    6  O3  UNL     1     -62.351  28.269  19.118  1.00  0.00    -0.384 OA
ATOM      7  H3  UNL     1     -61.671  28.790  19.528  1.00  0.00     0.210 HD
ENDBRANCH   1   6
BRANCH   1   8
HETATM    8  C4  UNL     1     -60.372  27.086  19.186  1.00  0.00     0.203 C 
HETATM    9  O4  UNL     1     -59.802  28.200  19.257  1.00  0.00    -0.646 OA
HETATM   10  O5  UNL     1     -59.526  25.983  19.330  1.00  0.00    -0.646 OA
ENDBRANCH   1   8
TORSDOF 4
ENDMDL
