MODEL 2
REMARK VINA RESULT: -5.546090469      0.157      1.052
REMARK  4 active torsions:
REMARK  status: ('A' for Active; 'I' for Inactive)
REMARK    1  A    between atoms: C1_2  and  C2_4 
REMARK    2  A    between atoms: C2_4  and  C3_5 
REMARK    3  A    between atoms: C3_5  and  O3_6 
REMARK    4  A    between atoms: C3_5  and  C4_8 
ROOT
HETATM    1  C3  UNL     1     -61.806  26.958  18.980  1.00  0.00     0.228 C 
ENDROOT
BRANCH   1   2
HETATM    2  C2  UNL     1     -62.152  26.485  17.613  1.00  0.00     0.156 C 
BRANCH   2   3
HETATM    3  C1  UNL     1     -63.024  27.354  16.828  1.00  0.00     0.175 C 
HETATM    4  O1  UNL     1     -64.258  27.356  16.768  1.00  0.00    -0.648 OA
HETATM    5  O2  UNL     1     -62.372  28.318  16.033  1.00  0.00    -0.648 OA
ENDBRANCH   2   3
ENDBRANCH   1   2
BRANCH   1   6
HETATM    6  O3  UNL     1     -62.336  28.264  19.117  1.00  0.00    -0.384 OA
ATOM      7  H3  UNL     1     -62.658  28.527  18.263  1.00  0.00     0.210 HD
ENDBRANCH   1   6
BRANCH   1   8
HETATM    8  C4  UNL     1     -60.332  27.120  19.122  1.00  0.00     0.203 C 
HETATM    9  O4  UNL     1     -59.539  26.159  18.988  1.00  0.00    -0.646 OA
HETATM   10  O5  UNL     1     -59.727  28.345  19.414  1.00  0.00    -0.646 OA
ENDBRANCH   1   8
TORSDOF 4
ENDMDL
