MODEL 5
REMARK VINA RESULT: -4.886893164      1.401      1.992
REMARK  4 active torsions:
REMARK  status: ('A' for Active; 'I' for Inactive)
REMARK    1  A    between atoms: C1_2  and  C2_4 
REMARK    2  A    between atoms: C2_4  and  C3_5 
REMARK    3  A    between atoms: C3_5  and  O3_6 
REMARK    4  A    between atoms: C3_5  and  C4_8 
ROOT
HETATM    1  C3  UNL     1     -61.593  27.086  18.073  1.00  0.00     0.228 C 
ENDROOT
BRANCH   1   2
HETATM    2  C2  UNL     1     -62.752  27.528  18.893  1.00  0.00     0.156 C 
BRANCH   2   3
HETATM    3  C1  UNL     1     -64.056  27.502  18.237  1.00  0.00     0.175 C 
HETATM    4  O1  UNL     1     -65.156  27.831  18.694  1.00  0.00    -0.648 OA
HETATM    5  O2  UNL     1     -64.062  27.040  16.905  1.00  0.00    -0.648 OA
ENDBRANCH   2   3
ENDBRANCH   1   2
BRANCH   1   6
HETATM    6  O3  UNL     1     -61.773  25.709  17.800  1.00  0.00    -0.384 OA
ATOM      7  H3  UNL     1     -62.680  25.502  17.993  1.00  0.00     0.210 HD
ENDBRANCH   1   6
BRANCH   1   8
HETATM    8  C4  UNL     1     -60.332  27.163  18.862  1.00  0.00     0.203 C 
HETATM    9  O4  UNL     1     -59.598  26.164  19.048  1.00  0.00    -0.646 OA
HETATM   10  O5  UNL     1     -59.874  28.345  19.451  1.00  0.00    -0.646 OA
ENDBRANCH   1   8
TORSDOF 4
ENDMDL
