MODEL 4
REMARK VINA RESULT: -4.927813620      1.394      1.689
REMARK  4 active torsions:
REMARK  status: ('A' for Active; 'I' for Inactive)
REMARK    1  A    between atoms: C1_2  and  C2_4 
REMARK    2  A    between atoms: C2_4  and  C3_5 
REMARK    3  A    between atoms: C3_5  and  O3_6 
REMARK    4  A    between atoms: C3_5  and  C4_8 
ROOT
HETATM    1  C3  UNL     1     -61.594  27.109  18.098  1.00  0.00     0.228 C 
ENDROOT
BRANCH   1   2
HETATM    2  C2  UNL     1     -62.762  27.547  18.909  1.00  0.00     0.156 C 
BRANCH   2   3
HETATM    3  C1  UNL     1     -64.059  27.525  18.240  1.00  0.00     0.175 C 
HETATM    4  O1  UNL     1     -65.163  27.859  18.687  1.00  0.00    -0.648 OA
HETATM    5  O2  UNL     1     -64.054  27.063  16.909  1.00  0.00    -0.648 OA
ENDBRANCH   2   3
ENDBRANCH   1   2
BRANCH   1   6
HETATM    6  O3  UNL     1     -61.770  25.732  17.821  1.00  0.00    -0.384 OA
ATOM      7  H3  UNL     1     -61.769  25.276  18.655  1.00  0.00     0.210 HD
ENDBRANCH   1   6
BRANCH   1   8
HETATM    8  C4  UNL     1     -60.340  27.187  18.898  1.00  0.00     0.203 C 
HETATM    9  O4  UNL     1     -59.919  28.266  19.376  1.00  0.00    -0.646 OA
HETATM   10  O5  UNL     1     -59.544  26.073  19.173  1.00  0.00    -0.646 OA
ENDBRANCH   1   8
TORSDOF 4
ENDMDL
