MODEL 3
REMARK VINA RESULT: -7.820371214      2.236      8.613
REMARK  8 active torsions:
REMARK  status: ('A' for Active; 'I' for Inactive)
REMARK    1  A    between atoms: O1_2  and  C2_3 
REMARK    2  A    between atoms: C4_5  and  C5_6 
REMARK    3  A    between atoms: C5_6  and  C6_7 
REMARK    4  A    between atoms: C6_7  and  C7_8 
REMARK    5  A    between atoms: C13_14  and  C14_15 
REMARK    6  A    between atoms: C15_18  and  O4_19 
REMARK    7  A    between atoms: C16_21  and  C17_22 
REMARK    8  A    between atoms: C17_22  and  C18_23 
ROOT
HETATM    1  C2  UNL     1      19.083  21.622  48.289  1.00  0.00     0.078 A 
HETATM    2  C3  UNL     1      19.333  20.311  48.043  1.00  0.00     0.045 A 
HETATM    3  C4  UNL     1      18.337  19.393  47.734  1.00  0.00    -0.035 A 
HETATM    4  C13 UNL     1      17.041  19.855  47.681  1.00  0.00     0.080 A 
HETATM    5  C15 UNL     1      16.736  21.202  47.928  1.00  0.00     0.092 A 
HETATM    6  C16 UNL     1      17.798  22.070  48.234  1.00  0.00     0.013 A 
ENDROOT
BRANCH   3   7
HETATM    7  C5  UNL     1      18.683  17.994  47.480  1.00  0.00     0.044 C 
BRANCH   7   8
HETATM    8  C6  UNL     1      20.106  17.851  46.942  1.00  0.00     0.043 C 
BRANCH   8   9
HETATM    9  C7  UNL     1      19.987  17.179  45.632  1.00  0.00    -0.058 A 
HETATM   10  C8  UNL     1      20.965  16.294  45.241  1.00  0.00     0.007 A 
HETATM   11  C9  UNL     1      20.892  15.641  44.011  1.00  0.00     0.001 A 
HETATM   12  C10 UNL     1      19.832  15.879  43.172  1.00  0.00     0.000 A 
HETATM   13  C11 UNL     1      18.844  16.761  43.547  1.00  0.00     0.001 A 
HETATM   14  C12 UNL     1      18.927  17.412  44.784  1.00  0.00     0.007 A 
ENDBRANCH   8   9
ENDBRANCH   7   8
ENDBRANCH   3   7
BRANCH   4  15
HETATM   15  C14 UNL     1      15.983  18.920  47.360  1.00  0.00     0.212 C 
HETATM   16  O2  UNL     1      15.180  18.506  48.222  1.00  0.00    -0.644 OA
HETATM   17  O3  UNL     1      15.819  18.438  46.045  1.00  0.00    -0.644 OA
ENDBRANCH   4  15
BRANCH   1  18
HETATM   18  O1  UNL     1      20.074  22.549  48.599  1.00  0.00    -0.355 OA
HETATM   19  C1  UNL     1      21.132  22.876  47.725  1.00  0.00     0.210 C 
ENDBRANCH   1  18
BRANCH   5  20
HETATM   20  O4  UNL     1      15.483  21.741  47.896  1.00  0.00    -0.359 OA
ATOM     21  H4  UNL     1      15.239  22.577  48.274  1.00  0.00     0.217 HD
ENDBRANCH   5  20
BRANCH   6  22
HETATM   22  C17 UNL     1      17.459  23.478  48.482  1.00  0.00     0.072 C 
BRANCH  22  23
HETATM   23  C18 UNL     1      17.169  23.795  49.879  1.00  0.00    -0.020 C 
HETATM   24  C19 UNL     1      16.138  24.523  50.196  1.00  0.00    -0.091 C 
HETATM   25  C20 UNL     1      15.162  25.105  49.245  1.00  0.00     0.042 C 
HETATM   26  C21 UNL     1      15.913  24.798  51.665  1.00  0.00     0.042 C 
ENDBRANCH  22  23
ENDBRANCH   6  22
TORSDOF 8
ENDMDL
