MODEL 2
REMARK VINA RESULT: -7.878698448      0.902      1.281
REMARK  8 active torsions:
REMARK  status: ('A' for Active; 'I' for Inactive)
REMARK    1  A    between atoms: O1_2  and  C2_3 
REMARK    2  A    between atoms: C4_5  and  C5_6 
REMARK    3  A    between atoms: C5_6  and  C6_7 
REMARK    4  A    between atoms: C6_7  and  C7_8 
REMARK    5  A    between atoms: C13_14  and  C14_15 
REMARK    6  A    between atoms: C15_18  and  O4_19 
REMARK    7  A    between atoms: C16_21  and  C17_22 
REMARK    8  A    between atoms: C17_22  and  C18_23 
ROOT
HETATM    1  C2  UNL     1      15.614  20.846  47.818  1.00  0.00     0.078 A 
HETATM    2  C3  UNL     1      15.284  22.093  48.241  1.00  0.00     0.045 A 
HETATM    3  C4  UNL     1      16.226  23.042  48.617  1.00  0.00    -0.035 A 
HETATM    4  C13 UNL     1      17.553  22.681  48.551  1.00  0.00     0.080 A 
HETATM    5  C15 UNL     1      17.941  21.402  48.121  1.00  0.00     0.092 A 
HETATM    6  C16 UNL     1      16.929  20.498  47.756  1.00  0.00     0.013 A 
ENDROOT
BRANCH   3   7
HETATM    7  C5  UNL     1      15.794  24.367  49.062  1.00  0.00     0.044 C 
BRANCH   7   8
HETATM    8  C6  UNL     1      14.737  24.278  50.161  1.00  0.00     0.043 C 
BRANCH   8   9
HETATM    9  C7  UNL     1      14.543  25.655  50.661  1.00  0.00    -0.058 A 
HETATM   10  C8  UNL     1      14.806  26.715  49.825  1.00  0.00     0.007 A 
HETATM   11  C9  UNL     1      14.638  28.030  50.258  1.00  0.00     0.001 A 
HETATM   12  C10 UNL     1      14.205  28.278  51.536  1.00  0.00     0.000 A 
HETATM   13  C11 UNL     1      13.937  27.230  52.387  1.00  0.00     0.001 A 
HETATM   14  C12 UNL     1      14.109  25.914  51.942  1.00  0.00     0.007 A 
ENDBRANCH   8   9
ENDBRANCH   7   8
ENDBRANCH   3   7
BRANCH   4  15
HETATM   15  C14 UNL     1      18.557  23.651  48.936  1.00  0.00     0.212 C 
HETATM   16  O2  UNL     1      19.181  23.566  50.014  1.00  0.00    -0.644 OA
HETATM   17  O3  UNL     1      18.870  24.738  48.096  1.00  0.00    -0.644 OA
ENDBRANCH   4  15
BRANCH   1  18
HETATM   18  O1  UNL     1      14.677  19.889  47.439  1.00  0.00    -0.355 OA
HETATM   19  C1  UNL     1      13.290  20.035  47.646  1.00  0.00     0.210 C 
ENDBRANCH   1  18
BRANCH   5  20
HETATM   20  O4  UNL     1      19.229  20.964  48.026  1.00  0.00    -0.359 OA
ATOM     21  H4  UNL     1      19.527  20.263  47.459  1.00  0.00     0.217 HD
ENDBRANCH   5  20
BRANCH   6  22
HETATM   22  C17 UNL     1      17.356  19.168  47.301  1.00  0.00     0.072 C 
BRANCH  22  23
HETATM   23  C18 UNL     1      17.709  19.095  45.884  1.00  0.00    -0.020 C 
HETATM   24  C19 UNL     1      17.035  18.338  45.067  1.00  0.00    -0.091 C 
HETATM   25  C20 UNL     1      15.878  17.486  45.430  1.00  0.00     0.042 C 
HETATM   26  C21 UNL     1      17.468  18.327  43.620  1.00  0.00     0.042 C 
ENDBRANCH  22  23
ENDBRANCH   6  22
TORSDOF 8
ENDMDL
