MODEL 1
REMARK VINA RESULT: -7.924288657      0.000      0.000
REMARK  8 active torsions:
REMARK  status: ('A' for Active; 'I' for Inactive)
REMARK    1  A    between atoms: O1_2  and  C2_3 
REMARK    2  A    between atoms: C4_5  and  C5_6 
REMARK    3  A    between atoms: C5_6  and  C6_7 
REMARK    4  A    between atoms: C6_7  and  C7_8 
REMARK    5  A    between atoms: C13_14  and  C14_15 
REMARK    6  A    between atoms: C15_18  and  O4_19 
REMARK    7  A    between atoms: C16_21  and  C17_22 
REMARK    8  A    between atoms: C17_22  and  C18_23 
ROOT
HETATM    1  C2  UNL     1      15.547  21.056  47.862  1.00  0.00     0.078 A 
HETATM    2  C3  UNL     1      15.233  22.305  48.289  1.00  0.00     0.045 A 
HETATM    3  C4  UNL     1      16.185  23.231  48.696  1.00  0.00    -0.035 A 
HETATM    4  C13 UNL     1      17.506  22.844  48.657  1.00  0.00     0.080 A 
HETATM    5  C15 UNL     1      17.877  21.562  48.222  1.00  0.00     0.092 A 
HETATM    6  C16 UNL     1      16.857  20.681  47.826  1.00  0.00     0.013 A 
ENDROOT
BRANCH   3   7
HETATM    7  C5  UNL     1      15.769  24.561  49.145  1.00  0.00     0.044 C 
BRANCH   7   8
HETATM    8  C6  UNL     1      14.634  24.485  50.163  1.00  0.00     0.043 C 
BRANCH   8   9
HETATM    9  C7  UNL     1      15.069  25.284  51.328  1.00  0.00    -0.058 A 
HETATM   10  C8  UNL     1      14.135  26.018  52.022  1.00  0.00     0.007 A 
HETATM   11  C9  UNL     1      14.504  26.788  53.125  1.00  0.00     0.001 A 
HETATM   12  C10 UNL     1      15.816  26.818  53.530  1.00  0.00     0.000 A 
HETATM   13  C11 UNL     1      16.763  26.090  52.847  1.00  0.00     0.001 A 
HETATM   14  C12 UNL     1      16.382  25.321  51.740  1.00  0.00     0.007 A 
ENDBRANCH   8   9
ENDBRANCH   7   8
ENDBRANCH   3   7
BRANCH   4  15
HETATM   15  C14 UNL     1      18.520  23.789  49.074  1.00  0.00     0.212 C 
HETATM   16  O2  UNL     1      19.152  23.655  50.142  1.00  0.00    -0.644 OA
HETATM   17  O3  UNL     1      18.835  24.909  48.277  1.00  0.00    -0.644 OA
ENDBRANCH   4  15
BRANCH   1  18
HETATM   18  O1  UNL     1      14.600  20.121  47.452  1.00  0.00    -0.355 OA
HETATM   19  C1  UNL     1      13.288  20.070  47.964  1.00  0.00     0.210 C 
ENDBRANCH   1  18
BRANCH   5  20
HETATM   20  O4  UNL     1      19.159  21.098  48.153  1.00  0.00    -0.359 OA
ATOM     21  H4  UNL     1      19.526  20.422  48.709  1.00  0.00     0.217 HD
ENDBRANCH   5  20
BRANCH   6  22
HETATM   22  C17 UNL     1      17.266  19.347  47.367  1.00  0.00     0.072 C 
BRANCH  22  23
HETATM   23  C18 UNL     1      17.621  19.275  45.951  1.00  0.00    -0.020 C 
HETATM   24  C19 UNL     1      17.008  18.451  45.152  1.00  0.00    -0.091 C 
HETATM   25  C20 UNL     1      15.924  17.516  45.536  1.00  0.00     0.042 C 
HETATM   26  C21 UNL     1      17.438  18.445  43.703  1.00  0.00     0.042 C 
ENDBRANCH  22  23
ENDBRANCH   6  22
TORSDOF 8
ENDMDL
