MODEL 9
REMARK VINA RESULT: -7.493373170      0.811      1.196
REMARK  8 active torsions:
REMARK  status: ('A' for Active; 'I' for Inactive)
REMARK    1  A    between atoms: O1_2  and  C2_3 
REMARK    2  A    between atoms: C4_5  and  C5_6 
REMARK    3  A    between atoms: C5_6  and  C6_7 
REMARK    4  A    between atoms: C6_7  and  C7_8 
REMARK    5  A    between atoms: C13_14  and  C14_15 
REMARK    6  A    between atoms: C15_18  and  O4_19 
REMARK    7  A    between atoms: C16_21  and  C17_22 
REMARK    8  A    between atoms: C17_22  and  C18_23 
ROOT
HETATM    1  C2  UNL     1      16.014  21.281  48.368  1.00  0.00     0.078 A 
HETATM    2  C3  UNL     1      15.771  22.564  48.738  1.00  0.00     0.045 A 
HETATM    3  C4  UNL     1      16.770  23.522  48.859  1.00  0.00    -0.035 A 
HETATM    4  C13 UNL     1      18.062  23.130  48.587  1.00  0.00     0.080 A 
HETATM    5  C15 UNL     1      18.359  21.814  48.201  1.00  0.00     0.092 A 
HETATM    6  C16 UNL     1      17.294  20.903  48.100  1.00  0.00     0.013 A 
ENDROOT
BRANCH   3   7
HETATM    7  C5  UNL     1      16.431  24.887  49.264  1.00  0.00     0.044 C 
BRANCH   7   8
HETATM    8  C6  UNL     1      14.926  25.066  49.449  1.00  0.00     0.043 C 
BRANCH   8   9
HETATM    9  C7  UNL     1      14.750  25.794  50.723  1.00  0.00    -0.058 A 
HETATM   10  C8  UNL     1      15.356  25.312  51.860  1.00  0.00     0.007 A 
HETATM   11  C9  UNL     1      15.213  25.968  53.082  1.00  0.00     0.001 A 
HETATM   12  C10 UNL     1      14.458  27.112  53.160  1.00  0.00     0.000 A 
HETATM   13  C11 UNL     1      13.844  27.608  52.033  1.00  0.00     0.001 A 
HETATM   14  C12 UNL     1      13.994  26.942  50.811  1.00  0.00     0.007 A 
ENDBRANCH   8   9
ENDBRANCH   7   8
ENDBRANCH   3   7
BRANCH   4  15
HETATM   15  C14 UNL     1      19.123  24.108  48.704  1.00  0.00     0.212 C 
HETATM   16  O2  UNL     1      19.895  24.134  49.685  1.00  0.00    -0.644 OA
HETATM   17  O3  UNL     1      19.327  25.077  47.701  1.00  0.00    -0.644 OA
ENDBRANCH   4  15
BRANCH   1  18
HETATM   18  O1  UNL     1      15.019  20.315  48.243  1.00  0.00    -0.355 OA
HETATM   19  C1  UNL     1      13.694  20.609  47.861  1.00  0.00     0.210 C 
ENDBRANCH   1  18
BRANCH   5  20
HETATM   20  O4  UNL     1      19.608  21.344  47.914  1.00  0.00    -0.359 OA
ATOM     21  H4  UNL     1      19.795  20.512  47.498  1.00  0.00     0.217 HD
ENDBRANCH   5  20
BRANCH   6  22
HETATM   22  C17 UNL     1      17.625  19.532  47.687  1.00  0.00     0.072 C 
BRANCH  22  23
HETATM   23  C18 UNL     1      17.766  19.350  46.243  1.00  0.00    -0.020 C 
HETATM   24  C19 UNL     1      17.002  18.518  45.599  1.00  0.00    -0.091 C 
HETATM   25  C20 UNL     1      15.938  17.678  46.197  1.00  0.00     0.042 C 
HETATM   26  C21 UNL     1      17.216  18.396  44.108  1.00  0.00     0.042 C 
ENDBRANCH  22  23
ENDBRANCH   6  22
TORSDOF 8
ENDMDL
