MODEL 4
REMARK VINA RESULT: -7.724414480      2.364      7.791
REMARK  8 active torsions:
REMARK  status: ('A' for Active; 'I' for Inactive)
REMARK    1  A    between atoms: O1_2  and  C2_3 
REMARK    2  A    between atoms: C4_5  and  C5_6 
REMARK    3  A    between atoms: C5_6  and  C6_7 
REMARK    4  A    between atoms: C6_7  and  C7_8 
REMARK    5  A    between atoms: C13_14  and  C14_15 
REMARK    6  A    between atoms: C15_18  and  O4_19 
REMARK    7  A    between atoms: C16_21  and  C17_22 
REMARK    8  A    between atoms: C17_22  and  C18_23 
ROOT
HETATM    1  C2  UNL     1      17.248  21.740  47.898  1.00  0.00     0.078 A 
HETATM    2  C3  UNL     1      16.961  20.427  47.708  1.00  0.00     0.045 A 
HETATM    3  C4  UNL     1      17.931  19.433  47.682  1.00  0.00    -0.035 A 
HETATM    4  C13 UNL     1      19.241  19.819  47.859  1.00  0.00     0.080 A 
HETATM    5  C15 UNL     1      19.584  21.165  48.058  1.00  0.00     0.092 A 
HETATM    6  C16 UNL     1      18.547  22.113  48.073  1.00  0.00     0.013 A 
ENDROOT
BRANCH   3   7
HETATM    7  C5  UNL     1      17.545  18.038  47.471  1.00  0.00     0.044 C 
BRANCH   7   8
HETATM    8  C6  UNL     1      16.178  17.924  46.800  1.00  0.00     0.043 C 
BRANCH   8   9
HETATM    9  C7  UNL     1      16.441  17.698  45.363  1.00  0.00    -0.058 A 
HETATM   10  C8  UNL     1      15.436  17.195  44.569  1.00  0.00     0.007 A 
HETATM   11  C9  UNL     1      15.643  16.965  43.210  1.00  0.00     0.001 A 
HETATM   12  C10 UNL     1      16.864  17.243  42.647  1.00  0.00     0.000 A 
HETATM   13  C11 UNL     1      17.881  17.746  43.426  1.00  0.00     0.001 A 
HETATM   14  C12 UNL     1      17.663  17.973  44.791  1.00  0.00     0.007 A 
ENDBRANCH   8   9
ENDBRANCH   7   8
ENDBRANCH   3   7
BRANCH   4  15
HETATM   15  C14 UNL     1      20.273  18.804  47.838  1.00  0.00     0.212 C 
HETATM   16  O2  UNL     1      21.125  18.706  48.745  1.00  0.00    -0.644 OA
HETATM   17  O3  UNL     1      20.353  17.877  46.778  1.00  0.00    -0.644 OA
ENDBRANCH   4  15
BRANCH   1  18
HETATM   18  O1  UNL     1      16.283  22.743  47.926  1.00  0.00    -0.355 OA
HETATM   19  C1  UNL     1      15.228  22.778  48.860  1.00  0.00     0.210 C 
ENDBRANCH   1  18
BRANCH   5  20
HETATM   20  O4  UNL     1      20.854  21.632  48.242  1.00  0.00    -0.359 OA
ATOM     21  H4  UNL     1      21.622  21.089  48.368  1.00  0.00     0.217 HD
ENDBRANCH   5  20
BRANCH   6  22
HETATM   22  C17 UNL     1      18.926  23.515  48.291  1.00  0.00     0.072 C 
BRANCH  22  23
HETATM   23  C18 UNL     1      19.001  23.912  49.696  1.00  0.00    -0.020 C 
HETATM   24  C19 UNL     1      18.340  24.944  50.133  1.00  0.00    -0.091 C 
HETATM   25  C20 UNL     1      17.465  25.820  49.320  1.00  0.00     0.042 C 
HETATM   26  C21 UNL     1      18.475  25.279  51.600  1.00  0.00     0.042 C 
ENDBRANCH  22  23
ENDBRANCH   6  22
TORSDOF 8
ENDMDL
