MODEL 5
REMARK VINA RESULT: -7.694561437      2.386      8.553
REMARK  8 active torsions:
REMARK  status: ('A' for Active; 'I' for Inactive)
REMARK    1  A    between atoms: O1_2  and  C2_3 
REMARK    2  A    between atoms: C4_5  and  C5_6 
REMARK    3  A    between atoms: C5_6  and  C6_7 
REMARK    4  A    between atoms: C6_7  and  C7_8 
REMARK    5  A    between atoms: C13_14  and  C14_15 
REMARK    6  A    between atoms: C15_18  and  O4_19 
REMARK    7  A    between atoms: C16_21  and  C17_22 
REMARK    8  A    between atoms: C17_22  and  C18_23 
ROOT
HETATM    1  C2  UNL     1      19.323  21.886  48.260  1.00  0.00     0.078 A 
HETATM    2  C3  UNL     1      19.324  20.550  48.021  1.00  0.00     0.045 A 
HETATM    3  C4  UNL     1      18.169  19.822  47.768  1.00  0.00    -0.035 A 
HETATM    4  C13 UNL     1      16.974  20.507  47.766  1.00  0.00     0.080 A 
HETATM    5  C15 UNL     1      16.925  21.888  48.008  1.00  0.00     0.092 A 
HETATM    6  C16 UNL     1      18.137  22.555  48.255  1.00  0.00     0.013 A 
ENDROOT
BRANCH   3   7
HETATM    7  C5  UNL     1      18.249  18.382  47.519  1.00  0.00     0.044 C 
BRANCH   7   8
HETATM    8  C6  UNL     1      19.669  17.948  47.162  1.00  0.00     0.043 C 
BRANCH   8   9
HETATM    9  C7  UNL     1      19.603  17.406  45.789  1.00  0.00    -0.058 A 
HETATM   10  C8  UNL     1      20.658  16.666  45.309  1.00  0.00     0.007 A 
HETATM   11  C9  UNL     1      20.637  16.139  44.018  1.00  0.00     0.001 A 
HETATM   12  C10 UNL     1      19.551  16.359  43.208  1.00  0.00     0.000 A 
HETATM   13  C11 UNL     1      18.486  17.097  43.671  1.00  0.00     0.001 A 
HETATM   14  C12 UNL     1      18.518  17.622  44.969  1.00  0.00     0.007 A 
ENDBRANCH   8   9
ENDBRANCH   7   8
ENDBRANCH   3   7
BRANCH   4  15
HETATM   15  C14 UNL     1      15.753  19.773  47.505  1.00  0.00     0.212 C 
HETATM   16  O2  UNL     1      15.564  19.161  46.433  1.00  0.00    -0.644 OA
HETATM   17  O3  UNL     1      14.722  19.723  48.464  1.00  0.00    -0.644 OA
ENDBRANCH   4  15
BRANCH   1  18
HETATM   18  O1  UNL     1      20.476  22.624  48.513  1.00  0.00    -0.355 OA
HETATM   19  C1  UNL     1      21.598  22.628  47.659  1.00  0.00     0.210 C 
ENDBRANCH   1  18
BRANCH   5  20
HETATM   20  O4  UNL     1      15.787  22.642  48.024  1.00  0.00    -0.359 OA
ATOM     21  H4  UNL     1      14.912  22.313  47.854  1.00  0.00     0.217 HD
ENDBRANCH   5  20
BRANCH   6  22
HETATM   22  C17 UNL     1      18.065  24.002  48.498  1.00  0.00     0.072 C 
BRANCH  22  23
HETATM   23  C18 UNL     1      17.933  24.376  49.906  1.00  0.00    -0.020 C 
HETATM   24  C19 UNL     1      18.822  25.130  50.481  1.00  0.00    -0.091 C 
HETATM   25  C20 UNL     1      20.032  25.691  49.835  1.00  0.00     0.042 C 
HETATM   26  C21 UNL     1      18.604  25.468  51.938  1.00  0.00     0.042 C 
ENDBRANCH  22  23
ENDBRANCH   6  22
TORSDOF 8
ENDMDL
