MODEL 13
REMARK VINA RESULT: -7.434340245      1.184      1.897
REMARK  8 active torsions:
REMARK  status: ('A' for Active; 'I' for Inactive)
REMARK    1  A    between atoms: O1_2  and  C2_3 
REMARK    2  A    between atoms: C4_5  and  C5_6 
REMARK    3  A    between atoms: C5_6  and  C6_7 
REMARK    4  A    between atoms: C6_7  and  C7_8 
REMARK    5  A    between atoms: C13_14  and  C14_15 
REMARK    6  A    between atoms: C15_18  and  O4_19 
REMARK    7  A    between atoms: C16_21  and  C17_22 
REMARK    8  A    between atoms: C17_22  and  C18_23 
ROOT
HETATM    1  C2  UNL     1      15.406  19.922  47.573  1.00  0.00     0.078 A 
HETATM    2  C3  UNL     1      15.428  21.215  47.983  1.00  0.00     0.045 A 
HETATM    3  C4  UNL     1      16.599  21.947  48.130  1.00  0.00    -0.035 A 
HETATM    4  C13 UNL     1      17.786  21.310  47.841  1.00  0.00     0.080 A 
HETATM    5  C15 UNL     1      17.811  19.973  47.414  1.00  0.00     0.092 A 
HETATM    6  C16 UNL     1      16.584  19.300  47.289  1.00  0.00     0.013 A 
ENDROOT
BRANCH   3   7
HETATM    7  C5  UNL     1      16.544  23.339  48.577  1.00  0.00     0.044 C 
BRANCH   7   8
HETATM    8  C6  UNL     1      15.167  23.701  49.130  1.00  0.00     0.043 C 
BRANCH   8   9
HETATM    9  C7  UNL     1      15.406  24.570  50.301  1.00  0.00    -0.058 A 
HETATM   10  C8  UNL     1      16.689  24.714  50.777  1.00  0.00     0.007 A 
HETATM   11  C9  UNL     1      16.958  25.522  51.881  1.00  0.00     0.001 A 
HETATM   12  C10 UNL     1      15.933  26.186  52.508  1.00  0.00     0.000 A 
HETATM   13  C11 UNL     1      14.644  26.053  52.046  1.00  0.00     0.001 A 
HETATM   14  C12 UNL     1      14.384  25.239  50.936  1.00  0.00     0.007 A 
ENDBRANCH   8   9
ENDBRANCH   7   8
ENDBRANCH   3   7
BRANCH   4  15
HETATM   15  C14 UNL     1      19.023  22.048  47.985  1.00  0.00     0.212 C 
HETATM   16  O2  UNL     1      19.952  21.649  48.717  1.00  0.00    -0.644 OA
HETATM   17  O3  UNL     1      19.226  23.259  47.292  1.00  0.00    -0.644 OA
ENDBRANCH   4  15
BRANCH   1  18
HETATM   18  O1  UNL     1      14.236  19.182  47.422  1.00  0.00    -0.355 OA
HETATM   19  C1  UNL     1      12.980  19.609  47.899  1.00  0.00     0.210 C 
ENDBRANCH   1  18
BRANCH   5  20
HETATM   20  O4  UNL     1      18.940  19.269  47.108  1.00  0.00    -0.359 OA
ATOM     21  H4  UNL     1      19.025  18.325  47.161  1.00  0.00     0.217 HD
ENDBRANCH   5  20
BRANCH   6  22
HETATM   22  C17 UNL     1      16.631  17.905  46.833  1.00  0.00     0.072 C 
BRANCH  22  23
HETATM   23  C18 UNL     1      16.061  17.680  45.506  1.00  0.00    -0.020 C 
HETATM   24  C19 UNL     1      16.830  17.510  44.470  1.00  0.00    -0.091 C 
HETATM   25  C20 UNL     1      18.312  17.520  44.480  1.00  0.00     0.042 C 
HETATM   26  C21 UNL     1      16.155  17.280  43.138  1.00  0.00     0.042 C 
ENDBRANCH  22  23
ENDBRANCH   6  22
TORSDOF 8
ENDMDL
