MODEL 6
REMARK VINA RESULT: -8.007202099      1.694      3.068
REMARK  5 active torsions:
REMARK  status: ('A' for Active; 'I' for Inactive)
REMARK    1  A    between atoms: C2_2  and  O1_3 
REMARK    2  A    between atoms: C2_2  and  C16_26 
REMARK    3  A    between atoms: O1_3  and  C3_4 
REMARK    4  A    between atoms: C5_6  and  C6_7 
REMARK    5  A    between atoms: N2_11  and  C8_12 
ROOT
HETATM    1  C3  UNL     1      30.396  44.530   8.559  1.00  0.00     0.111 A 
HETATM    2  C4  UNL     1      30.324  45.610   7.713  1.00  0.00     0.054 A 
HETATM    3  C5  UNL     1      29.233  46.436   7.778  1.00  0.00    -0.005 A 
HETATM    4  C14 UNL     1      28.234  46.122   8.715  1.00  0.00     0.101 A 
HETATM    5  N4  UNL     1      28.319  45.081   9.513  1.00  0.00    -0.351 N 
ATOM      6  H4  UNL     1      27.564  44.897  10.174  1.00  0.00     0.166 HD
HETATM    7  C15 UNL     1      29.350  44.273   9.479  1.00  0.00     0.149 A 
HETATM    8  N5  UNL     1      29.424  43.150  10.335  1.00  0.00    -0.080 NA
ENDROOT
BRANCH   3   9
HETATM    9  C6  UNL     1      29.073  47.638   6.972  1.00  0.00     0.009 A 
HETATM   10  C7  UNL     1      30.022  48.285   6.208  1.00  0.00     0.121 A 
HETATM   11  N1  UNL     1      29.449  49.392   5.689  1.00  0.00    -0.309 N 
HETATM   12  N2  UNL     1      28.195  49.477   6.081  1.00  0.00    -0.298 N 
ATOM     13  H1  UNL     1      29.919  50.063   5.082  1.00  0.00     0.186 HD
HETATM   14  C13 UNL     1      27.945  48.423   6.858  1.00  0.00     0.124 A 
BRANCH  12  15
HETATM   15  C8  UNL     1      27.311  50.572   5.750  1.00  0.00     0.110 C 
HETATM   16  C9  UNL     1      27.273  51.493   6.971  1.00  0.00     0.055 C 
HETATM   17  C10 UNL     1      26.159  52.473   6.885  1.00  0.00     0.234 C 
HETATM   18  N3  UNL     1      24.876  51.880   6.645  1.00  0.00    -0.075 N 
HETATM   19  C11 UNL     1      24.963  50.458   6.510  1.00  0.00     0.234 C 
ATOM     20  H32 UNL     1      24.204  52.144   7.366  1.00  0.00     0.277 HD
ATOM     21  H31 UNL     1      24.417  52.302   5.838  1.00  0.00     0.277 HD
HETATM   22  C12 UNL     1      25.918  50.160   5.382  1.00  0.00     0.055 C 
ENDBRANCH  12  15
ENDBRANCH   3   9
BRANCH   1  23
HETATM   23  O1  UNL     1      31.407  43.660   8.602  1.00  0.00    -0.338 OA
BRANCH  23  24
HETATM   24  C2  UNL     1      32.685  43.766   8.010  1.00  0.00     0.161 C 
HETATM   25  C1  UNL     1      33.308  42.363   8.049  1.00  0.00     0.045 C 
BRANCH  24  26
HETATM   26  C16 UNL     1      33.437  44.656   8.951  1.00  0.00     0.017 A 
HETATM   27  C17 UNL     1      33.671  44.157  10.229  1.00  0.00     0.044 A 
HETATM   28 CL1  UNL     1      32.918  42.655  10.722  1.00  0.00    -0.084 Cl
HETATM   29  C18 UNL     1      34.457  44.873  11.090  1.00  0.00     0.028 A 
HETATM   30  C19 UNL     1      35.012  46.065  10.717  1.00  0.00     0.046 A 
HETATM   31  C20 UNL     1      34.768  46.550   9.441  1.00  0.00     0.138 A 
HETATM   32  F1  UNL     1      35.296  47.721   9.015  1.00  0.00    -0.204 F 
HETATM   33  C21 UNL     1      33.964  45.834   8.533  1.00  0.00     0.083 A 
HETATM   34 CL2  UNL     1      33.758  46.510   6.914  1.00  0.00    -0.080 Cl
ENDBRANCH  24  26
ENDBRANCH  23  24
ENDBRANCH   1  23
TORSDOF 5
ENDMDL
