MODEL 2
REMARK VINA RESULT: -8.466855264      1.487      2.455
REMARK  5 active torsions:
REMARK  status: ('A' for Active; 'I' for Inactive)
REMARK    1  A    between atoms: C2_2  and  O1_3 
REMARK    2  A    between atoms: C2_2  and  C16_26 
REMARK    3  A    between atoms: O1_3  and  C3_4 
REMARK    4  A    between atoms: C5_6  and  C6_7 
REMARK    5  A    between atoms: N2_11  and  C8_12 
ROOT
HETATM    1  C3  UNL     1      30.412  44.487   8.482  1.00  0.00     0.111 A 
HETATM    2  C4  UNL     1      30.332  45.568   7.638  1.00  0.00     0.054 A 
HETATM    3  C5  UNL     1      29.273  46.429   7.758  1.00  0.00    -0.005 A 
HETATM    4  C14 UNL     1      28.315  46.149   8.746  1.00  0.00     0.101 A 
HETATM    5  N4  UNL     1      28.407  45.107   9.542  1.00  0.00    -0.351 N 
ATOM      6  H4  UNL     1      27.682  44.949  10.243  1.00  0.00     0.166 HD
HETATM    7  C15 UNL     1      29.408  44.266   9.456  1.00  0.00     0.149 A 
HETATM    8  N5  UNL     1      29.491  43.143  10.312  1.00  0.00    -0.080 NA
ENDROOT
BRANCH   3   9
HETATM    9  C6  UNL     1      29.109  47.634   6.957  1.00  0.00     0.009 A 
HETATM   10  C7  UNL     1      30.057  48.289   6.199  1.00  0.00     0.121 A 
HETATM   11  N1  UNL     1      29.481  49.396   5.683  1.00  0.00    -0.309 N 
HETATM   12  N2  UNL     1      28.226  49.474   6.073  1.00  0.00    -0.298 N 
ATOM     13  H1  UNL     1      29.950  50.073   5.080  1.00  0.00     0.186 HD
HETATM   14  C13 UNL     1      27.978  48.415   6.844  1.00  0.00     0.124 A 
BRANCH  12  15
HETATM   15  C8  UNL     1      27.338  50.567   5.745  1.00  0.00     0.110 C 
HETATM   16  C9  UNL     1      27.304  51.489   6.966  1.00  0.00     0.055 C 
HETATM   17  C10 UNL     1      26.188  52.467   6.884  1.00  0.00     0.234 C 
HETATM   18  N3  UNL     1      24.904  51.872   6.651  1.00  0.00    -0.075 N 
HETATM   19  C11 UNL     1      24.994  50.449   6.517  1.00  0.00     0.234 C 
ATOM     20  H32 UNL     1      24.236  52.135   7.375  1.00  0.00     0.277 HD
ATOM     21  H31 UNL     1      24.441  52.291   5.845  1.00  0.00     0.277 HD
HETATM   22  C12 UNL     1      25.944  50.152   5.384  1.00  0.00     0.055 C 
ENDBRANCH  12  15
ENDBRANCH   3   9
BRANCH   1  23
HETATM   23  O1  UNL     1      31.396  43.585   8.475  1.00  0.00    -0.338 OA
BRANCH  23  24
HETATM   24  C2  UNL     1      32.615  43.619   7.765  1.00  0.00     0.161 C 
HETATM   25  C1  UNL     1      33.198  42.198   7.818  1.00  0.00     0.045 C 
BRANCH  24  26
HETATM   26  C16 UNL     1      33.478  44.527   8.587  1.00  0.00     0.017 A 
HETATM   27  C17 UNL     1      33.959  45.669   7.956  1.00  0.00     0.044 A 
HETATM   28 CL1  UNL     1      33.716  45.874   6.234  1.00  0.00    -0.084 Cl
HETATM   29  C18 UNL     1      34.649  46.595   8.689  1.00  0.00     0.028 A 
HETATM   30  C19 UNL     1      34.872  46.415  10.026  1.00  0.00     0.046 A 
HETATM   31  C20 UNL     1      34.388  45.271  10.640  1.00  0.00     0.138 A 
HETATM   32  F1  UNL     1      34.574  45.042  11.961  1.00  0.00    -0.204 F 
HETATM   33  C21 UNL     1      33.673  44.301   9.910  1.00  0.00     0.083 A 
HETATM   34 CL2  UNL     1      33.051  42.905  10.796  1.00  0.00    -0.080 Cl
ENDBRANCH  24  26
ENDBRANCH  23  24
ENDBRANCH   1  23
TORSDOF 5
ENDMDL
