MODEL 10
REMARK VINA RESULT: -7.731801466      1.449      1.902
REMARK  5 active torsions:
REMARK  status: ('A' for Active; 'I' for Inactive)
REMARK    1  A    between atoms: C2_2  and  O1_3 
REMARK    2  A    between atoms: C2_2  and  C16_26 
REMARK    3  A    between atoms: O1_3  and  C3_4 
REMARK    4  A    between atoms: C5_6  and  C6_7 
REMARK    5  A    between atoms: N2_11  and  C8_12 
ROOT
HETATM    1  C3  UNL     1      29.964  45.494   8.513  1.00  0.00     0.111 A 
HETATM    2  C4  UNL     1      30.054  46.588   7.687  1.00  0.00     0.054 A 
HETATM    3  C5  UNL     1      28.983  47.437   7.588  1.00  0.00    -0.005 A 
HETATM    4  C14 UNL     1      27.839  47.133   8.343  1.00  0.00     0.101 A 
HETATM    5  N4  UNL     1      27.771  46.079   9.126  1.00  0.00    -0.351 N 
ATOM      6  H4  UNL     1      26.914  45.903   9.652  1.00  0.00     0.166 HD
HETATM    7  C15 UNL     1      28.777  45.248   9.246  1.00  0.00     0.149 A 
HETATM    8  N5  UNL     1      28.688  44.111  10.083  1.00  0.00    -0.080 NA
ENDROOT
BRANCH   3   9
HETATM    9  C6  UNL     1      28.981  48.654   6.788  1.00  0.00     0.009 A 
HETATM   10  C7  UNL     1      29.870  49.027   5.801  1.00  0.00     0.121 A 
HETATM   11  N1  UNL     1      29.523  50.261   5.377  1.00  0.00    -0.309 N 
HETATM   12  N2  UNL     1      28.467  50.685   6.041  1.00  0.00    -0.298 N 
ATOM     13  H1  UNL     1      30.007  50.787   4.651  1.00  0.00     0.186 HD
HETATM   14  C13 UNL     1      28.121  49.725   6.899  1.00  0.00     0.124 A 
BRANCH  12  15
HETATM   15  C8  UNL     1      27.870  51.991   5.872  1.00  0.00     0.110 C 
HETATM   16  C9  UNL     1      28.926  52.874   5.205  1.00  0.00     0.055 C 
HETATM   17  C10 UNL     1      28.558  54.313   5.270  1.00  0.00     0.234 C 
HETATM   18  N3  UNL     1      28.255  54.779   6.593  1.00  0.00    -0.075 N 
HETATM   19  C11 UNL     1      28.347  53.729   7.562  1.00  0.00     0.234 C 
ATOM     20  H32 UNL     1      28.841  55.573   6.850  1.00  0.00     0.277 HD
ATOM     21  H31 UNL     1      27.344  55.235   6.626  1.00  0.00     0.277 HD
HETATM   22  C12 UNL     1      27.401  52.632   7.143  1.00  0.00     0.055 C 
ENDBRANCH  12  15
ENDBRANCH   3   9
BRANCH   1  23
HETATM   23  O1  UNL     1      30.937  44.601   8.705  1.00  0.00    -0.338 OA
BRANCH  23  24
HETATM   24  C2  UNL     1      32.077  44.357   7.909  1.00  0.00     0.161 C 
HETATM   25  C1  UNL     1      32.306  42.838   7.917  1.00  0.00     0.045 C 
BRANCH  24  26
HETATM   26  C16 UNL     1      33.186  45.018   8.667  1.00  0.00     0.017 A 
HETATM   27  C17 UNL     1      33.743  46.156   8.092  1.00  0.00     0.044 A 
HETATM   28 CL1  UNL     1      33.280  46.620   6.469  1.00  0.00    -0.084 Cl
HETATM   29  C18 UNL     1      34.674  46.870   8.795  1.00  0.00     0.028 A 
HETATM   30  C19 UNL     1      35.064  46.484  10.048  1.00  0.00     0.046 A 
HETATM   31  C20 UNL     1      34.501  45.347  10.606  1.00  0.00     0.138 A 
HETATM   32  F1  UNL     1      34.845  44.921  11.844  1.00  0.00    -0.204 F 
HETATM   33  C21 UNL     1      33.540  44.593   9.906  1.00  0.00     0.083 A 
HETATM   34 CL2  UNL     1      32.844  43.192  10.726  1.00  0.00    -0.080 Cl
ENDBRANCH  24  26
ENDBRANCH  23  24
ENDBRANCH   1  23
TORSDOF 5
ENDMDL
