MODEL 3
REMARK VINA RESULT: -8.465249863      1.686      2.712
REMARK  5 active torsions:
REMARK  status: ('A' for Active; 'I' for Inactive)
REMARK    1  A    between atoms: C2_2  and  O1_3 
REMARK    2  A    between atoms: C2_2  and  C16_26 
REMARK    3  A    between atoms: O1_3  and  C3_4 
REMARK    4  A    between atoms: C5_6  and  C6_7 
REMARK    5  A    between atoms: N2_11  and  C8_12 
ROOT
HETATM    1  C3  UNL     1      30.344  44.301   8.723  1.00  0.00     0.111 A 
HETATM    2  C4  UNL     1      30.134  45.414   7.944  1.00  0.00     0.054 A 
HETATM    3  C5  UNL     1      29.006  46.164   8.146  1.00  0.00    -0.005 A 
HETATM    4  C14 UNL     1      28.114  45.743   9.147  1.00  0.00     0.101 A 
HETATM    5  N4  UNL     1      28.330  44.672   9.879  1.00  0.00    -0.351 N 
ATOM      6  H4  UNL     1      27.649  44.410  10.591  1.00  0.00     0.166 HD
HETATM    7  C15 UNL     1      29.401  43.935   9.713  1.00  0.00     0.149 A 
HETATM    8  N5  UNL     1      29.617  42.779  10.500  1.00  0.00    -0.080 NA
ENDROOT
BRANCH   3   9
HETATM    9  C6  UNL     1      28.703  47.390   7.421  1.00  0.00     0.009 A 
HETATM   10  C7  UNL     1      29.515  48.090   6.553  1.00  0.00     0.121 A 
HETATM   11  N1  UNL     1      28.850  49.200   6.169  1.00  0.00    -0.309 N 
HETATM   12  N2  UNL     1      27.666  49.238   6.745  1.00  0.00    -0.298 N 
ATOM     13  H1  UNL     1      29.210  49.905   5.526  1.00  0.00     0.186 HD
HETATM   14  C13 UNL     1      27.555  48.149   7.507  1.00  0.00     0.124 A 
BRANCH  12  15
HETATM   15  C8  UNL     1      26.720  50.321   6.591  1.00  0.00     0.110 C 
HETATM   16  C9  UNL     1      25.325  49.694   6.618  1.00  0.00     0.055 C 
HETATM   17  C10 UNL     1      24.286  50.647   6.148  1.00  0.00     0.234 C 
HETATM   18  N3  UNL     1      24.565  51.231   4.868  1.00  0.00    -0.075 N 
HETATM   19  C11 UNL     1      25.816  50.780   4.338  1.00  0.00     0.234 C 
ATOM     20  H32 UNL     1      23.802  51.066   4.211  1.00  0.00     0.277 HD
ATOM     21  H31 UNL     1      24.524  52.249   4.908  1.00  0.00     0.277 HD
HETATM   22  C12 UNL     1      26.891  51.125   5.338  1.00  0.00     0.055 C 
ENDBRANCH  12  15
ENDBRANCH   3   9
BRANCH   1  23
HETATM   23  O1  UNL     1      31.405  43.497   8.633  1.00  0.00    -0.338 OA
BRANCH  23  24
HETATM   24  C2  UNL     1      32.552  43.641   7.823  1.00  0.00     0.161 C 
HETATM   25  C1  UNL     1      33.225  42.261   7.759  1.00  0.00     0.045 C 
BRANCH  24  26
HETATM   26  C16 UNL     1      33.426  44.569   8.609  1.00  0.00     0.017 A 
HETATM   27  C17 UNL     1      33.832  45.735   7.969  1.00  0.00     0.044 A 
HETATM   28 CL1  UNL     1      33.488  45.952   6.265  1.00  0.00    -0.084 Cl
HETATM   29  C18 UNL     1      34.528  46.676   8.676  1.00  0.00     0.028 A 
HETATM   30  C19 UNL     1      34.831  46.488   9.997  1.00  0.00     0.046 A 
HETATM   31  C20 UNL     1      34.420  45.321  10.620  1.00  0.00     0.138 A 
HETATM   32  F1  UNL     1      34.687  45.083  11.926  1.00  0.00    -0.204 F 
HETATM   33  C21 UNL     1      33.701  44.335   9.916  1.00  0.00     0.083 A 
HETATM   34 CL2  UNL     1      33.178  42.907  10.815  1.00  0.00    -0.080 Cl
ENDBRANCH  24  26
ENDBRANCH  23  24
ENDBRANCH   1  23
TORSDOF 5
ENDMDL
