MODEL 19
REMARK VINA RESULT: -7.435261833      4.004      6.187
REMARK  5 active torsions:
REMARK  status: ('A' for Active; 'I' for Inactive)
REMARK    1  A    between atoms: C2_2  and  O1_3 
REMARK    2  A    between atoms: C2_2  and  C16_26 
REMARK    3  A    between atoms: O1_3  and  C3_4 
REMARK    4  A    between atoms: C5_6  and  C6_7 
REMARK    5  A    between atoms: N2_11  and  C8_12 
ROOT
HETATM    1  C3  UNL     1      33.710  45.103   9.410  1.00  0.00     0.111 A 
HETATM    2  C4  UNL     1      33.823  46.333   8.807  1.00  0.00     0.054 A 
HETATM    3  C5  UNL     1      35.071  46.836   8.549  1.00  0.00    -0.005 A 
HETATM    4  C14 UNL     1      36.178  46.058   8.926  1.00  0.00     0.101 A 
HETATM    5  N4  UNL     1      36.050  44.885   9.506  1.00  0.00    -0.351 N 
ATOM      6  H4  UNL     1      36.887  44.361   9.761  1.00  0.00     0.166 HD
HETATM    7  C15 UNL     1      34.871  44.373   9.764  1.00  0.00     0.149 A 
HETATM    8  N5  UNL     1      34.746  43.115  10.398  1.00  0.00    -0.080 NA
ENDROOT
BRANCH   3   9
HETATM    9  C6  UNL     1      35.313  48.100   7.868  1.00  0.00     0.009 A 
HETATM   10  C7  UNL     1      34.412  48.884   7.177  1.00  0.00     0.121 A 
HETATM   11  N1  UNL     1      35.089  49.928   6.654  1.00  0.00    -0.309 N 
HETATM   12  N2  UNL     1      36.363  49.847   6.976  1.00  0.00    -0.298 N 
ATOM     13  H1  UNL     1      34.674  50.671   6.092  1.00  0.00     0.186 HD
HETATM   14  C13 UNL     1      36.521  48.748   7.714  1.00  0.00     0.124 A 
BRANCH  12  15
HETATM   15  C8  UNL     1      37.376  50.778   6.531  1.00  0.00     0.110 C 
HETATM   16  C9  UNL     1      38.703  50.300   7.125  1.00  0.00     0.055 C 
HETATM   17  C10 UNL     1      39.759  51.340   7.015  1.00  0.00     0.234 C 
HETATM   18  N3  UNL     1      39.382  52.616   7.553  1.00  0.00    -0.075 N 
HETATM   19  C11 UNL     1      38.041  52.607   8.054  1.00  0.00     0.234 C 
ATOM     20  H32 UNL     1      40.042  52.929   8.264  1.00  0.00     0.277 HD
ATOM     21  H31 UNL     1      39.518  53.361   6.870  1.00  0.00     0.277 HD
HETATM   22  C12 UNL     1      37.129  52.203   6.922  1.00  0.00     0.055 C 
ENDBRANCH  12  15
ENDBRANCH   3   9
BRANCH   1  23
HETATM   23  O1  UNL     1      32.557  44.501   9.703  1.00  0.00    -0.338 OA
BRANCH  23  24
HETATM   24  C2  UNL     1      31.778  43.647   8.892  1.00  0.00     0.161 C 
HETATM   25  C1  UNL     1      32.488  43.560   7.533  1.00  0.00     0.045 C 
BRANCH  24  26
HETATM   26  C16 UNL     1      30.494  44.398   8.720  1.00  0.00     0.017 A 
HETATM   27  C17 UNL     1      29.493  44.144   9.653  1.00  0.00     0.044 A 
HETATM   28 CL1  UNL     1      29.702  42.851  10.815  1.00  0.00    -0.084 Cl
HETATM   29  C18 UNL     1      28.346  44.887   9.618  1.00  0.00     0.028 A 
HETATM   30  C19 UNL     1      28.167  45.870   8.685  1.00  0.00     0.046 A 
HETATM   31  C20 UNL     1      29.172  46.110   7.761  1.00  0.00     0.138 A 
HETATM   32  F1  UNL     1      29.053  47.074   6.818  1.00  0.00    -0.204 F 
HETATM   33  C21 UNL     1      30.365  45.361   7.774  1.00  0.00     0.083 A 
HETATM   34 CL2  UNL     1      31.606  45.780   6.589  1.00  0.00    -0.080 Cl
ENDBRANCH  24  26
ENDBRANCH  23  24
ENDBRANCH   1  23
TORSDOF 5
ENDMDL
