MODEL 3
REMARK VINA RESULT: -6.917058222      1.220      1.286
REMARK  8 active torsions:
REMARK  status: ('A' for Active; 'I' for Inactive)
REMARK    1  A    between atoms: O1_2  and  C2_3 
REMARK    2  A    between atoms: C8_9  and  O2_10 
REMARK    3  A    between atoms: C10_12  and  O3_13 
REMARK    4  A    between atoms: C16_20  and  O4_21 
REMARK    5  A    between atoms: O4_21  and  C17_22 
REMARK    6  A    between atoms: C18_25  and  O6_26 
REMARK    7  A    between atoms: C25_33  and  O7_34 
REMARK    8  A    between atoms: C29_42  and  O9_43 
ROOT
HETATM    1  C2  UNL     1      20.020 -34.521  -4.123  1.00  0.00     0.131 A 
HETATM    2  C3  UNL     1      21.084 -34.526  -5.001  1.00  0.00     0.033 A 
HETATM    3  C4  UNL     1      20.526 -34.558  -6.366  1.00  0.00    -0.005 C 
HETATM    4  C5  UNL     1      21.248 -34.356  -7.624  1.00  0.00     0.007 C 
HETATM    5  C6  UNL     1      20.293 -34.084  -8.773  1.00  0.00     0.014 C 
HETATM    6  C7  UNL     1      22.245 -35.413  -7.848  1.00  0.00     0.042 C 
HETATM    7  C8  UNL     1      22.310 -36.194  -9.082  1.00  0.00     0.150 C 
HETATM    8  C10 UNL     1      23.121 -37.472  -8.771  1.00  0.00     0.154 C 
HETATM    9  C11 UNL     1      24.184 -37.323  -7.759  1.00  0.00     0.035 C 
HETATM   10  C12 UNL     1      24.167 -38.630  -6.924  1.00  0.00     0.017 C 
HETATM   11  C13 UNL     1      25.565 -37.265  -8.383  1.00  0.00    -0.015 C 
HETATM   12  C14 UNL     1      26.614 -36.694  -7.857  1.00  0.00    -0.055 C 
HETATM   13  C15 UNL     1      27.884 -36.780  -8.690  1.00  0.00     0.046 C 
HETATM   14  C16 UNL     1      26.751 -35.982  -6.575  1.00  0.00     0.194 C 
HETATM   15  C18 UNL     1      26.681 -34.446  -6.740  1.00  0.00     0.177 C 
HETATM   16  C20 UNL     1      26.533 -33.792  -5.388  1.00  0.00     0.008 C 
HETATM   17  C21 UNL     1      25.973 -32.765  -4.898  1.00  0.00    -0.001 C 
HETATM   18  C22 UNL     1      25.836 -32.136  -3.571  1.00  0.00     0.011 C 
HETATM   19  C23 UNL     1      25.439 -32.566  -2.398  1.00  0.00    -0.011 C 
HETATM   20  C24 UNL     1      25.501 -31.459  -1.304  1.00  0.00     0.052 C 
HETATM   21  C25 UNL     1      24.982 -33.881  -1.987  1.00  0.00     0.146 C 
HETATM   22  N2  UNL     1      23.782 -34.606  -2.171  1.00  0.00    -0.334 N 
ATOM     23  H2  UNL     1      23.737 -35.398  -1.531  1.00  0.00     0.168 HD
HETATM   24  C26 UNL     1      22.622 -34.551  -2.991  1.00  0.00     0.072 A 
HETATM   25  C27 UNL     1      21.507 -34.548  -2.197  1.00  0.00     0.090 A 
HETATM   26  C28 UNL     1      20.149 -34.532  -2.696  1.00  0.00     0.208 A 
HETATM   27  O8  UNL     1      19.157 -34.529  -1.909  1.00  0.00    -0.285 OA
HETATM   28  C29 UNL     1      22.414 -34.538  -4.438  1.00  0.00     0.105 A 
ENDROOT
BRANCH  14  29
HETATM   29  O4  UNL     1      25.888 -36.423  -5.559  1.00  0.00    -0.294 OA
BRANCH  29  30
HETATM   30  C17 UNL     1      26.299 -37.011  -4.375  1.00  0.00     0.373 C 
HETATM   31  N1  UNL     1      25.416 -37.074  -3.246  1.00  0.00    -0.032 NA
HETATM   32  O5  UNL     1      27.460 -37.490  -4.303  1.00  0.00    -0.242 OA
ENDBRANCH  29  30
ENDBRANCH  14  29
BRANCH  15  33
HETATM   33  O6  UNL     1      25.849 -34.138  -7.746  1.00  0.00    -0.384 OA
HETATM   34  C19 UNL     1      26.137 -33.016  -8.483  1.00  0.00     0.202 C 
ENDBRANCH  15  33
BRANCH   8  35
HETATM   35  O3  UNL     1      22.197 -38.430  -8.323  1.00  0.00    -0.392 OA
ATOM     36  H3  UNL     1      22.306 -38.488  -7.381  1.00  0.00     0.210 HD
ENDBRANCH   8  35
BRANCH   7  37
HETATM   37  O2  UNL     1      21.164 -36.553  -9.714  1.00  0.00    -0.388 OA
HETATM   38  C9  UNL     1      21.269 -36.755 -11.072  1.00  0.00     0.202 C 
ENDBRANCH   7  37
BRANCH  21  39
HETATM   39  O7  UNL     1      25.913 -34.504  -1.289  1.00  0.00    -0.346 OA
ATOM     40  H7  UNL     1      25.535 -35.212  -0.780  1.00  0.00     0.219 HD
ENDBRANCH  21  39
BRANCH  28  41
HETATM   41  O9  UNL     1      23.474 -34.540  -5.244  1.00  0.00    -0.357 OA
ATOM     42  H9  UNL     1      24.344 -34.652  -4.879  1.00  0.00     0.217 HD
ENDBRANCH  28  41
BRANCH   1  43
HETATM   43  O1  UNL     1      18.706 -34.505  -4.675  1.00  0.00    -0.351 OA
HETATM   44  C1  UNL     1      17.918 -33.331  -4.598  1.00  0.00     0.210 C 
ENDBRANCH   1  43
TORSDOF 8
ENDMDL
