MODEL 1
REMARK VINA RESULT: -7.114411062      0.000      0.000
REMARK  8 active torsions:
REMARK  status: ('A' for Active; 'I' for Inactive)
REMARK    1  A    between atoms: O1_2  and  C2_3 
REMARK    2  A    between atoms: C8_9  and  O2_10 
REMARK    3  A    between atoms: C10_12  and  O3_13 
REMARK    4  A    between atoms: C16_20  and  O4_21 
REMARK    5  A    between atoms: O4_21  and  C17_22 
REMARK    6  A    between atoms: C18_25  and  O6_26 
REMARK    7  A    between atoms: C25_33  and  O7_34 
REMARK    8  A    between atoms: C29_42  and  O9_43 
ROOT
HETATM    1  C2  UNL     1      19.509 -33.333  -4.695  1.00  0.00     0.131 A 
HETATM    2  C3  UNL     1      20.619 -33.788  -5.376  1.00  0.00     0.033 A 
HETATM    3  C4  UNL     1      20.224 -33.969  -6.785  1.00  0.00    -0.005 C 
HETATM    4  C5  UNL     1      21.105 -34.226  -7.927  1.00  0.00     0.007 C 
HETATM    5  C6  UNL     1      20.392 -33.975  -9.244  1.00  0.00     0.014 C 
HETATM    6  C7  UNL     1      21.790 -35.520  -7.799  1.00  0.00     0.042 C 
HETATM    7  C8  UNL     1      21.770 -36.536  -8.850  1.00  0.00     0.150 C 
HETATM    8  C10 UNL     1      22.159 -37.879  -8.192  1.00  0.00     0.154 C 
HETATM    9  C11 UNL     1      23.106 -37.788  -7.066  1.00  0.00     0.035 C 
HETATM   10  C12 UNL     1      22.640 -38.842  -6.027  1.00  0.00     0.017 C 
HETATM   11  C13 UNL     1      24.508 -38.209  -7.460  1.00  0.00    -0.015 C 
HETATM   12  C14 UNL     1      25.612 -37.819  -6.881  1.00  0.00    -0.055 C 
HETATM   13  C15 UNL     1      26.890 -38.393  -7.471  1.00  0.00     0.046 C 
HETATM   14  C16 UNL     1      25.800 -36.908  -5.740  1.00  0.00     0.194 C 
HETATM   15  C18 UNL     1      26.175 -35.474  -6.181  1.00  0.00     0.177 C 
HETATM   16  C20 UNL     1      26.068 -34.533  -5.007  1.00  0.00     0.008 C 
HETATM   17  C21 UNL     1      25.763 -33.318  -4.802  1.00  0.00    -0.001 C 
HETATM   18  C22 UNL     1      25.662 -32.408  -3.645  1.00  0.00     0.011 C 
HETATM   19  C23 UNL     1      25.039 -32.467  -2.494  1.00  0.00    -0.011 C 
HETATM   20  C24 UNL     1      25.285 -31.204  -1.616  1.00  0.00     0.052 C 
HETATM   21  C25 UNL     1      24.195 -33.509  -1.937  1.00  0.00     0.146 C 
HETATM   22  N2  UNL     1      22.869 -33.935  -2.181  1.00  0.00    -0.334 N 
ATOM     23  H2  UNL     1      22.538 -34.536  -1.427  1.00  0.00     0.168 HD
HETATM   24  C26 UNL     1      21.864 -33.768  -3.173  1.00  0.00     0.072 A 
HETATM   25  C27 UNL     1      20.715 -33.319  -2.581  1.00  0.00     0.090 A 
HETATM   26  C28 UNL     1      19.475 -33.072  -3.286  1.00  0.00     0.208 A 
HETATM   27  O8  UNL     1      18.444 -32.656  -2.682  1.00  0.00    -0.285 OA
HETATM   28  C29 UNL     1      21.825 -34.012  -4.614  1.00  0.00     0.105 A 
ENDROOT
BRANCH  14  29
HETATM   29  O4  UNL     1      24.745 -36.895  -4.813  1.00  0.00    -0.294 OA
BRANCH  29  30
HETATM   30  C17 UNL     1      24.869 -37.208  -3.471  1.00  0.00     0.373 C 
HETATM   31  N1  UNL     1      23.816 -36.896  -2.548  1.00  0.00    -0.032 NA
HETATM   32  O5  UNL     1      25.921 -37.772  -3.071  1.00  0.00    -0.242 OA
ENDBRANCH  29  30
ENDBRANCH  14  29
BRANCH  15  33
HETATM   33  O6  UNL     1      25.573 -35.190  -7.346  1.00  0.00    -0.384 OA
HETATM   34  C19 UNL     1      26.306 -34.506  -8.284  1.00  0.00     0.202 C 
ENDBRANCH  15  33
BRANCH   8  35
HETATM   35  O3  UNL     1      20.964 -38.460  -7.737  1.00  0.00    -0.392 OA
ATOM     36  H3  UNL     1      21.198 -39.308  -7.378  1.00  0.00     0.210 HD
ENDBRANCH   8  35
BRANCH   7  37
HETATM   37  O2  UNL     1      20.644 -36.724  -9.584  1.00  0.00    -0.388 OA
HETATM   38  C9  UNL     1      20.834 -37.249 -10.843  1.00  0.00     0.202 C 
ENDBRANCH   7  37
BRANCH  21  39
HETATM   39  O7  UNL     1      24.837 -34.182  -1.000  1.00  0.00    -0.346 OA
ATOM     40  H7  UNL     1      24.596 -35.100  -1.019  1.00  0.00     0.219 HD
ENDBRANCH  21  39
BRANCH  28  41
HETATM   41  O9  UNL     1      22.924 -34.448  -5.227  1.00  0.00    -0.357 OA
ATOM     42  H9  UNL     1      23.632 -34.822  -4.715  1.00  0.00     0.217 HD
ENDBRANCH  28  41
BRANCH   1  43
HETATM   43  O1  UNL     1      18.318 -33.108  -5.445  1.00  0.00    -0.351 OA
HETATM   44  C1  UNL     1      17.276 -34.066  -5.427  1.00  0.00     0.210 C 
ENDBRANCH   1  43
TORSDOF 8
ENDMDL
