MODEL 2
REMARK VINA RESULT: -7.063077773      2.437      6.182
REMARK  8 active torsions:
REMARK  status: ('A' for Active; 'I' for Inactive)
REMARK    1  A    between atoms: O1_2  and  C2_3 
REMARK    2  A    between atoms: C8_9  and  O2_10 
REMARK    3  A    between atoms: C10_12  and  O3_13 
REMARK    4  A    between atoms: C16_20  and  O4_21 
REMARK    5  A    between atoms: O4_21  and  C17_22 
REMARK    6  A    between atoms: C18_25  and  O6_26 
REMARK    7  A    between atoms: C25_33  and  O7_34 
REMARK    8  A    between atoms: C29_42  and  O9_43 
ROOT
HETATM    1  C2  UNL     1      24.734 -35.779 -10.067  1.00  0.00     0.131 A 
HETATM    2  C3  UNL     1      24.130 -35.858  -8.829  1.00  0.00     0.033 A 
HETATM    3  C4  UNL     1      22.701 -36.145  -9.056  1.00  0.00    -0.005 C 
HETATM    4  C5  UNL     1      21.704 -36.530  -8.055  1.00  0.00     0.007 C 
HETATM    5  C6  UNL     1      20.458 -37.104  -8.706  1.00  0.00     0.014 C 
HETATM    6  C7  UNL     1      21.484 -35.458  -7.073  1.00  0.00     0.042 C 
HETATM    7  C8  UNL     1      20.158 -34.934  -6.753  1.00  0.00     0.150 C 
HETATM    8  C10 UNL     1      20.361 -33.556  -6.084  1.00  0.00     0.154 C 
HETATM    9  C11 UNL     1      21.589 -33.411  -5.280  1.00  0.00     0.035 C 
HETATM   10  C12 UNL     1      22.103 -31.971  -5.539  1.00  0.00     0.017 C 
HETATM   11  C13 UNL     1      21.310 -33.474  -3.791  1.00  0.00    -0.015 C 
HETATM   12  C14 UNL     1      22.162 -33.838  -2.872  1.00  0.00    -0.055 C 
HETATM   13  C15 UNL     1      21.629 -33.811  -1.448  1.00  0.00     0.046 C 
HETATM   14  C16 UNL     1      23.564 -34.268  -3.010  1.00  0.00     0.194 C 
HETATM   15  C18 UNL     1      23.717 -35.807  -2.982  1.00  0.00     0.177 C 
HETATM   16  C20 UNL     1      25.111 -36.189  -3.416  1.00  0.00     0.008 C 
HETATM   17  C21 UNL     1      25.673 -37.143  -4.035  1.00  0.00    -0.001 C 
HETATM   18  C22 UNL     1      27.041 -37.506  -4.453  1.00  0.00     0.011 C 
HETATM   19  C23 UNL     1      27.980 -36.887  -5.127  1.00  0.00    -0.011 C 
HETATM   20  C24 UNL     1      29.270 -37.745  -5.279  1.00  0.00     0.052 C 
HETATM   21  C25 UNL     1      27.991 -35.560  -5.716  1.00  0.00     0.146 C 
HETATM   22  N2  UNL     1      27.399 -34.990  -6.866  1.00  0.00    -0.334 N 
ATOM     23  H2  UNL     1      27.830 -34.093  -7.089  1.00  0.00     0.168 HD
HETATM   24  C26 UNL     1      26.376 -35.305  -7.802  1.00  0.00     0.072 A 
HETATM   25  C27 UNL     1      26.888 -35.245  -9.069  1.00  0.00     0.090 A 
HETATM   26  C28 UNL     1      26.118 -35.474 -10.274  1.00  0.00     0.208 A 
HETATM   27  O8  UNL     1      26.651 -35.406 -11.420  1.00  0.00    -0.285 OA
HETATM   28  C29 UNL     1      24.955 -35.621  -7.667  1.00  0.00     0.105 A 
ENDROOT
BRANCH  14  29
HETATM   29  O4  UNL     1      24.249 -33.708  -4.101  1.00  0.00    -0.294 OA
BRANCH  29  30
HETATM   30  C17 UNL     1      25.212 -32.719  -4.005  1.00  0.00     0.373 C 
HETATM   31  N1  UNL     1      26.292 -32.657  -4.947  1.00  0.00    -0.032 NA
HETATM   32  O5  UNL     1      25.125 -31.873  -3.077  1.00  0.00    -0.242 OA
ENDBRANCH  29  30
ENDBRANCH  14  29
BRANCH  15  33
HETATM   33  O6  UNL     1      22.642 -36.377  -3.546  1.00  0.00    -0.384 OA
HETATM   34  C19 UNL     1      22.097 -37.463  -2.908  1.00  0.00     0.202 C 
ENDBRANCH  15  33
BRANCH   8  35
HETATM   35  O3  UNL     1      20.381 -32.610  -7.122  1.00  0.00    -0.392 OA
ATOM     36  H3  UNL     1      20.068 -31.794  -6.748  1.00  0.00     0.210 HD
ENDBRANCH   8  35
BRANCH   7  37
HETATM   37  O2  UNL     1      19.229 -34.806  -7.734  1.00  0.00    -0.388 OA
HETATM   38  C9  UNL     1      17.948 -35.181  -7.395  1.00  0.00     0.202 C 
ENDBRANCH   7  37
BRANCH  21  39
HETATM   39  O7  UNL     1      28.728 -34.734  -4.996  1.00  0.00    -0.346 OA
ATOM     40  H7  UNL     1      28.207 -34.005  -4.681  1.00  0.00     0.219 HD
ENDBRANCH  21  39
BRANCH  28  41
HETATM   41  O9  UNL     1      24.419 -35.690  -6.450  1.00  0.00    -0.357 OA
ATOM     42  H9  UNL     1      24.573 -36.455  -5.910  1.00  0.00     0.217 HD
ENDBRANCH  28  41
BRANCH   1  43
HETATM   43  O1  UNL     1      23.923 -36.016 -11.216  1.00  0.00    -0.351 OA
HETATM   44  C1  UNL     1      24.054 -37.225 -11.940  1.00  0.00     0.210 C 
ENDBRANCH   1  43
TORSDOF 8
ENDMDL
