MODEL 2
REMARK VINA RESULT: -6.122337576      2.813      4.104
REMARK  7 active torsions:
REMARK  status: ('A' for Active; 'I' for Inactive)
REMARK    1  A    between atoms: O1_2  and  C2_3 
REMARK    2  A    between atoms: C8_9  and  O2_10 
REMARK    3  A    between atoms: C12_18  and  O4_19 
REMARK    4  A    between atoms: C19_26  and  O5_27 
REMARK    5  A    between atoms: C21_29  and  O6_30 
REMARK    6  A    between atoms: C27_37  and  O7_38 
REMARK    7  A    between atoms: O7_38  and  C28_39 
ROOT
HETATM    1  C2  UNL     1      27.189 -37.035  -8.418  1.00  0.00     0.154 C 
HETATM    2  C3  UNL     1      26.206 -38.182  -8.488  1.00  0.00     0.035 C 
HETATM    3  C4  UNL     1      25.033 -37.796  -9.382  1.00  0.00     0.003 C 
HETATM    4  C5  UNL     1      23.968 -37.187  -8.454  1.00  0.00     0.012 C 
HETATM    5  C6  UNL     1      23.364 -38.227  -7.611  1.00  0.00     0.056 C 
HETATM    6  C7  UNL     1      23.445 -39.543  -8.409  1.00  0.00     0.018 C 
HETATM    7  C8  UNL     1      21.950 -38.060  -7.208  1.00  0.00     0.119 C 
HETATM    8  N1  UNL     1      21.081 -36.986  -7.377  1.00  0.00    -0.337 N 
ATOM      9  H1  UNL     1      20.227 -37.224  -7.882  1.00  0.00     0.168 HD
HETATM   10  C9  UNL     1      21.150 -35.625  -6.982  1.00  0.00     0.084 C 
HETATM   11  C10 UNL     1      19.923 -34.999  -6.819  1.00  0.00     0.086 C 
HETATM   12  C11 UNL     1      19.949 -33.920  -5.816  1.00  0.00     0.181 C 
HETATM   13  O3  UNL     1      19.229 -32.927  -5.958  1.00  0.00    -0.290 OA
HETATM   14  C12 UNL     1      20.891 -34.163  -4.683  1.00  0.00     0.206 C 
HETATM   15  C14 UNL     1      22.325 -34.255  -5.246  1.00  0.00     0.099 C 
HETATM   16  C15 UNL     1      22.897 -32.890  -5.144  1.00  0.00     0.020 C 
HETATM   17  C16 UNL     1      24.355 -32.707  -5.174  1.00  0.00    -0.015 C 
HETATM   18  C17 UNL     1      24.781 -32.003  -6.468  1.00  0.00     0.010 C 
HETATM   19  C18 UNL     1      25.221 -33.897  -4.915  1.00  0.00     0.038 C 
HETATM   20  C19 UNL     1      26.518 -33.448  -4.273  1.00  0.00     0.150 C 
HETATM   21  C21 UNL     1      27.738 -34.079  -4.852  1.00  0.00     0.154 C 
HETATM   22  C22 UNL     1      27.918 -33.957  -6.320  1.00  0.00     0.035 C 
HETATM   23  C23 UNL     1      28.273 -32.560  -6.775  1.00  0.00     0.017 C 
HETATM   24  C24 UNL     1      29.101 -34.829  -6.682  1.00  0.00    -0.015 C 
HETATM   25  C25 UNL     1      28.985 -36.102  -6.972  1.00  0.00    -0.055 C 
HETATM   26  C26 UNL     1      30.200 -36.904  -7.322  1.00  0.00     0.046 C 
HETATM   27  C27 UNL     1      27.687 -36.838  -6.979  1.00  0.00     0.190 C 
HETATM   28  C29 UNL     1      22.243 -34.752  -6.689  1.00  0.00     0.183 C 
HETATM   29  O9  UNL     1      23.198 -34.269  -7.354  1.00  0.00    -0.290 OA
ENDROOT
BRANCH  27  30
HETATM   30  O7  UNL     1      27.855 -38.076  -6.332  1.00  0.00    -0.294 OA
BRANCH  30  31
HETATM   31  C28 UNL     1      27.435 -38.220  -5.026  1.00  0.00     0.373 C 
HETATM   32  N2  UNL     1      26.380 -37.464  -4.477  1.00  0.00    -0.032 NA
HETATM   33  O8  UNL     1      28.014 -39.070  -4.266  1.00  0.00    -0.242 OA
ENDBRANCH  30  31
ENDBRANCH  27  30
BRANCH   1  34
HETATM   34  O1  UNL     1      28.267 -37.225  -9.278  1.00  0.00    -0.388 OA
HETATM   35  C1  UNL     1      28.171 -36.502 -10.448  1.00  0.00     0.202 C 
ENDBRANCH   1  34
BRANCH  21  36
HETATM   36  O6  UNL     1      28.842 -33.437  -4.244  1.00  0.00    -0.392 OA
ATOM     37  H6  UNL     1      28.530 -32.586  -3.958  1.00  0.00     0.210 HD
ENDBRANCH  21  36
BRANCH  20  38
HETATM   38  O5  UNL     1      26.649 -32.058  -4.274  1.00  0.00    -0.388 OA
HETATM   39  C20 UNL     1      26.328 -31.461  -3.079  1.00  0.00     0.202 C 
ENDBRANCH  20  38
BRANCH   7  40
HETATM   40  O2  UNL     1      21.562 -39.153  -6.613  1.00  0.00    -0.349 OA
ATOM     41  H2  UNL     1      20.659 -39.321  -6.856  1.00  0.00     0.219 HD
ENDBRANCH   7  40
BRANCH  14  42
HETATM   42  O4  UNL     1      20.573 -35.312  -3.987  1.00  0.00    -0.382 OA
HETATM   43  C13 UNL     1      21.590 -35.598  -3.086  1.00  0.00     0.202 C 
ENDBRANCH  14  42
TORSDOF 7
ENDMDL
