MODEL 3
REMARK VINA RESULT: -6.086373540      3.886      6.019
REMARK  7 active torsions:
REMARK  status: ('A' for Active; 'I' for Inactive)
REMARK    1  A    between atoms: O1_2  and  C2_3 
REMARK    2  A    between atoms: C8_9  and  O2_10 
REMARK    3  A    between atoms: C12_18  and  O4_19 
REMARK    4  A    between atoms: C19_26  and  O5_27 
REMARK    5  A    between atoms: C21_29  and  O6_30 
REMARK    6  A    between atoms: C27_37  and  O7_38 
REMARK    7  A    between atoms: O7_38  and  C28_39 
ROOT
HETATM    1  C2  UNL     1      26.396 -33.941  -6.300  1.00  0.00     0.154 C 
HETATM    2  C3  UNL     1      27.160 -35.202  -6.641  1.00  0.00     0.035 C 
HETATM    3  C4  UNL     1      27.116 -35.433  -8.148  1.00  0.00     0.003 C 
HETATM    4  C5  UNL     1      25.892 -36.328  -8.409  1.00  0.00     0.012 C 
HETATM    5  C6  UNL     1      26.133 -37.689  -7.911  1.00  0.00     0.056 C 
HETATM    6  C7  UNL     1      27.654 -37.925  -7.991  1.00  0.00     0.018 C 
HETATM    7  C8  UNL     1      25.489 -38.814  -8.624  1.00  0.00     0.119 C 
HETATM    8  N1  UNL     1      24.547 -38.817  -9.648  1.00  0.00    -0.337 N 
ATOM      9  H1  UNL     1      24.851 -39.317 -10.483  1.00  0.00     0.168 HD
HETATM   10  C9  UNL     1      23.247 -38.260  -9.757  1.00  0.00     0.084 C 
HETATM   11  C10 UNL     1      22.406 -38.905 -10.652  1.00  0.00     0.086 C 
HETATM   12  C11 UNL     1      20.982 -38.808 -10.287  1.00  0.00     0.181 C 
HETATM   13  O3  UNL     1      20.120 -38.756 -11.169  1.00  0.00    -0.290 OA
HETATM   14  C12 UNL     1      20.730 -38.782  -8.815  1.00  0.00     0.206 C 
HETATM   15  C14 UNL     1      21.408 -37.529  -8.221  1.00  0.00     0.099 C 
HETATM   16  C15 UNL     1      20.369 -36.470  -8.198  1.00  0.00     0.020 C 
HETATM   17  C16 UNL     1      20.532 -35.310  -7.310  1.00  0.00    -0.015 C 
HETATM   18  C17 UNL     1      20.778 -34.037  -8.130  1.00  0.00     0.010 C 
HETATM   19  C18 UNL     1      21.516 -35.411  -6.190  1.00  0.00     0.038 C 
HETATM   20  C19 UNL     1      21.055 -34.547  -5.033  1.00  0.00     0.150 C 
HETATM   21  C21 UNL     1      22.132 -33.714  -4.424  1.00  0.00     0.154 C 
HETATM   22  C22 UNL     1      22.894 -32.835  -5.345  1.00  0.00     0.035 C 
HETATM   23  C23 UNL     1      22.098 -31.654  -5.855  1.00  0.00     0.017 C 
HETATM   24  C24 UNL     1      24.035 -32.253  -4.537  1.00  0.00    -0.015 C 
HETATM   25  C25 UNL     1      25.196 -32.848  -4.415  1.00  0.00    -0.055 C 
HETATM   26  C26 UNL     1      26.281 -32.214  -3.601  1.00  0.00     0.046 C 
HETATM   27  C27 UNL     1      25.531 -34.157  -5.050  1.00  0.00     0.190 C 
HETATM   28  C29 UNL     1      22.601 -37.164  -9.105  1.00  0.00     0.183 C 
HETATM   29  O9  UNL     1      22.777 -35.917  -9.077  1.00  0.00    -0.290 OA
ENDROOT
BRANCH  27  30
HETATM   30  O7  UNL     1      26.195 -34.968  -4.113  1.00  0.00    -0.294 OA
BRANCH  30  31
HETATM   31  C28 UNL     1      25.507 -35.989  -3.492  1.00  0.00     0.373 C 
HETATM   32  N2  UNL     1      25.549 -37.323  -3.946  1.00  0.00    -0.032 NA
HETATM   33  O8  UNL     1      24.795 -35.736  -2.460  1.00  0.00    -0.242 OA
ENDBRANCH  30  31
ENDBRANCH  27  30
BRANCH   1  34
HETATM   34  O1  UNL     1      27.248 -32.855  -6.114  1.00  0.00    -0.388 OA
HETATM   35  C1  UNL     1      27.292 -32.000  -7.194  1.00  0.00     0.202 C 
ENDBRANCH   1  34
BRANCH  21  36
HETATM   36  O6  UNL     1      21.497 -32.877  -3.479  1.00  0.00    -0.392 OA
ATOM     37  H6  UNL     1      21.069 -32.190  -3.977  1.00  0.00     0.210 HD
ENDBRANCH  21  36
BRANCH  20  38
HETATM   38  O5  UNL     1      19.966 -33.745  -5.380  1.00  0.00    -0.388 OA
HETATM   39  C20 UNL     1      18.816 -34.028  -4.685  1.00  0.00     0.202 C 
ENDBRANCH  20  38
BRANCH   7  40
HETATM   40  O2  UNL     1      25.955 -39.929  -8.134  1.00  0.00    -0.349 OA
ATOM     41  H2  UNL     1      25.338 -40.251  -7.488  1.00  0.00     0.219 HD
ENDBRANCH   7  40
BRANCH  14  42
HETATM   42  O4  UNL     1      21.199 -39.923  -8.193  1.00  0.00    -0.382 OA
HETATM   43  C13 UNL     1      21.502 -39.631  -6.870  1.00  0.00     0.202 C 
ENDBRANCH  14  42
TORSDOF 7
ENDMDL
