MODEL 1
REMARK VINA RESULT: -6.424516478      0.000      0.000
REMARK  7 active torsions:
REMARK  status: ('A' for Active; 'I' for Inactive)
REMARK    1  A    between atoms: O1_2  and  C2_3 
REMARK    2  A    between atoms: C8_9  and  O2_10 
REMARK    3  A    between atoms: C12_18  and  O4_19 
REMARK    4  A    between atoms: C19_26  and  O5_27 
REMARK    5  A    between atoms: C21_29  and  O6_30 
REMARK    6  A    between atoms: C27_37  and  O7_38 
REMARK    7  A    between atoms: O7_38  and  C28_39 
ROOT
HETATM    1  C2  UNL     1      28.806 -33.838  -8.071  1.00  0.00     0.154 C 
HETATM    2  C3  UNL     1      28.936 -35.318  -7.789  1.00  0.00     0.035 C 
HETATM    3  C4  UNL     1      27.639 -36.026  -8.167  1.00  0.00     0.003 C 
HETATM    4  C5  UNL     1      26.776 -36.050  -6.894  1.00  0.00     0.012 C 
HETATM    5  C6  UNL     1      27.340 -36.980  -5.907  1.00  0.00     0.056 C 
HETATM    6  C7  UNL     1      28.083 -38.071  -6.703  1.00  0.00     0.018 C 
HETATM    7  C8  UNL     1      26.405 -37.680  -4.998  1.00  0.00     0.119 C 
HETATM    8  N1  UNL     1      25.037 -37.515  -4.804  1.00  0.00    -0.337 N 
ATOM      9  H1  UNL     1      24.496 -38.367  -4.956  1.00  0.00     0.168 HD
HETATM   10  C9  UNL     1      24.248 -36.395  -4.437  1.00  0.00     0.084 C 
HETATM   11  C10 UNL     1      23.050 -36.702  -3.810  1.00  0.00     0.086 C 
HETATM   12  C11 UNL     1      22.600 -35.662  -2.869  1.00  0.00     0.181 C 
HETATM   13  O3  UNL     1      21.394 -35.451  -2.709  1.00  0.00    -0.290 OA
HETATM   14  C12 UNL     1      23.713 -34.942  -2.180  1.00  0.00     0.206 C 
HETATM   15  C14 UNL     1      24.563 -34.215  -3.243  1.00  0.00     0.099 C 
HETATM   16  C15 UNL     1      24.020 -32.838  -3.336  1.00  0.00     0.020 C 
HETATM   17  C16 UNL     1      24.846 -31.767  -3.910  1.00  0.00    -0.015 C 
HETATM   18  C17 UNL     1      24.270 -31.305  -5.254  1.00  0.00     0.010 C 
HETATM   19  C18 UNL     1      26.319 -31.993  -4.021  1.00  0.00     0.038 C 
HETATM   20  C19 UNL     1      27.045 -30.668  -3.906  1.00  0.00     0.150 C 
HETATM   21  C21 UNL     1      28.124 -30.472  -4.915  1.00  0.00     0.154 C 
HETATM   22  C22 UNL     1      27.741 -30.633  -6.339  1.00  0.00     0.035 C 
HETATM   23  C23 UNL     1      26.874 -29.512  -6.866  1.00  0.00     0.017 C 
HETATM   24  C24 UNL     1      29.026 -30.580  -7.139  1.00  0.00    -0.015 C 
HETATM   25  C25 UNL     1      29.753 -31.641  -7.390  1.00  0.00    -0.055 C 
HETATM   26  C26 UNL     1      31.013 -31.515  -8.188  1.00  0.00     0.046 C 
HETATM   27  C27 UNL     1      29.406 -33.016  -6.922  1.00  0.00     0.190 C 
HETATM   28  C29 UNL     1      24.445 -34.985  -4.559  1.00  0.00     0.183 C 
HETATM   29  O9  UNL     1      24.550 -34.182  -5.525  1.00  0.00    -0.290 OA
ENDROOT
BRANCH  27  30
HETATM   30  O7  UNL     1      30.562 -33.634  -6.411  1.00  0.00    -0.294 OA
BRANCH  30  31
HETATM   31  C28 UNL     1      30.752 -33.692  -5.047  1.00  0.00     0.373 C 
HETATM   32  N2  UNL     1      31.961 -33.313  -4.429  1.00  0.00    -0.032 NA
HETATM   33  O8  UNL     1      29.804 -34.103  -4.293  1.00  0.00    -0.242 OA
ENDBRANCH  30  31
ENDBRANCH  27  30
BRANCH   1  34
HETATM   34  O1  UNL     1      29.405 -33.487  -9.278  1.00  0.00    -0.388 OA
HETATM   35  C1  UNL     1      28.506 -33.314 -10.308  1.00  0.00     0.202 C 
ENDBRANCH   1  34
BRANCH  21  36
HETATM   36  O6  UNL     1      28.579 -29.143  -4.754  1.00  0.00    -0.392 OA
ATOM     37  H6  UNL     1      28.728 -28.805  -5.630  1.00  0.00     0.210 HD
ENDBRANCH  21  36
BRANCH  20  38
HETATM   38  O5  UNL     1      26.164 -29.585  -3.927  1.00  0.00    -0.388 OA
HETATM   39  C20 UNL     1      26.175 -28.828  -2.782  1.00  0.00     0.202 C 
ENDBRANCH  20  38
BRANCH   7  40
HETATM   40  O2  UNL     1      27.079 -38.569  -4.322  1.00  0.00    -0.349 OA
ATOM     41  H2  UNL     1      26.688 -38.647  -3.460  1.00  0.00     0.219 HD
ENDBRANCH   7  40
BRANCH  14  42
HETATM   42  O4  UNL     1      24.500 -35.801  -1.439  1.00  0.00    -0.382 OA
HETATM   43  C13 UNL     1      23.875 -36.064  -0.228  1.00  0.00     0.202 C 
ENDBRANCH  14  42
TORSDOF 7
ENDMDL
