MODEL 2
REMARK VINA RESULT: -6.666504987      4.471      7.623
REMARK  6 active torsions:
REMARK  status: ('A' for Active; 'I' for Inactive)
REMARK       I    between atoms: C2_2  and  N1_4 
REMARK    1  A    between atoms: N1_4  and  C3_6 
REMARK    2  A    between atoms: C4_7  and  O2_8 
REMARK    3  A    between atoms: C5_11  and  C6_12 
REMARK    4  A    between atoms: C6_12  and  O4_13 
REMARK    5  A    between atoms: C7_15  and  O5_16 
REMARK    6  A    between atoms: C8_18  and  O6_19 
ROOT
HETATM    1  C3  UNL     1      -5.101  34.413  21.130  1.00  0.00     0.170 C 
HETATM    2  C4  UNL     1      -4.070  35.499  20.923  1.00  0.00     0.282 C 
HETATM    3  O3  UNL     1      -3.070  35.466  21.855  1.00  0.00    -0.349 OA
HETATM    4  C5  UNL     1      -3.464  35.188  23.137  1.00  0.00     0.179 C 
HETATM    5  C7  UNL     1      -4.169  33.860  23.281  1.00  0.00     0.180 C 
HETATM    6  C8  UNL     1      -4.418  33.297  21.873  1.00  0.00     0.177 C 
ENDROOT
BRANCH   1   7
HETATM    7  N1  UNL     1      -5.773  34.027  19.951  1.00  0.00    -0.349 N 
HETATM    8  C2  UNL     1      -7.154  34.262  19.779  1.00  0.00     0.214 C 
HETATM    9  C1  UNL     1      -7.899  33.871  18.554  1.00  0.00     0.117 C 
HETATM   10  O1  UNL     1      -7.774  34.824  20.704  1.00  0.00    -0.274 OA
ATOM     11  H1  UNL     1      -5.249  33.567  19.205  1.00  0.00     0.163 HD
ENDBRANCH   1   7
BRANCH   2  12
HETATM   12  O2  UNL     1      -4.699  36.762  21.013  1.00  0.00    -0.369 OA
ATOM     13  H2  UNL     1      -4.766  37.141  20.145  1.00  0.00     0.212 HD
ENDBRANCH   2  12
BRANCH   6  14
HETATM   14  O6  UNL     1      -3.189  32.951  21.368  1.00  0.00    -0.391 OA
ATOM     15  H6  UNL     1      -3.162  32.095  20.957  1.00  0.00     0.210 HD
ENDBRANCH   6  14
BRANCH   5  16
HETATM   16  O5  UNL     1      -5.441  34.121  23.806  1.00  0.00    -0.390 OA
ATOM     17  H5  UNL     1      -5.581  33.510  24.520  1.00  0.00     0.210 HD
ENDBRANCH   5  16
BRANCH   4  18
HETATM   18  C6  UNL     1      -2.204  35.114  24.001  1.00  0.00     0.198 C 
BRANCH  18  19
HETATM   19  O4  UNL     1      -1.434  34.005  23.675  1.00  0.00    -0.398 OA
ATOM     20  H4  UNL     1      -0.766  33.844  24.332  1.00  0.00     0.209 HD
ENDBRANCH  18  19
ENDBRANCH   4  18
TORSDOF 6
ENDMDL
