MODEL 1
REMARK VINA RESULT: -6.764252146      0.000      0.000
REMARK  6 active torsions:
REMARK  status: ('A' for Active; 'I' for Inactive)
REMARK       I    between atoms: C2_2  and  N1_4 
REMARK    1  A    between atoms: N1_4  and  C3_6 
REMARK    2  A    between atoms: C4_7  and  O2_8 
REMARK    3  A    between atoms: C5_11  and  C6_12 
REMARK    4  A    between atoms: C6_12  and  O4_13 
REMARK    5  A    between atoms: C7_15  and  O5_16 
REMARK    6  A    between atoms: C8_18  and  O6_19 
ROOT
HETATM    1  C3  UNL     1      -8.531  31.919  19.241  1.00  0.00     0.170 C 
HETATM    2  C4  UNL     1      -8.400  32.526  17.862  1.00  0.00     0.282 C 
HETATM    3  O3  UNL     1      -9.207  31.922  16.937  1.00  0.00    -0.349 OA
HETATM    4  C5  UNL     1      -9.302  30.559  17.035  1.00  0.00     0.179 C 
HETATM    5  C7  UNL     1      -9.821  30.080  18.370  1.00  0.00     0.180 C 
HETATM    6  C8  UNL     1      -9.897  31.291  19.315  1.00  0.00     0.177 C 
ENDROOT
BRANCH   1   7
HETATM    7  N1  UNL     1      -8.222  32.809  20.292  1.00  0.00    -0.349 N 
HETATM    8  C2  UNL     1      -7.728  32.344  21.529  1.00  0.00     0.214 C 
HETATM    9  C1  UNL     1      -7.391  33.247  22.660  1.00  0.00     0.117 C 
HETATM   10  O1  UNL     1      -7.571  31.116  21.675  1.00  0.00    -0.274 OA
ATOM     11  H1  UNL     1      -8.358  33.811  20.154  1.00  0.00     0.163 HD
ENDBRANCH   1   7
BRANCH   2  12
HETATM   12  O2  UNL     1      -7.065  32.392  17.419  1.00  0.00    -0.369 OA
ATOM     13  H2  UNL     1      -6.478  32.708  18.096  1.00  0.00     0.212 HD
ENDBRANCH   2  12
BRANCH   6  14
HETATM   14  O6  UNL     1     -10.911  32.088  18.846  1.00  0.00    -0.391 OA
ATOM     15  H6  UNL     1     -11.481  32.433  19.523  1.00  0.00     0.210 HD
ENDBRANCH   6  14
BRANCH   5  16
HETATM   16  O5  UNL     1      -8.842  29.243  18.920  1.00  0.00    -0.390 OA
ATOM     17  H5  UNL     1      -9.291  28.496  19.298  1.00  0.00     0.210 HD
ENDBRANCH   5  16
BRANCH   4  18
HETATM   18  C6  UNL     1     -10.305  30.090  15.979  1.00  0.00     0.198 C 
BRANCH  18  19
HETATM   19  O4  UNL     1     -10.815  28.837  16.290  1.00  0.00    -0.398 OA
ATOM     20  H4  UNL     1     -11.600  28.906  16.822  1.00  0.00     0.209 HD
ENDBRANCH  18  19
ENDBRANCH   4  18
TORSDOF 6
ENDMDL
