MODEL 4
REMARK VINA RESULT: -6.462270245      1.799      1.892
REMARK  6 active torsions:
REMARK  status: ('A' for Active; 'I' for Inactive)
REMARK       I    between atoms: C2_2  and  N1_4 
REMARK    1  A    between atoms: N1_4  and  C3_6 
REMARK    2  A    between atoms: C4_7  and  O2_8 
REMARK    3  A    between atoms: C5_11  and  C6_12 
REMARK    4  A    between atoms: C6_12  and  O4_13 
REMARK    5  A    between atoms: C7_15  and  O5_16 
REMARK    6  A    between atoms: C8_18  and  O6_19 
ROOT
HETATM    1  C3  UNL     1      -8.769  31.922  18.384  1.00  0.00     0.170 C 
HETATM    2  C4  UNL     1      -9.461  32.542  17.191  1.00  0.00     0.282 C 
HETATM    3  O3  UNL     1     -10.389  31.712  16.625  1.00  0.00    -0.349 OA
HETATM    4  C5  UNL     1     -10.033  30.391  16.549  1.00  0.00     0.179 C 
HETATM    5  C7  UNL     1      -9.725  29.767  17.890  1.00  0.00     0.180 C 
HETATM    6  C8  UNL     1      -9.706  30.885  18.944  1.00  0.00     0.177 C 
ENDROOT
BRANCH   1   7
HETATM    7  N1  UNL     1      -8.285  32.861  19.320  1.00  0.00    -0.349 N 
HETATM    8  C2  UNL     1      -7.138  33.639  19.056  1.00  0.00     0.214 C 
HETATM    9  C1  UNL     1      -6.596  34.639  20.013  1.00  0.00     0.117 C 
HETATM   10  O1  UNL     1      -6.554  33.475  17.966  1.00  0.00    -0.274 OA
ATOM     11  H1  UNL     1      -8.776  32.981  20.207  1.00  0.00     0.163 HD
ENDBRANCH   1   7
BRANCH   2  12
HETATM   12  O2  UNL     1      -8.499  32.848  16.203  1.00  0.00    -0.369 OA
ATOM     13  H2  UNL     1      -7.920  33.528  16.529  1.00  0.00     0.212 HD
ENDBRANCH   2  12
BRANCH   6  14
HETATM   14  O6  UNL     1     -11.003  31.312  19.083  1.00  0.00    -0.391 OA
ATOM     15  H6  UNL     1     -11.649  30.616  19.056  1.00  0.00     0.210 HD
ENDBRANCH   6  14
BRANCH   5  16
HETATM   16  O5  UNL     1      -8.409  29.290  17.832  1.00  0.00    -0.390 OA
ATOM     17  H5  UNL     1      -7.834  30.045  17.891  1.00  0.00     0.210 HD
ENDBRANCH   5  16
BRANCH   4  18
HETATM   18  C6  UNL     1     -11.224  29.625  15.970  1.00  0.00     0.198 C 
BRANCH  18  19
HETATM   19  O4  UNL     1     -12.158  29.327  16.954  1.00  0.00    -0.398 OA
ATOM     20  H4  UNL     1     -11.930  28.529  17.416  1.00  0.00     0.209 HD
ENDBRANCH  18  19
ENDBRANCH   4  18
TORSDOF 6
ENDMDL
