MODEL 4
REMARK VINA RESULT: -6.952359182      6.413      9.494
REMARK  5 active torsions:
REMARK  status: ('A' for Active; 'I' for Inactive)
REMARK    1  A    between atoms: O1_2  and  C2_3 
REMARK    2  A    between atoms: C5_6  and  C6_7 
REMARK    3  A    between atoms: C7_13  and  C8_14 
REMARK    4  A    between atoms: C11_18  and  O2_19 
REMARK    5  A    between atoms: C13_22  and  O3_23 
ROOT
HETATM    1  C6  UNL     1      35.584   2.763  21.021  1.00  0.00     0.062 A 
HETATM    2  S1  UNL     1      35.272   2.031  19.513  1.00  0.00     0.004 SA
HETATM    3  N1  UNL     1      35.898   0.507  19.843  1.00  0.00    -0.269 N 
ATOM      4  H1  UNL     1      35.941  -0.304  19.227  1.00  0.00     0.195 HD
HETATM    5  N2  UNL     1      36.316   0.608  21.065  1.00  0.00    -0.292 N 
ATOM      6  H2  UNL     1      36.751  -0.194  21.522  1.00  0.00     0.187 HD
HETATM    7  C7  UNL     1      36.180   1.733  21.712  1.00  0.00     0.081 A 
ENDROOT
BRANCH   7   8
HETATM    8  C8  UNL     1      36.644   1.893  23.122  1.00  0.00     0.028 A 
HETATM    9  C9  UNL     1      35.825   1.594  24.188  1.00  0.00     0.043 A 
HETATM   10  C10 UNL     1      36.251   1.738  25.486  1.00  0.00     0.068 A 
HETATM   11 CL1  UNL     1      35.205   1.356  26.839  1.00  0.00    -0.081 Cl
HETATM   12  C11 UNL     1      37.534   2.195  25.767  1.00  0.00     0.090 A 
HETATM   13  C12 UNL     1      38.347   2.493  24.697  1.00  0.00     0.075 A 
HETATM   14  C13 UNL     1      37.917   2.346  23.398  1.00  0.00     0.081 A 
BRANCH  12  15
HETATM   15  O2  UNL     1      37.934   2.330  27.090  1.00  0.00    -0.359 OA
ATOM     16  H2  UNL     1      38.561   3.006  27.321  1.00  0.00     0.217 HD
ENDBRANCH  12  15
BRANCH  14  17
HETATM   17  O3  UNL     1      38.741   2.648  22.314  1.00  0.00    -0.360 OA
ATOM     18  H3  UNL     1      38.374   3.180  21.618  1.00  0.00     0.217 HD
ENDBRANCH  14  17
ENDBRANCH   7   8
BRANCH   1  19
HETATM   19  C5  UNL     1      35.309   4.132  21.503  1.00  0.00    -0.015 A 
HETATM   20  C4  UNL     1      34.283   4.425  22.372  1.00  0.00     0.015 A 
HETATM   21  C3  UNL     1      34.053   5.732  22.806  1.00  0.00     0.037 A 
HETATM   22  C2  UNL     1      34.851   6.772  22.376  1.00  0.00     0.068 A 
HETATM   23  C15 UNL     1      35.876   6.463  21.504  1.00  0.00     0.037 A 
HETATM   24  C14 UNL     1      36.105   5.170  21.073  1.00  0.00     0.015 A 
BRANCH  22  25
HETATM   25  O1  UNL     1      34.661   8.091  22.780  1.00  0.00    -0.356 OA
HETATM   26  C1  UNL     1      33.722   8.503  23.721  1.00  0.00     0.210 C 
ENDBRANCH  22  25
ENDBRANCH   1  19
TORSDOF 5
ENDMDL
