MODEL 1
REMARK VINA RESULT: -8.398851084      0.000      0.000
REMARK  5 active torsions:
REMARK  status: ('A' for Active; 'I' for Inactive)
REMARK    1  A    between atoms: O1_2  and  C2_3 
REMARK    2  A    between atoms: C5_6  and  C6_7 
REMARK    3  A    between atoms: C7_13  and  C8_14 
REMARK    4  A    between atoms: C11_18  and  O2_19 
REMARK    5  A    between atoms: C13_22  and  O3_23 
ROOT
HETATM    1  C6  UNL     1      31.578   8.352  26.012  1.00  0.00     0.062 A 
HETATM    2  S1  UNL     1      31.036   7.782  27.524  1.00  0.00     0.004 SA
HETATM    3  N1  UNL     1      30.106   9.109  27.970  1.00  0.00    -0.269 N 
ATOM      4  H1  UNL     1      29.565   9.241  28.825  1.00  0.00     0.195 HD
HETATM    5  N2  UNL     1      30.239   9.924  26.973  1.00  0.00    -0.292 N 
ATOM      6  H2  UNL     1      29.767  10.828  26.988  1.00  0.00     0.187 HD
HETATM    7  C7  UNL     1      30.977   9.589  25.950  1.00  0.00     0.081 A 
ENDROOT
BRANCH   7   8
HETATM    8  C8  UNL     1      31.157  10.496  24.777  1.00  0.00     0.028 A 
HETATM    9  C9  UNL     1      32.394  11.000  24.440  1.00  0.00     0.043 A 
HETATM   10  C10 UNL     1      32.562  11.832  23.361  1.00  0.00     0.068 A 
HETATM   11 CL1  UNL     1      34.139  12.471  22.936  1.00  0.00    -0.081 Cl
HETATM   12  C11 UNL     1      31.480  12.196  22.567  1.00  0.00     0.090 A 
HETATM   13  C12 UNL     1      30.247  11.690  22.910  1.00  0.00     0.075 A 
HETATM   14  C13 UNL     1      30.082  10.855  23.992  1.00  0.00     0.081 A 
BRANCH  12  15
HETATM   15  O2  UNL     1      31.684  13.040  21.483  1.00  0.00    -0.359 OA
ATOM     16  H2  UNL     1      30.980  13.175  20.859  1.00  0.00     0.217 HD
ENDBRANCH  12  15
BRANCH  14  17
HETATM   17  O3  UNL     1      28.832  10.342  24.339  1.00  0.00    -0.360 OA
ATOM     18  H3  UNL     1      28.285  10.869  24.908  1.00  0.00     0.217 HD
ENDBRANCH  14  17
ENDBRANCH   7   8
BRANCH   1  19
HETATM   19  C5  UNL     1      32.458   7.726  25.005  1.00  0.00    -0.015 A 
HETATM   20  C4  UNL     1      31.977   7.117  23.869  1.00  0.00     0.015 A 
HETATM   21  C3  UNL     1      32.842   6.535  22.939  1.00  0.00     0.037 A 
HETATM   22  C2  UNL     1      34.207   6.554  23.132  1.00  0.00     0.068 A 
HETATM   23  C15 UNL     1      34.675   7.169  24.276  1.00  0.00     0.037 A 
HETATM   24  C14 UNL     1      33.822   7.745  25.198  1.00  0.00     0.015 A 
BRANCH  22  25
HETATM   25  O1  UNL     1      35.108   5.987  22.234  1.00  0.00    -0.356 OA
HETATM   26  C1  UNL     1      35.910   6.710  21.355  1.00  0.00     0.210 C 
ENDBRANCH  22  25
ENDBRANCH   1  19
TORSDOF 5
ENDMDL
