MODEL 3
REMARK VINA RESULT: -6.965664088      5.150      6.958
REMARK  5 active torsions:
REMARK  status: ('A' for Active; 'I' for Inactive)
REMARK    1  A    between atoms: O1_2  and  C2_3 
REMARK    2  A    between atoms: C5_6  and  C6_7 
REMARK    3  A    between atoms: C7_13  and  C8_14 
REMARK    4  A    between atoms: C11_18  and  O2_19 
REMARK    5  A    between atoms: C13_22  and  O3_23 
ROOT
HETATM    1  C6  UNL     1      35.274   3.685  21.259  1.00  0.00     0.062 A 
HETATM    2  S1  UNL     1      35.160   2.757  19.833  1.00  0.00     0.004 SA
HETATM    3  N1  UNL     1      34.279   3.842  18.901  1.00  0.00    -0.269 N 
ATOM      4  H1  UNL     1      33.957   3.731  17.940  1.00  0.00     0.195 HD
HETATM    5  N2  UNL     1      34.105   4.853  19.691  1.00  0.00    -0.292 N 
ATOM      6  H2  UNL     1      33.587   5.670  19.367  1.00  0.00     0.187 HD
HETATM    7  C7  UNL     1      34.591   4.826  20.902  1.00  0.00     0.081 A 
ENDROOT
BRANCH   7   8
HETATM    8  C8  UNL     1      34.416   5.969  21.848  1.00  0.00     0.028 A 
HETATM    9  C9  UNL     1      33.282   6.099  22.618  1.00  0.00     0.043 A 
HETATM   10  C10 UNL     1      33.121   7.148  23.489  1.00  0.00     0.068 A 
HETATM   11 CL1  UNL     1      31.675   7.310  24.468  1.00  0.00    -0.081 Cl
HETATM   12  C11 UNL     1      34.105   8.121  23.623  1.00  0.00     0.090 A 
HETATM   13  C12 UNL     1      35.236   7.985  22.850  1.00  0.00     0.075 A 
HETATM   14  C13 UNL     1      35.395   6.931  21.978  1.00  0.00     0.081 A 
BRANCH  12  15
HETATM   15  O2  UNL     1      33.911   9.169  24.513  1.00  0.00    -0.359 OA
ATOM     16  H2  UNL     1      34.531   9.300  25.222  1.00  0.00     0.217 HD
ENDBRANCH  12  15
BRANCH  14  17
HETATM   17  O3  UNL     1      36.541   6.794  21.195  1.00  0.00    -0.360 OA
ATOM     18  H3  UNL     1      37.302   7.308  21.437  1.00  0.00     0.217 HD
ENDBRANCH  14  17
ENDBRANCH   7   8
BRANCH   1  19
HETATM   19  C5  UNL     1      35.919   3.388  22.553  1.00  0.00    -0.015 A 
HETATM   20  C4  UNL     1      35.238   2.844  23.619  1.00  0.00     0.015 A 
HETATM   21  C3  UNL     1      35.883   2.577  24.829  1.00  0.00     0.037 A 
HETATM   22  C2  UNL     1      37.225   2.849  24.991  1.00  0.00     0.068 A 
HETATM   23  C15 UNL     1      37.895   3.394  23.914  1.00  0.00     0.037 A 
HETATM   24  C14 UNL     1      37.259   3.660  22.716  1.00  0.00     0.015 A 
BRANCH  22  25
HETATM   25  O1  UNL     1      37.911   2.601  26.177  1.00  0.00    -0.356 OA
HETATM   26  C1  UNL     1      37.525   1.665  27.134  1.00  0.00     0.210 C 
ENDBRANCH  22  25
ENDBRANCH   1  19
TORSDOF 5
ENDMDL
