MODEL 2
REMARK VINA RESULT: -7.409876833      1.727      5.110
REMARK  5 active torsions:
REMARK  status: ('A' for Active; 'I' for Inactive)
REMARK    1  A    between atoms: O1_2  and  C2_3 
REMARK    2  A    between atoms: C5_6  and  C6_7 
REMARK    3  A    between atoms: C7_13  and  C8_14 
REMARK    4  A    between atoms: C11_18  and  O2_19 
REMARK    5  A    between atoms: C13_22  and  O3_23 
ROOT
HETATM    1  C6  UNL     1      30.877   9.772  25.687  1.00  0.00     0.062 A 
HETATM    2  S1  UNL     1      30.138   9.905  27.218  1.00  0.00     0.004 SA
HETATM    3  N1  UNL     1      30.724   8.485  27.900  1.00  0.00    -0.269 N 
ATOM      4  H1  UNL     1      30.551   8.117  28.835  1.00  0.00     0.195 HD
HETATM    5  N2  UNL     1      31.447   7.970  26.957  1.00  0.00    -0.292 N 
ATOM      6  H2  UNL     1      31.928   7.083  27.111  1.00  0.00     0.187 HD
HETATM    7  C7  UNL     1      31.559   8.583  25.811  1.00  0.00     0.081 A 
ENDROOT
BRANCH   7   8
HETATM    8  C8  UNL     1      32.383   8.026  24.696  1.00  0.00     0.028 A 
HETATM    9  C9  UNL     1      33.580   8.601  24.329  1.00  0.00     0.043 A 
HETATM   10  C10 UNL     1      34.340   8.089  23.306  1.00  0.00     0.068 A 
HETATM   11 CL1  UNL     1      35.863   8.824  22.843  1.00  0.00    -0.081 Cl
HETATM   12  C11 UNL     1      33.922   6.965  22.602  1.00  0.00     0.090 A 
HETATM   13  C12 UNL     1      32.724   6.396  22.974  1.00  0.00     0.075 A 
HETATM   14  C13 UNL     1      31.965   6.912  24.000  1.00  0.00     0.081 A 
BRANCH  12  15
HETATM   15  O2  UNL     1      34.713   6.472  21.573  1.00  0.00    -0.359 OA
ATOM     16  H2  UNL     1      34.724   6.923  20.736  1.00  0.00     0.217 HD
ENDBRANCH  12  15
BRANCH  14  17
HETATM   17  O3  UNL     1      30.752   6.335  24.376  1.00  0.00    -0.360 OA
ATOM     18  H3  UNL     1      30.783   5.603  24.980  1.00  0.00     0.217 HD
ENDBRANCH  14  17
ENDBRANCH   7   8
BRANCH   1  19
HETATM   19  C5  UNL     1      30.826  10.664  24.512  1.00  0.00    -0.015 A 
HETATM   20  C4  UNL     1      31.866  11.495  24.161  1.00  0.00     0.015 A 
HETATM   21  C3  UNL     1      31.781  12.326  23.042  1.00  0.00     0.037 A 
HETATM   22  C2  UNL     1      30.651  12.339  22.252  1.00  0.00     0.068 A 
HETATM   23  C15 UNL     1      29.616  11.500  22.617  1.00  0.00     0.037 A 
HETATM   24  C14 UNL     1      29.697  10.677  23.724  1.00  0.00     0.015 A 
BRANCH  22  25
HETATM   25  O1  UNL     1      30.520  13.149  21.128  1.00  0.00    -0.356 OA
HETATM   26  C1  UNL     1      29.305  13.571  20.593  1.00  0.00     0.210 C 
ENDBRANCH  22  25
ENDBRANCH   1  19
TORSDOF 5
ENDMDL
