MODEL 2
REMARK VINA RESULT: -7.322922587      1.538      1.827
REMARK  6 active torsions:
REMARK  status: ('A' for Active; 'I' for Inactive)
REMARK    1  A    between atoms: C2_2  and  O1_3 
REMARK    2  A    between atoms: O1_3  and  C3_4 
REMARK    3  A    between atoms: C6_7  and  C7_8 
REMARK    4  A    between atoms: C8_14  and  C9_15 
REMARK    5  A    between atoms: C12_19  and  O2_20 
REMARK    6  A    between atoms: C14_23  and  O3_24 
ROOT
HETATM    1  C7  UNL     1      31.608   8.360  25.802  1.00  0.00     0.062 A 
HETATM    2  S1  UNL     1      30.928   7.851  27.316  1.00  0.00     0.004 SA
HETATM    3  N1  UNL     1      30.108   9.262  27.707  1.00  0.00    -0.269 N 
ATOM      4  H1  UNL     1      29.540   9.455  28.532  1.00  0.00     0.195 HD
HETATM    5  N2  UNL     1      30.368  10.047  26.712  1.00  0.00    -0.292 N 
ATOM      6  H2  UNL     1      29.982  10.991  26.701  1.00  0.00     0.187 HD
HETATM    7  C8  UNL     1      31.117   9.646  25.726  1.00  0.00     0.081 A 
ENDROOT
BRANCH   7   8
HETATM    8  C9  UNL     1      31.426  10.550  24.592  1.00  0.00     0.028 A 
HETATM    9  C10 UNL     1      30.420  10.965  23.788  1.00  0.00     0.043 A 
HETATM   10  C11 UNL     1      30.650  11.784  22.725  1.00  0.00     0.068 A 
HETATM   11 CL1  UNL     1      29.342  12.332  21.664  1.00  0.00    -0.081 Cl
HETATM   12  C12 UNL     1      31.929  12.207  22.454  1.00  0.00     0.090 A 
HETATM   13  C13 UNL     1      32.972  11.803  23.253  1.00  0.00     0.075 A 
HETATM   14  C14 UNL     1      32.708  10.963  24.337  1.00  0.00     0.081 A 
BRANCH  12  15
HETATM   15  O2  UNL     1      32.158  13.059  21.346  1.00  0.00    -0.359 OA
ATOM     16  H2  UNL     1      32.928  12.923  20.806  1.00  0.00     0.217 HD
ENDBRANCH  12  15
BRANCH  14  17
HETATM   17  O3  UNL     1      33.790  10.582  25.113  1.00  0.00    -0.360 OA
ATOM     18  H3  UNL     1      34.418  11.203  25.464  1.00  0.00     0.217 HD
ENDBRANCH  14  17
ENDBRANCH   7   8
BRANCH   1  19
HETATM   19  C6  UNL     1      32.452   7.600  24.895  1.00  0.00    -0.015 A 
HETATM   20  C5  UNL     1      33.807   7.427  25.201  1.00  0.00     0.015 A 
HETATM   21  C4  UNL     1      34.635   6.729  24.348  1.00  0.00     0.037 A 
HETATM   22  C3  UNL     1      34.122   6.182  23.159  1.00  0.00     0.068 A 
HETATM   23  C16 UNL     1      32.798   6.350  22.860  1.00  0.00     0.037 A 
HETATM   24  C15 UNL     1      31.995   7.058  23.742  1.00  0.00     0.015 A 
BRANCH  22  25
HETATM   25  O1  UNL     1      34.966   5.487  22.318  1.00  0.00    -0.352 OA
BRANCH  25  26
HETATM   26  C2  UNL     1      35.784   6.022  21.328  1.00  0.00     0.171 C 
HETATM   27  C1  UNL     1      35.780   5.084  20.112  1.00  0.00     0.034 C 
ENDBRANCH  25  26
ENDBRANCH  22  25
ENDBRANCH   1  19
TORSDOF 6
ENDMDL
