MODEL 1
REMARK VINA RESULT: -8.250944455      0.000      0.000
REMARK  6 active torsions:
REMARK  status: ('A' for Active; 'I' for Inactive)
REMARK    1  A    between atoms: C2_2  and  O1_3 
REMARK    2  A    between atoms: O1_3  and  C3_4 
REMARK    3  A    between atoms: C6_7  and  C7_8 
REMARK    4  A    between atoms: C8_14  and  C9_15 
REMARK    5  A    between atoms: C12_19  and  O2_20 
REMARK    6  A    between atoms: C14_23  and  O3_24 
ROOT
HETATM    1  C7  UNL     1      31.530   8.221  25.999  1.00  0.00     0.062 A 
HETATM    2  S1  UNL     1      30.914   7.669  27.525  1.00  0.00     0.004 SA
HETATM    3  N1  UNL     1      29.989   9.012  27.921  1.00  0.00    -0.269 N 
ATOM      4  H1  UNL     1      29.420   9.164  28.753  1.00  0.00     0.195 HD
HETATM    5  N2  UNL     1      30.171   9.809  26.919  1.00  0.00    -0.292 N 
ATOM      6  H2  UNL     1      29.710  10.719  26.908  1.00  0.00     0.187 HD
HETATM    7  C8  UNL     1      30.935   9.463  25.924  1.00  0.00     0.081 A 
ENDROOT
BRANCH   7   8
HETATM    8  C9  UNL     1      31.154  10.382  24.781  1.00  0.00     0.028 A 
HETATM    9  C10 UNL     1      32.407  10.821  24.519  1.00  0.00     0.043 A 
HETATM   10  C11 UNL     1      32.663  11.676  23.492  1.00  0.00     0.068 A 
HETATM   11 CL1  UNL     1      34.297  12.258  23.140  1.00  0.00    -0.081 Cl
HETATM   12  C12 UNL     1      31.631  12.110  22.693  1.00  0.00     0.090 A 
HETATM   13  C13 UNL     1      30.347  11.682  22.933  1.00  0.00     0.075 A 
HETATM   14  C14 UNL     1      30.114  10.805  23.994  1.00  0.00     0.081 A 
BRANCH  12  15
HETATM   15  O2  UNL     1      31.907  12.999  21.626  1.00  0.00    -0.359 OA
ATOM     16  H2  UNL     1      32.581  13.660  21.734  1.00  0.00     0.217 HD
ENDBRANCH  12  15
BRANCH  14  17
HETATM   17  O3  UNL     1      28.804  10.401  24.197  1.00  0.00    -0.360 OA
ATOM     18  H3  UNL     1      28.221  10.829  24.814  1.00  0.00     0.217 HD
ENDBRANCH  14  17
ENDBRANCH   7   8
BRANCH   1  19
HETATM   19  C6  UNL     1      32.418   7.526  25.083  1.00  0.00    -0.015 A 
HETATM   20  C5  UNL     1      33.780   7.421  25.396  1.00  0.00     0.015 A 
HETATM   21  C4  UNL     1      34.648   6.785  24.534  1.00  0.00     0.037 A 
HETATM   22  C3  UNL     1      34.173   6.235  23.332  1.00  0.00     0.068 A 
HETATM   23  C16 UNL     1      32.844   6.336  23.027  1.00  0.00     0.037 A 
HETATM   24  C15 UNL     1      31.998   6.982  23.917  1.00  0.00     0.015 A 
BRANCH  22  25
HETATM   25  O1  UNL     1      35.059   5.603  22.483  1.00  0.00    -0.352 OA
BRANCH  25  26
HETATM   26  C2  UNL     1      35.765   6.180  21.433  1.00  0.00     0.171 C 
HETATM   27  C1  UNL     1      35.761   5.218  20.236  1.00  0.00     0.034 C 
ENDBRANCH  25  26
ENDBRANCH  22  25
ENDBRANCH   1  19
TORSDOF 6
ENDMDL
