MODEL 5
REMARK VINA RESULT: -7.078274038      6.054      9.366
REMARK  6 active torsions:
REMARK  status: ('A' for Active; 'I' for Inactive)
REMARK    1  A    between atoms: C2_2  and  O1_3 
REMARK    2  A    between atoms: O1_3  and  C3_4 
REMARK    3  A    between atoms: C6_7  and  C7_8 
REMARK    4  A    between atoms: C8_14  and  C9_15 
REMARK    5  A    between atoms: C12_19  and  O2_20 
REMARK    6  A    between atoms: C14_23  and  O3_24 
ROOT
HETATM    1  C7  UNL     1      36.002   3.679  20.927  1.00  0.00     0.062 A 
HETATM    2  S1  UNL     1      35.920   3.377  19.220  1.00  0.00     0.004 SA
HETATM    3  N1  UNL     1      36.955   2.058  19.149  1.00  0.00    -0.269 N 
ATOM      4  H1  UNL     1      37.232   1.516  18.331  1.00  0.00     0.195 HD
HETATM    5  N2  UNL     1      37.318   1.895  20.380  1.00  0.00    -0.292 N 
ATOM      6  H2  UNL     1      37.963   1.141  20.619  1.00  0.00     0.187 HD
HETATM    7  C8  UNL     1      36.870   2.680  21.316  1.00  0.00     0.081 A 
ENDROOT
BRANCH   7   8
HETATM    8  C9  UNL     1      37.297   2.500  22.725  1.00  0.00     0.028 A 
HETATM    9  C10 UNL     1      36.727   1.523  23.466  1.00  0.00     0.043 A 
HETATM   10  C11 UNL     1      37.070   1.323  24.767  1.00  0.00     0.068 A 
HETATM   11 CL1  UNL     1      36.331   0.048  25.748  1.00  0.00    -0.081 Cl
HETATM   12  C12 UNL     1      38.020   2.127  25.353  1.00  0.00     0.090 A 
HETATM   13  C13 UNL     1      38.618   3.129  24.626  1.00  0.00     0.075 A 
HETATM   14  C14 UNL     1      38.245   3.311  23.293  1.00  0.00     0.081 A 
BRANCH  12  15
HETATM   15  O2  UNL     1      38.371   1.911  26.708  1.00  0.00    -0.359 OA
ATOM     16  H2  UNL     1      39.286   1.794  26.938  1.00  0.00     0.217 HD
ENDBRANCH  12  15
BRANCH  14  17
HETATM   17  O3  UNL     1      38.875   4.333  22.600  1.00  0.00    -0.360 OA
ATOM     18  H3  UNL     1      39.261   5.087  23.030  1.00  0.00     0.217 HD
ENDBRANCH  14  17
ENDBRANCH   7   8
BRANCH   1  19
HETATM   19  C6  UNL     1      35.319   4.708  21.693  1.00  0.00    -0.015 A 
HETATM   20  C5  UNL     1      34.182   4.368  22.436  1.00  0.00     0.015 A 
HETATM   21  C4  UNL     1      33.502   5.329  23.154  1.00  0.00     0.037 A 
HETATM   22  C3  UNL     1      33.948   6.662  23.147  1.00  0.00     0.068 A 
HETATM   23  C16 UNL     1      35.059   6.993  22.423  1.00  0.00     0.037 A 
HETATM   24  C15 UNL     1      35.719   6.001  21.712  1.00  0.00     0.015 A 
BRANCH  22  25
HETATM   25  O1  UNL     1      33.255   7.608  23.873  1.00  0.00    -0.352 OA
BRANCH  25  26
HETATM   26  C2  UNL     1      31.919   7.551  24.258  1.00  0.00     0.171 C 
HETATM   27  C1  UNL     1      31.362   8.979  24.352  1.00  0.00     0.034 C 
ENDBRANCH  25  26
ENDBRANCH  22  25
ENDBRANCH   1  19
TORSDOF 6
ENDMDL
