MODEL 4
REMARK VINA RESULT: -7.187717148      4.012      5.619
REMARK  6 active torsions:
REMARK  status: ('A' for Active; 'I' for Inactive)
REMARK    1  A    between atoms: C2_2  and  O1_3 
REMARK    2  A    between atoms: O1_3  and  C3_4 
REMARK    3  A    between atoms: C6_7  and  C7_8 
REMARK    4  A    between atoms: C8_14  and  C9_15 
REMARK    5  A    between atoms: C12_19  and  O2_20 
REMARK    6  A    between atoms: C14_23  and  O3_24 
ROOT
HETATM    1  C7  UNL     1      33.044   5.933  24.761  1.00  0.00     0.062 A 
HETATM    2  S1  UNL     1      33.372   4.439  23.940  1.00  0.00     0.004 SA
HETATM    3  N1  UNL     1      33.387   5.018  22.365  1.00  0.00    -0.269 N 
ATOM      4  H1  UNL     1      33.545   4.498  21.503  1.00  0.00     0.195 HD
HETATM    5  N2  UNL     1      33.150   6.282  22.507  1.00  0.00    -0.292 N 
ATOM      6  H2  UNL     1      33.105   6.882  21.683  1.00  0.00     0.187 HD
HETATM    7  C8  UNL     1      32.970   6.797  23.689  1.00  0.00     0.081 A 
ENDROOT
BRANCH   7   8
HETATM    8  C9  UNL     1      32.686   8.243  23.850  1.00  0.00     0.028 A 
HETATM    9  C10 UNL     1      31.444   8.632  24.221  1.00  0.00     0.043 A 
HETATM   10  C11 UNL     1      31.125   9.947  24.371  1.00  0.00     0.068 A 
HETATM   11 CL1  UNL     1      29.504  10.469  24.854  1.00  0.00    -0.081 Cl
HETATM   12  C12 UNL     1      32.079  10.911  24.144  1.00  0.00     0.090 A 
HETATM   13  C13 UNL     1      33.349  10.547  23.766  1.00  0.00     0.075 A 
HETATM   14  C14 UNL     1      33.649   9.191  23.620  1.00  0.00     0.081 A 
BRANCH  12  15
HETATM   15  O2  UNL     1      31.737  12.276  24.302  1.00  0.00    -0.359 OA
ATOM     16  H2  UNL     1      31.316  12.736  23.585  1.00  0.00     0.217 HD
ENDBRANCH  12  15
BRANCH  14  17
HETATM   17  O3  UNL     1      34.942   8.873  23.238  1.00  0.00    -0.360 OA
ATOM     18  H3  UNL     1      35.703   9.077  23.769  1.00  0.00     0.217 HD
ENDBRANCH  14  17
ENDBRANCH   7   8
BRANCH   1  19
HETATM   19  C6  UNL     1      32.903   6.162  26.189  1.00  0.00    -0.015 A 
HETATM   20  C5  UNL     1      31.738   5.737  26.840  1.00  0.00     0.015 A 
HETATM   21  C4  UNL     1      31.569   5.961  28.190  1.00  0.00     0.037 A 
HETATM   22  C3  UNL     1      32.569   6.619  28.927  1.00  0.00     0.068 A 
HETATM   23  C16 UNL     1      33.707   7.032  28.292  1.00  0.00     0.037 A 
HETATM   24  C15 UNL     1      33.844   6.790  26.932  1.00  0.00     0.015 A 
BRANCH  22  25
HETATM   25  O1  UNL     1      32.381   6.833  30.276  1.00  0.00    -0.352 OA
BRANCH  25  26
HETATM   26  C2  UNL     1      32.577   5.915  31.303  1.00  0.00     0.171 C 
HETATM   27  C1  UNL     1      31.214   5.508  31.880  1.00  0.00     0.034 C 
ENDBRANCH  25  26
ENDBRANCH  22  25
ENDBRANCH   1  19
TORSDOF 6
ENDMDL
