MODEL 3
REMARK VINA RESULT: -7.244700365      3.791      5.667
REMARK  6 active torsions:
REMARK  status: ('A' for Active; 'I' for Inactive)
REMARK    1  A    between atoms: C2_2  and  O1_3 
REMARK    2  A    between atoms: O1_3  and  C3_4 
REMARK    3  A    between atoms: C6_7  and  C7_8 
REMARK    4  A    between atoms: C8_14  and  C9_15 
REMARK    5  A    between atoms: C12_19  and  O2_20 
REMARK    6  A    between atoms: C14_23  and  O3_24 
ROOT
HETATM    1  C7  UNL     1      31.564   8.312  25.966  1.00  0.00     0.062 A 
HETATM    2  S1  UNL     1      30.857   9.895  25.869  1.00  0.00     0.004 SA
HETATM    3  N1  UNL     1      29.937   9.843  27.271  1.00  0.00    -0.269 N 
ATOM      4  H1  UNL     1      29.328  10.566  27.654  1.00  0.00     0.195 HD
HETATM    5  N2  UNL     1      30.186   8.668  27.751  1.00  0.00    -0.292 N 
ATOM      6  H2  UNL     1      29.741   8.375  28.621  1.00  0.00     0.187 HD
HETATM    7  C8  UNL     1      30.996   7.856  27.137  1.00  0.00     0.081 A 
ENDROOT
BRANCH   7   8
HETATM    8  C9  UNL     1      31.271   6.504  27.680  1.00  0.00     0.028 A 
HETATM    9  C10 UNL     1      30.954   5.419  26.936  1.00  0.00     0.043 A 
HETATM   10  C11 UNL     1      31.172   4.155  27.392  1.00  0.00     0.068 A 
HETATM   11 CL1  UNL     1      30.761   2.727  26.429  1.00  0.00    -0.081 Cl
HETATM   12  C12 UNL     1      31.728   3.964  28.635  1.00  0.00     0.090 A 
HETATM   13  C13 UNL     1      32.060   5.046  29.414  1.00  0.00     0.075 A 
HETATM   14  C14 UNL     1      31.825   6.332  28.922  1.00  0.00     0.081 A 
BRANCH  12  15
HETATM   15  O2  UNL     1      31.950   2.645  29.099  1.00  0.00    -0.359 OA
ATOM     16  H2  UNL     1      32.121   2.500  30.023  1.00  0.00     0.217 HD
ENDBRANCH  12  15
BRANCH  14  17
HETATM   17  O3  UNL     1      32.177   7.391  29.743  1.00  0.00    -0.360 OA
ATOM     18  H3  UNL     1      32.339   7.292  30.674  1.00  0.00     0.217 HD
ENDBRANCH  14  17
ENDBRANCH   7   8
BRANCH   1  19
HETATM   19  C6  UNL     1      32.498   7.687  25.045  1.00  0.00    -0.015 A 
HETATM   20  C5  UNL     1      32.017   7.124  23.857  1.00  0.00     0.015 A 
HETATM   21  C4  UNL     1      32.879   6.505  22.976  1.00  0.00     0.037 A 
HETATM   22  C3  UNL     1      34.253   6.436  23.264  1.00  0.00     0.068 A 
HETATM   23  C16 UNL     1      34.723   6.987  24.424  1.00  0.00     0.037 A 
HETATM   24  C15 UNL     1      33.827   7.602  25.288  1.00  0.00     0.015 A 
BRANCH  22  25
HETATM   25  O1  UNL     1      35.099   5.813  22.370  1.00  0.00    -0.352 OA
BRANCH  25  26
HETATM   26  C2  UNL     1      35.778   6.407  21.312  1.00  0.00     0.171 C 
HETATM   27  C1  UNL     1      35.786   5.444  20.116  1.00  0.00     0.034 C 
ENDBRANCH  25  26
ENDBRANCH  22  25
ENDBRANCH   1  19
TORSDOF 6
ENDMDL
