MODEL 3
REMARK VINA RESULT: -9.125691817      3.357      9.416
REMARK  6 active torsions:
REMARK  status: ('A' for Active; 'I' for Inactive)
REMARK    1  A    between atoms: C2_2  and  N1_3 
REMARK       I    between atoms: N1_3  and  C3_5 
REMARK       I    between atoms: C3_5  and  N2_7 
REMARK    2  A    between atoms: N2_7  and  C4_9 
REMARK    3  A    between atoms: C4_9  and  C5_10 
REMARK    4  A    between atoms: C10_15  and  S1_16 
REMARK    5  A    between atoms: S1_16  and  C11_17 
REMARK    6  A    between atoms: C15_25  and  C16_26 
ROOT
HETATM    1  C5  UNL     1       0.058   9.993  30.147  1.00  0.00    -0.023 A 
HETATM    2  C6  UNL     1      -0.423   8.965  30.950  1.00  0.00     0.010 A 
HETATM    3  C7  UNL     1       0.252   8.581  32.089  1.00  0.00     0.001 A 
HETATM    4  C8  UNL     1       1.433   9.256  32.399  1.00  0.00     0.001 A 
HETATM    5  C9  UNL     1       1.929  10.293  31.585  1.00  0.00     0.019 A 
HETATM    6  C10 UNL     1       1.209  10.628  30.467  1.00  0.00     0.013 A 
ENDROOT
BRANCH   6   7
HETATM    7  S1  UNL     1       1.786  11.942  29.374  1.00  0.00    -0.089 SA
BRANCH   7   8
HETATM    8  C11 UNL     1       2.957  12.913  30.306  1.00  0.00     0.021 A 
HETATM    9  C12 UNL     1       2.532  13.859  31.228  1.00  0.00     0.024 A 
HETATM   10  C13 UNL     1       3.429  14.634  31.954  1.00  0.00     0.052 A 
HETATM   11  C14 UNL     1       4.769  14.425  31.725  1.00  0.00     0.127 A 
HETATM   12  N3  UNL     1       5.881  14.991  32.236  1.00  0.00    -0.284 N 
HETATM   13  N5  UNL     1       5.203  13.498  30.827  1.00  0.00    -0.294 N 
HETATM   14  N4  UNL     1       6.934  14.432  31.677  1.00  0.00    -0.287 N 
ATOM     15  H3  UNL     1       5.903  15.730  32.939  1.00  0.00     0.188 HD
HETATM   16  C15 UNL     1       6.540  13.479  30.782  1.00  0.00     0.107 A 
ATOM     17  H4  UNL     1       7.903  14.675  31.882  1.00  0.00     0.188 HD
HETATM   18  C19 UNL     1       4.299  12.762  30.135  1.00  0.00     0.119 A 
BRANCH  16  19
HETATM   19  C16 UNL     1       7.451  12.585  30.019  1.00  0.00     0.047 C 
HETATM   20  C17 UNL     1       8.298  11.803  30.980  1.00  0.00     0.017 C 
HETATM   21  C18 UNL     1       6.595  11.700  29.129  1.00  0.00     0.017 C 
ENDBRANCH  16  19
ENDBRANCH   7   8
ENDBRANCH   6   7
BRANCH   1  22
HETATM   22  C4  UNL     1      -0.675  10.435  28.910  1.00  0.00     0.164 C 
BRANCH  22  23
HETATM   23  N2  UNL     1      -1.661   9.395  28.601  1.00  0.00    -0.339 N 
HETATM   24  C3  UNL     1      -2.731   9.457  27.755  1.00  0.00     0.316 C 
HETATM   25  N1  UNL     1      -3.563   8.283  27.451  1.00  0.00    -0.343 N 
HETATM   26  O1  UNL     1      -3.103  10.460  27.152  1.00  0.00    -0.247 OA
ATOM     27  H1  UNL     1      -3.405   7.388  27.915  1.00  0.00     0.164 HD
ATOM     28  H2  UNL     1      -1.531   8.505  29.084  1.00  0.00     0.164 HD
BRANCH  25  29
HETATM   29  C2  UNL     1      -4.619   8.443  26.468  1.00  0.00     0.120 C 
HETATM   30  C1  UNL     1      -4.999   7.184  25.743  1.00  0.00     0.026 C 
ENDBRANCH  25  29
ENDBRANCH  22  23
ENDBRANCH   1  22
TORSDOF 6
ENDMDL
